REMARK  Name = ZINC01277813
REMARK  5 active torsions:
REMARK  status: ('A' for Active; 'I' for Inactive)
REMARK    1  A    between atoms: C_1  and  C_2
REMARK    2  A    between atoms: C_2  and  C_22
REMARK    3  A    between atoms: N_11  and  C_19
REMARK    4  A    between atoms: C_14  and  S_17
REMARK    5  A    between atoms: S_17  and  C_18
REMARK                            x       y       z     vdW  Elec       q    Type
REMARK                         _______ _______ _______ _____ _____    ______ ____
ROOT
ATOM      1  C   UNL     1      -0.019   1.526   0.010  0.00  0.00    +0.023 C 
ATOM      2  C   UNL     1       0.002  -0.004   0.002  0.00  0.00    +0.015 C 
ATOM      3  C   UNL     1       0.708  -0.498  -1.254  0.00  0.00    +0.053 C 
ATOM      4  C   UNL     1      -0.073  -0.147  -2.515  0.00  0.00    -0.021 A 
ATOM      5  C   UNL     1      -1.386   0.122  -2.566  0.00  0.00    +0.006 A 
ATOM      6  S   UNL     1      -1.728   0.424  -4.284  0.00  0.00    -0.074 S 
ATOM      7  C   UNL     1      -0.142   0.207  -4.920  0.00  0.00    +0.102 A 
ATOM      8  C   UNL     1       0.632  -0.098  -3.810  0.00  0.00    +0.074 A 
ATOM      9  C   UNL     1       2.072  -0.338  -4.057  0.00  0.00    +0.264 A 
ATOM     10  O   UNL     1       2.816  -0.610  -3.131  0.00  0.00    -0.267 OA
ATOM     11  N   UNL     1       2.553  -0.257  -5.309  0.00  0.00    -0.280 N 
ATOM     12  C   UNL     1       1.731   0.050  -6.381  0.00  0.00    +0.240 A 
ATOM     13  N   UNL     1       0.394   0.280  -6.186  0.00  0.00    -0.249 N 
ATOM     14  C   UNL     1      -0.165   0.557  -7.406  0.00  0.00    +0.198 A 
ATOM     15  N   UNL     1       0.783   0.501  -8.309  0.00  0.00    -0.120 NA
ATOM     16  N   UNL     1       1.982   0.181  -7.662  0.00  0.00    -0.109 NA
ATOM     17  C   UNL     1       3.979  -0.497  -5.546  0.00  0.00    +0.155 C 
ATOM     18  C   UNL     1      -2.407   0.176  -1.463  0.00  0.00    +0.112 C 
ATOM     19  S   UNL     1      -1.704  -0.638   0.006  0.00  0.00    -0.149 S 
ATOM     20  C   UNL     1       0.742  -0.514   1.241  0.00  0.00    +0.023 C 
ENDROOT
BRANCH  14  21
ATOM     21  S   UNL     1      -1.861   0.925  -7.707  0.00  0.00    -0.089 S 
ATOM     22  C   UNL     1      -1.941   1.190  -9.500  0.00  0.00    +0.093 C 
ENDBRANCH  14  21
TORSDOF 1
