REMARK  Name = ZINC38541426
REMARK  7 active torsions:
REMARK  status: ('A' for Active; 'I' for Inactive)
REMARK    1  A    between atoms: C_1  and  C_22
REMARK    2  A    between atoms: C_2  and  C_19
REMARK    3  A    between atoms: C_3  and  C_16
REMARK    4  A    between atoms: C_4  and  C_13
REMARK    5  A    between atoms: C_5  and  C_10
REMARK    6  A    between atoms: C_6  and  C_7
REMARK    7  A    between atoms: C_22  and  O_24
REMARK                            x       y       z     vdW  Elec       q    Type
REMARK                         _______ _______ _______ _____ _____    ______ ____
ROOT
ATOM      1  C   UNL     1      -1.215   2.104  -1.133  0.00  0.00    +0.127 C 
ATOM      2  C   UNL     1      -0.154   2.636  -0.166  0.00  0.00    +0.131 C 
ATOM      3  C   UNL     1       0.925   1.571   0.042  0.00  0.00    +0.131 C 
ATOM      4  C   UNL     1       0.289   0.308   0.626  0.00  0.00    +0.131 C 
ATOM      5  C   UNL     1      -0.772  -0.223  -0.340  0.00  0.00    +0.131 C 
ATOM      6  C   UNL     1      -1.851   0.842  -0.548  0.00  0.00    +0.131 C 
ENDROOT
BRANCH   6   7
ATOM      7  C   UNL     1      -2.895   0.318  -1.500  0.00  0.00    +0.361 C 
ATOM      8  O   UNL     1      -2.586   0.019  -2.641  0.00  0.00    -0.246 OA
ATOM      9  O   UNL     1      -4.050   0.194  -1.130  0.00  0.00    -0.246 OA
ENDBRANCH   6   7
BRANCH   5  10
ATOM     10  C   UNL     1      -1.398  -1.467   0.236  0.00  0.00    +0.361 C 
ATOM     11  O   UNL     1      -0.736  -2.485   0.352  0.00  0.00    -0.246 OA
ATOM     12  O   UNL     1      -2.566  -1.456   0.585  0.00  0.00    -0.246 OA
ENDBRANCH   5  10
BRANCH   4  13
ATOM     13  C   UNL     1      -0.355   0.636   1.949  0.00  0.00    +0.361 C 
ATOM     14  O   UNL     1      -1.530   0.369   2.137  0.00  0.00    -0.246 OA
ATOM     15  O   UNL     1       0.298   1.167   2.830  0.00  0.00    -0.246 OA
ENDBRANCH   4  13
BRANCH   3  16
ATOM     16  C   UNL     1       1.969   2.094   0.994  0.00  0.00    +0.361 C 
ATOM     17  O   UNL     1       2.579   1.322   1.714  0.00  0.00    -0.246 OA
ATOM     18  O   UNL     1       2.205   3.289   1.044  0.00  0.00    -0.246 OA
ENDBRANCH   3  16
BRANCH   2  19
ATOM     19  C   UNL     1      -0.799   2.963   1.156  0.00  0.00    +0.361 C 
ATOM     20  O   UNL     1      -0.138   3.469   2.047  0.00  0.00    -0.246 OA
ATOM     21  O   UNL     1      -1.980   2.723   1.334  0.00  0.00    -0.246 OA
ENDBRANCH   2  19
BRANCH   1  22
ATOM     22  C   UNL     1      -2.278   3.153  -1.338  0.00  0.00    +0.309 C 
ATOM     23  O   UNL     1      -3.426   2.915  -1.047  0.00  0.00    -0.251 OA
BRANCH  22  24
ATOM     24  O   UNL     1      -1.949   4.352  -1.844  0.00  0.00    -0.480 OA
ATOM     25  H   UNL     1      -2.697   4.957  -1.939  0.00  0.00    +0.295 HD
ENDBRANCH  22  24
ENDBRANCH   1  22
TORSDOF 7
