REMARK  Name = ZINC20906374
REMARK  8 active torsions:
REMARK  status: ('A' for Active; 'I' for Inactive)
REMARK    1  A    between atoms: C_3  and  C_22
REMARK    2  A    between atoms: C_5  and  C_6
REMARK    3  A    between atoms: C_6  and  N_7
REMARK    4  A    between atoms: N_7  and  C_8
REMARK    5  A    between atoms: N_13  and  C_15
REMARK    6  A    between atoms: C_15  and  C_16
REMARK    7  A    between atoms: C_23  and  C_24
REMARK    8  A    between atoms: C_24  and  O_25
REMARK                            x       y       z     vdW  Elec       q    Type
REMARK                         _______ _______ _______ _____ _____    ______ ____
ROOT
ATOM      1  C   UNL     1      -0.167   0.073   0.115  0.00  0.00    +0.037 C 
ATOM      2  C   UNL     1       0.603  -0.443   1.333  0.00  0.00    +0.015 C 
ATOM      3  C   UNL     1       2.045   0.068   1.270  0.00  0.00    -0.017 C 
ATOM      4  C   UNL     1       2.037   1.597   1.214  0.00  0.00    -0.079 C 
ATOM      5  N   UNL     1       1.289   2.041   0.031  0.00  0.00    +0.381 N 
ATOM      6  C   UNL     1      -0.111   1.603   0.092  0.00  0.00    -0.060 C 
ATOM      7  H   UNL     1       1.749   1.573  -0.852  0.00  0.00    -0.082 HD
ENDROOT
BRANCH   1   8
ATOM      8  N   UNL     1      -1.567  -0.365   0.197  0.00  0.00    -0.311 NA
ATOM      9  H   UNL     1      -2.192   0.342  -0.369  0.00  0.00    +0.122 HD
BRANCH   8  10
ATOM     10  C   UNL     1      -1.730  -1.715  -0.357  0.00  0.00    +0.123 C 
BRANCH  10  15
ATOM     11  C   UNL     1      -4.180  -1.950  -1.152  0.00  0.00    +0.014 A 
ATOM     12  C   UNL     1      -5.440  -2.414  -0.849  0.00  0.00    +0.025 A 
ATOM     13  C   UNL     1      -5.638  -3.045   0.353  0.00  0.00    +0.062 A 
ATOM     14  S   UNL     1      -4.005  -2.989   1.071  0.00  0.00    -0.084 S 
ATOM     15  C   UNL     1      -3.175  -2.129  -0.255  0.00  0.00    +0.005 A 
BRANCH  13  16
ATOM     16  C   UNL     1      -6.841  -3.608   0.889  0.00  0.00    -0.057 C 
ATOM     17  C   UNL     1      -7.827  -4.069   1.328  0.00  0.00    -0.069 C 
BRANCH  17  18
ATOM     18  C   UNL     1      -9.063  -4.648   1.879  0.00  0.00    +0.244 C 
BRANCH  18  19
ATOM     19  O   UNL     1      -9.539  -5.675   1.007  0.00  0.00    -0.383 OA
ATOM     20  H   UNL     1     -10.458  -6.226   1.255  0.00  0.00    +0.211 HD
ENDBRANCH  18  19
ENDBRANCH  17  18
ENDBRANCH  13  16
ENDBRANCH  10  15
ENDBRANCH   8  10
ENDBRANCH   1   8
BRANCH   5  21
ATOM     21  C   UNL     1       1.378   3.499  -0.132  0.00  0.00    -0.075 C 
BRANCH  21  22
ATOM     22  C   UNL     1       0.809   3.895  -1.496  0.00  0.00    -0.028 C 
ATOM     23  C   UNL     1       1.659   3.272  -2.604  0.00  0.00    +0.002 C 
ATOM     24  C   UNL     1       1.090   3.669  -3.968  0.00  0.00    +0.000 C 
ATOM     25  C   UNL     1       1.110   5.192  -4.105  0.00  0.00    +0.000 C 
ATOM     26  C   UNL     1       0.259   5.816  -2.997  0.00  0.00    +0.000 C 
ATOM     27  C   UNL     1       0.828   5.419  -1.633  0.00  0.00    +0.002 C 
ENDBRANCH  21  22
ENDBRANCH   5  21
TORSDOF 8
