REMARK  Name = ZINC18265621
REMARK  13 active torsions:
REMARK  status: ('A' for Active; 'I' for Inactive)
REMARK    1  A    between atoms: C_1  and  C_2
REMARK    2  A    between atoms: C_2  and  C_3
REMARK    3  A    between atoms: C_3  and  O_4
REMARK    4  A    between atoms: O_4  and  C_5
REMARK    5  A    between atoms: C_8  and  N_11
REMARK    6  A    between atoms: C_15  and  N_60
REMARK    7  A    between atoms: C_19  and  C_20
REMARK    8  A    between atoms: C_19  and  N_60
REMARK    9  A    between atoms: C_20  and  N_21
REMARK   10  A    between atoms: N_21  and  C_22
REMARK   11  A    between atoms: C_25  and  S_28
REMARK   12  A    between atoms: S_28  and  C_31
REMARK   13  A    between atoms: C_31  and  C_32
REMARK                            x       y       z     vdW  Elec       q    Type
REMARK                         _______ _______ _______ _____ _____    ______ ____
ROOT
ATOM      1  N   UNL     1      -0.050   0.015   0.024  0.00  0.00    +0.388 N 
ATOM      2  H   UNL     1       0.755  -0.337   0.556  0.00  0.00    -0.085 HD
ATOM      3  H   UNL     1       0.005  -0.324  -0.944  0.00  0.00    -0.085 HD
ENDROOT
BRANCH   1   8
ATOM      4  N   UNL     1       0.300   2.732  -1.915  0.00  0.00    -0.212 N 
ATOM      5  C   UNL     1       1.493   2.781  -1.311  0.00  0.00    +0.225 C 
ATOM      6  O   UNL     1       2.472   3.357  -1.735  0.00  0.00    -0.275 OA
ATOM      7  C   UNL     1       1.427   2.002  -0.015  0.00  0.00    +0.090 C 
ATOM      8  C   UNL     1      -0.027   1.490   0.025  0.00  0.00    +0.026 C 
ATOM      9  C   UNL     1      -0.630   2.033  -1.252  0.00  0.00    +0.213 C 
ATOM     10  O   UNL     1      -1.773   1.861  -1.618  0.00  0.00    -0.277 OA
BRANCH   4  14
ATOM     11  C   UNL     1      -0.463   4.608  -5.563  0.00  0.00    +0.121 A 
ATOM     12  C   UNL     1      -0.465   3.223  -5.482  0.00  0.00    +0.047 A 
ATOM     13  C   UNL     1      -0.212   2.602  -4.275  0.00  0.00    +0.027 A 
ATOM     14  C   UNL     1       0.043   3.363  -3.143  0.00  0.00    +0.044 A 
ATOM     15  C   UNL     1       0.040   4.749  -3.223  0.00  0.00    +0.027 A 
ATOM     16  C   UNL     1      -0.207   5.369  -4.432  0.00  0.00    +0.047 A 
BRANCH  11  17
ATOM     17  O   UNL     1      -0.712   5.219  -6.752  0.00  0.00    -0.492 OA
BRANCH  17  18
ATOM     18  C   UNL     1      -0.694   6.648  -6.763  0.00  0.00    +0.229 C 
BRANCH  18  20
ATOM     19  C   UNL     1      -0.974   8.680  -8.188  0.00  0.00    +0.007 C 
ATOM     20  C   UNL     1      -0.993   7.151  -8.177  0.00  0.00    +0.038 C 
ENDBRANCH  18  20
ENDBRANCH  17  18
ENDBRANCH  11  17
ENDBRANCH   4  14
ENDBRANCH   1   8
BRANCH   1  21
ATOM     21  C   UNL     1      -1.295  -0.478   0.642  0.00  0.00    -0.063 C 
BRANCH  21  22
ATOM     22  C   UNL     1      -1.291  -2.008   0.626  0.00  0.00    +0.082 C 
BRANCH  22  23
ATOM     23  N   UNL     1      -2.525  -2.506   1.238  0.00  0.00    -0.346 N 
ATOM     24  H   UNL     1      -3.186  -1.881   1.574  0.00  0.00    +0.146 HD
BRANCH  23  25
ATOM     25  C   UNL     1      -2.749  -3.881   1.339  0.00  0.00    +0.027 A 
ATOM     26  C   UNL     1      -1.806  -4.778   0.853  0.00  0.00    +0.025 A 
ATOM     27  C   UNL     1      -2.029  -6.137   0.958  0.00  0.00    +0.029 A 
ATOM     28  C   UNL     1      -3.194  -6.605   1.536  0.00  0.00    +0.088 A 
ATOM     29  C   UNL     1      -4.138  -5.715   2.016  0.00  0.00    +0.029 A 
ATOM     30  C   UNL     1      -3.919  -4.355   1.919  0.00  0.00    +0.025 A 
BRANCH  28  31
ATOM     31  S   UNL     1      -3.477  -8.340   1.662  0.00  0.00    -0.003 S 
ATOM     32  O   UNL     1      -2.179  -8.918   1.682  0.00  0.00    -0.169 OA
ATOM     33  O   UNL     1      -4.352  -8.485   2.773  0.00  0.00    -0.169 OA
BRANCH  31  34
ATOM     34  C   UNL     1      -4.336  -8.785   0.128  0.00  0.00    +0.168 C 
ATOM     35  C   UNL     1      -4.636 -10.285   0.128  0.00  0.00    +0.028 C 
ENDBRANCH  31  34
ENDBRANCH  28  31
ENDBRANCH  23  25
ENDBRANCH  22  23
ENDBRANCH  21  22
ENDBRANCH   1  21
TORSDOF 11
