REMARK  Name = ZINC37984868
REMARK  10 active torsions:
REMARK  status: ('A' for Active; 'I' for Inactive)
REMARK    1  A    between atoms: C_1  and  C_2
REMARK    2  A    between atoms: C_6  and  C_22
REMARK    3  A    between atoms: C_7  and  O_8
REMARK    4  A    between atoms: O_8  and  C_9
REMARK    5  A    between atoms: C_9  and  C_10
REMARK    6  A    between atoms: C_10  and  C_12
REMARK    7  A    between atoms: C_10  and  O_21
REMARK    8  A    between atoms: C_12  and  N_13
REMARK    9  A    between atoms: N_13  and  C_14
REMARK   10  A    between atoms: C_14  and  C_15
REMARK                            x       y       z     vdW  Elec       q    Type
REMARK                         _______ _______ _______ _____ _____    ______ ____
ROOT
ATOM      1  C   UNL     1      -1.043   1.022   4.274  0.00  0.00    +0.135 C 
ENDROOT
BRANCH   1   2
ATOM      2  O   UNL     1      -0.435   2.289   4.011  0.00  0.00    -0.390 OA
ATOM      3  H   UNL     1      -0.956   2.862   3.432  0.00  0.00    +0.210 HD
ENDBRANCH   1   2
BRANCH   1   4
ATOM      4  C   UNL     1      -1.246   0.270   2.957  0.00  0.00    +0.258 C 
BRANCH   4   5
ATOM      5  O   UNL     1       0.025  -0.033   2.381  0.00  0.00    -0.489 OA
BRANCH   5  12
ATOM      6  C   UNL     1      -0.018   1.503   0.010  0.00  0.00    +0.047 C 
ATOM      7  C   UNL     1       0.002  -0.004   0.002  0.00  0.00    -0.009 A 
ATOM      8  C   UNL     1       0.006  -0.689  -1.198  0.00  0.00    +0.007 A 
ATOM      9  C   UNL     1       0.024  -2.071  -1.206  0.00  0.00    +0.001 A 
ATOM     10  C   UNL     1       0.040  -2.772  -0.014  0.00  0.00    +0.007 A 
ATOM     11  C   UNL     1       0.036  -2.092   1.188  0.00  0.00    -0.009 A 
ATOM     12  C   UNL     1       0.023  -0.705   1.199  0.00  0.00    +0.126 A 
ATOM     13  C   UNL     1       0.052  -2.856   2.487  0.00  0.00    +0.047 C 
ENDBRANCH   5  12
ENDBRANCH   4   5
ENDBRANCH   1   4
BRANCH   1  14
ATOM     14  C   UNL     1      -2.397   1.238   4.953  0.00  0.00    -0.047 C 
BRANCH  14  15
ATOM     15  N   UNL     1      -2.202   1.960   6.217  0.00  0.00    +0.384 N 
ATOM     16  H   UNL     1      -1.604   1.420   6.824  0.00  0.00    -0.085 HD
ATOM     17  H   UNL     1      -1.773   2.854   6.031  0.00  0.00    -0.085 HD
BRANCH  15  18
ATOM     18  C   UNL     1      -3.502   2.167   6.868  0.00  0.00    -0.039 C 
BRANCH  18  19
ATOM     19  C   UNL     1      -3.302   2.908   8.165  0.00  0.00    -0.026 A 
ATOM     20  C   UNL     1      -3.302   4.243   8.394  0.00  0.00    +0.010 A 
ATOM     21  C   UNL     1      -3.095   4.704   9.681  0.00  0.00    +0.023 A 
ATOM     22  C   UNL     1      -2.899   3.804  10.677  0.00  0.00    +0.055 A 
ATOM     23  S   UNL     1      -3.011   2.253   9.800  0.00  0.00    -0.088 S 
ATOM     24 BR   UNL     1      -2.592   4.112  12.517  0.00  0.00    -0.043 Br
ENDBRANCH  18  19
ENDBRANCH  15  18
ENDBRANCH  14  15
ENDBRANCH   1  14
TORSDOF 8
