REMARK  Name = ZINC62329769
REMARK  3 active torsions:
REMARK  status: ('A' for Active; 'I' for Inactive)
REMARK    1  A    between atoms: N_7  and  C_10
REMARK    2  A    between atoms: C_12  and  C_18
REMARK    3  A    between atoms: C_13  and  N_17
REMARK                            x       y       z     vdW  Elec       q    Type
REMARK                         _______ _______ _______ _____ _____    ______ ____
ROOT
ATOM      1  C   UNL     1       3.817  -2.775  -1.077  0.00  0.00    +0.067 A 
ATOM      2  C   UNL     1       3.844  -2.357  -2.394  0.00  0.00    +0.041 A 
ATOM      3  C   UNL     1       4.394  -3.187  -3.377  0.00  0.00    +0.059 A 
ATOM      4  C   UNL     1       4.914  -4.440  -3.017  0.00  0.00    +0.040 A 
ATOM      5  C   UNL     1       4.880  -4.846  -1.690  0.00  0.00    +0.063 A 
ATOM      6  C   UNL     1       4.340  -4.018  -0.725  0.00  0.00    +0.146 A 
ATOM      7  F   UNL     1       4.314  -4.418   0.565  0.00  0.00    -0.203 F 
ENDROOT
BRANCH   1  14
ATOM      8  C   UNL     1       0.073   1.131   0.603  0.00  0.00    +0.102 A 
ATOM      9  C   UNL     1       1.344   1.578   0.557  0.00  0.00    +0.105 A 
ATOM     10  N   UNL     1       2.142   0.481   0.417  0.00  0.00    -0.333 N 
ATOM     11  C   UNL     1       1.332  -0.604   0.387  0.00  0.00    +0.105 A 
ATOM     12  N   UNL     1       0.098  -0.208   0.494  0.00  0.00    -0.348 N 
ATOM     13  C   UNL     1       1.835  -2.023   0.256  0.00  0.00    +0.177 C 
ATOM     14  N   UNL     1       3.266  -1.944  -0.091  0.00  0.00    -0.319 N 
ATOM     15  C   UNL     1       4.099  -0.968   0.627  0.00  0.00    +0.127 C 
ATOM     16  C   UNL     1       3.602   0.447   0.310  0.00  0.00    +0.142 C 
ATOM     17  H   UNL     1      -0.680  -0.787   0.496  0.00  0.00    +0.166 HD
ENDBRANCH   1  14
BRANCH   3  18
ATOM     18  C   UNL     1       4.427  -2.747  -4.782  0.00  0.00    +0.243 C 
ATOM     19  O   UNL     1       5.001  -3.421  -5.617  0.00  0.00    -0.270 OA
ATOM     20  N   UNL     1       3.820  -1.599  -5.144  0.00  0.00    -0.325 N 
ATOM     21  H   UNL     1       3.362  -1.062  -4.478  0.00  0.00    +0.145 HD
ATOM     22  H   UNL     1       3.841  -1.310  -6.069  0.00  0.00    +0.145 HD
ENDBRANCH   3  18
BRANCH   4  23
ATOM     23  N   UNL     1       5.463  -5.272  -3.988  0.00  0.00    -0.357 N 
ATOM     24  H   UNL     1       5.559  -4.955  -4.900  0.00  0.00    +0.142 HD
ATOM     25  H   UNL     1       5.749  -6.168  -3.753  0.00  0.00    +0.142 HD
ENDBRANCH   4  23
TORSDOF 3
