REMARK  Name = ZINC41729366
REMARK  4 active torsions:
REMARK  status: ('A' for Active; 'I' for Inactive)
REMARK    1  A    between atoms: C_1  and  C_2
REMARK    2  A    between atoms: N_6  and  C_7
REMARK    3  A    between atoms: C_11  and  N_13
REMARK    4  A    between atoms: C_19  and  N_21
REMARK                            x       y       z     vdW  Elec       q    Type
REMARK                         _______ _______ _______ _____ _____    ______ ____
ROOT
ATOM      1  C   UNL     1      -0.018   1.503   0.010  0.00  0.00    +0.064 C 
ATOM      2  C   UNL     1       0.002  -0.004   0.002  0.00  0.00    +0.021 A 
ATOM      3  C   UNL     1       0.008  -0.789  -1.097  0.00  0.00    +0.025 A 
ATOM      4  C   UNL     1       0.028  -2.122  -0.658  0.00  0.00    -0.041 A 
ATOM      5  C   UNL     1       0.035  -2.108   0.695  0.00  0.00    +0.026 A 
ATOM      6  N   UNL     1       0.024  -0.811   1.106  0.00  0.00    -0.317 N 
ATOM      7  C   UNL     1       0.060  -3.350   1.551  0.00  0.00    +0.054 C 
ATOM      8  C   UNL     1       0.490  -4.534   0.676  0.00  0.00    +0.005 C 
ATOM      9  C   UNL     1      -0.354  -4.558  -0.601  0.00  0.00    -0.011 C 
ATOM     10  C   UNL     1       0.039  -3.375  -1.496  0.00  0.00    -0.042 C 
ENDROOT
BRANCH   6  11
ATOM     11  C   UNL     1       0.030  -0.375   2.438  0.00  0.00    +0.049 A 
ATOM     12  C   UNL     1       1.132  -0.621   3.246  0.00  0.00    +0.026 A 
ATOM     13  C   UNL     1       1.135  -0.191   4.558  0.00  0.00    +0.004 A 
ATOM     14  C   UNL     1       0.041   0.484   5.068  0.00  0.00    +0.033 A 
ATOM     15  C   UNL     1      -1.058   0.730   4.267  0.00  0.00    +0.128 A 
ATOM     16  C   UNL     1      -1.065   0.307   2.952  0.00  0.00    +0.058 A 
BRANCH  15  17
ATOM     17  N   UNL     1      -2.227   1.452   4.817  0.00  0.00    +0.056 N 
ATOM     18  O   UNL     1      -2.220   1.827   5.966  0.00  0.00    -0.126 OA
ATOM     19  O   UNL     1      -3.189   1.668   4.117  0.00  0.00    -0.126 OA
ENDBRANCH  15  17
ENDBRANCH   6  11
BRANCH  10  20
ATOM     20  N   UNL     1      -0.926  -3.244  -2.595  0.00  0.00    +0.383 N 
ATOM     21  H   UNL     1      -0.675  -2.455  -3.171  0.00  0.00    -0.089 HD
ATOM     22  H   UNL     1      -0.917  -4.085  -3.153  0.00  0.00    -0.089 HD
ATOM     23  H   UNL     1      -1.851  -3.103  -2.216  0.00  0.00    -0.089 HD
ENDBRANCH  10  20
TORSDOF 3
