REMARK  Name = ZINC37270452
REMARK  5 active torsions:
REMARK  status: ('A' for Active; 'I' for Inactive)
REMARK    1  A    between atoms: C_3  and  C_10
REMARK    2  A    between atoms: C_5  and  C_7
REMARK    3  A    between atoms: C_10  and  N_11
REMARK    4  A    between atoms: N_11  and  C_12
REMARK    5  A    between atoms: C_12  and  C_13
REMARK                            x       y       z     vdW  Elec       q    Type
REMARK                         _______ _______ _______ _____ _____    ______ ____
ROOT
ATOM      1  C   UNL     1      -0.017   1.375   0.010  0.00  0.00    +0.001 A 
ATOM      2  C   UNL     1       1.170   2.086   0.002  0.00  0.00    +0.002 A 
ATOM      3  C   UNL     1       2.383   1.420  -0.013  0.00  0.00    -0.064 A 
ATOM      4  C   UNL     1       2.416   0.041  -0.021  0.00  0.00    +0.014 A 
ATOM      5  C   UNL     1       1.222  -0.682  -0.014  0.00  0.00    +0.037 A 
ATOM      6  C   UNL     1       0.002  -0.004   0.002  0.00  0.00    +0.013 A 
ENDROOT
BRANCH   5   7
ATOM      7  C   UNL     1       1.250  -2.161  -0.023  0.00  0.00    +0.242 C 
ATOM      8  O   UNL     1       2.313  -2.748  -0.037  0.00  0.00    -0.270 OA
ATOM      9  N   UNL     1       0.095  -2.856  -0.016  0.00  0.00    -0.325 N 
ATOM     10  H   UNL     1      -0.754  -2.387  -0.004  0.00  0.00    +0.145 HD
ATOM     11  H   UNL     1       0.113  -3.826  -0.022  0.00  0.00    +0.145 HD
ENDBRANCH   5   7
BRANCH   3  12
ATOM     12  C   UNL     1       3.671   2.203  -0.021  0.00  0.00    -0.046 C 
BRANCH  12  13
ATOM     13  N   UNL     1       4.102   2.450   1.361  0.00  0.00    +0.386 N 
ATOM     14  H   UNL     1       3.392   2.977   1.846  0.00  0.00    -0.085 HD
ATOM     15  H   UNL     1       4.247   1.569   1.831  0.00  0.00    -0.085 HD
BRANCH  13  16
ATOM     16  C   UNL     1       5.358   3.213   1.353  0.00  0.00    -0.006 C 
BRANCH  16  17
ATOM     17  C   UNL     1       5.800   3.466   2.771  0.00  0.00    +0.090 A 
ATOM     18  C   UNL     1       6.603   2.668   3.499  0.00  0.00    +0.044 A 
ATOM     19  C   UNL     1       6.755   3.284   4.763  0.00  0.00    +0.056 A 
ATOM     20  C   UNL     1       6.037   4.422   4.731  0.00  0.00    +0.165 A 
ATOM     21  O   UNL     1       5.466   4.529   3.521  0.00  0.00    -0.456 OA
ATOM     22  I   UNL     1       5.849   5.796   6.302  0.00  0.00    -0.001 I 
ENDBRANCH  16  17
ENDBRANCH  13  16
ENDBRANCH  12  13
ENDBRANCH   3  12
TORSDOF 5
