REMARK  Name = ZINC20490469
REMARK  10 active torsions:
REMARK  status: ('A' for Active; 'I' for Inactive)
REMARK    1  A    between atoms: C_1  and  O_2
REMARK    2  A    between atoms: O_2  and  C_3
REMARK    3  A    between atoms: C_7  and  C_9
REMARK    4  A    between atoms: C_11  and  C_29
REMARK    5  A    between atoms: C_15  and  C_18
REMARK    6  A    between atoms: N_20  and  C_21
REMARK    7  A    between atoms: C_33  and  O_37
REMARK    8  A    between atoms: C_34  and  O_35
REMARK    9  A    between atoms: O_35  and  C_36
REMARK   10  A    between atoms: O_37  and  C_38
REMARK                            x       y       z     vdW  Elec       q    Type
REMARK                         _______ _______ _______ _____ _____    ______ ____
ROOT
ATOM      1  C   UNL     1      -2.558  -4.136   0.018  0.00  0.00    +0.053 C 
ATOM      2  C   UNL     1      -3.907  -4.797   0.031  0.00  0.00    +0.088 C 
ATOM      3  C   UNL     1      -3.887  -6.113  -0.755  0.00  0.00    +0.149 C 
ATOM      4  N   UNL     1      -2.649  -6.824  -0.417  0.00  0.00    -0.238 N 
ATOM      5  C   UNL     1      -1.504  -6.162  -0.069  0.00  0.00    +0.164 A 
ATOM      6  C   UNL     1      -0.533  -7.126   0.168  0.00  0.00    +0.100 A 
ATOM      7  C   UNL     1      -1.144  -8.384  -0.045  0.00  0.00    +0.149 A 
ATOM      8  N   UNL     1      -2.392  -8.189  -0.387  0.00  0.00    -0.176 NA
ATOM      9  N   UNL     1      -1.442  -4.817   0.007  0.00  0.00    -0.232 NA
ENDROOT
BRANCH   1  14
ATOM     10  C   UNL     1      -1.195  -0.638  -0.014  0.00  0.00    +0.121 A 
ATOM     11  C   UNL     1      -2.369   0.105  -0.003  0.00  0.00    +0.045 A 
ATOM     12  C   UNL     1      -3.597  -0.531   0.015  0.00  0.00    +0.004 A 
ATOM     13  C   UNL     1      -3.666  -1.909   0.021  0.00  0.00    +0.010 A 
ATOM     14  C   UNL     1      -2.490  -2.666   0.010  0.00  0.00    -0.000 A 
ATOM     15  C   UNL     1      -1.250  -2.021  -0.013  0.00  0.00    +0.055 A 
BRANCH  10  17
ATOM     16  C   UNL     1      -0.010   1.423  -0.030  0.00  0.00    +0.277 C 
ATOM     17  O   UNL     1       0.008  -0.006  -0.031  0.00  0.00    -0.495 OA
ENDBRANCH  10  17
ENDBRANCH   1  14
BRANCH   3  18
ATOM     18  C   UNL     1      -5.078  -6.953  -0.372  0.00  0.00    +0.023 A 
ATOM     19  C   UNL     1      -5.252  -7.350   0.941  0.00  0.00    +0.009 A 
ATOM     20  C   UNL     1      -6.343  -8.120   1.295  0.00  0.00    +0.004 A 
ATOM     21  C   UNL     1      -7.267  -8.497   0.338  0.00  0.00    +0.049 A 
ATOM     22  C   UNL     1      -7.099  -8.103  -0.979  0.00  0.00    +0.162 A 
ATOM     23  C   UNL     1      -6.003  -7.322  -1.335  0.00  0.00    +0.167 A 
BRANCH  23  24
ATOM     24  O   UNL     1      -5.837  -6.928  -2.626  0.00  0.00    -0.491 OA
ATOM     25  C   UNL     1      -5.089  -7.797  -3.479  0.00  0.00    +0.277 C 
ENDBRANCH  23  24
BRANCH  22  26
ATOM     26  O   UNL     1      -8.007  -8.473  -1.922  0.00  0.00    -0.491 OA
ATOM     27  C   UNL     1      -9.110  -9.270  -1.484  0.00  0.00    +0.277 C 
ENDBRANCH  22  26
ENDBRANCH   3  18
BRANCH   6  28
ATOM     28  C   UNL     1       0.861  -6.886   0.563  0.00  0.00    +0.253 C 
ATOM     29  O   UNL     1       1.263  -5.747   0.713  0.00  0.00    -0.270 OA
ATOM     30  N   UNL     1       1.695  -7.926   0.758  0.00  0.00    -0.281 N 
ATOM     31  H   UNL     1       1.359  -8.834   0.704  0.00  0.00    +0.155 HD
BRANCH  30  32
ATOM     32  C   UNL     1       3.046  -7.697   1.039  0.00  0.00    +0.034 A 
ATOM     33  C   UNL     1       3.421  -6.603   1.809  0.00  0.00    +0.025 A 
ATOM     34  C   UNL     1       4.755  -6.378   2.085  0.00  0.00    +0.022 A 
ATOM     35  C   UNL     1       5.719  -7.242   1.595  0.00  0.00    +0.041 A 
ATOM     36  C   UNL     1       5.349  -8.333   0.828  0.00  0.00    +0.022 A 
ATOM     37  C   UNL     1       4.015  -8.565   0.554  0.00  0.00    +0.025 A 
ATOM     38 CL   UNL     1       7.396  -6.957   1.943  0.00  0.00    -0.084 Cl
ENDBRANCH  30  32
ENDBRANCH   6  28
TORSDOF 7
