REMARK  Name = ZINC53973514
REMARK  7 active torsions:
REMARK  status: ('A' for Active; 'I' for Inactive)
REMARK    1  A    between atoms: C_3  and  C_8
REMARK    2  A    between atoms: C_8  and  C_10
REMARK    3  A    between atoms: C_8  and  O_20
REMARK    4  A    between atoms: C_10  and  C_11
REMARK    5  A    between atoms: C_11  and  N_12
REMARK    6  A    between atoms: C_16  and  C_18
REMARK    7  A    between atoms: C_18  and  O_19
REMARK                            x       y       z     vdW  Elec       q    Type
REMARK                         _______ _______ _______ _____ _____    ______ ____
ROOT
ATOM      1  C   UNL     1       4.160   2.344  -1.463  0.00  0.00    +0.017 C 
ENDROOT
BRANCH   1   2
ATOM      2  C   UNL     1       3.672   2.183  -0.022  0.00  0.00    +0.143 C 
BRANCH   2   5
ATOM      3  C   UNL     1      -0.017   1.378   0.010  0.00  0.00    +0.001 A 
ATOM      4  C   UNL     1       1.171   2.086   0.002  0.00  0.00    +0.006 A 
ATOM      5  C   UNL     1       2.378   1.411  -0.013  0.00  0.00    -0.018 A 
ATOM      6  C   UNL     1       2.397   0.029  -0.022  0.00  0.00    +0.021 A 
ATOM      7  C   UNL     1       1.210  -0.679  -0.014  0.00  0.00    +0.018 A 
ATOM      8  C   UNL     1       0.002  -0.004   0.002  0.00  0.00    +0.015 A 
ATOM      9 BR   UNL     1       1.236  -2.570  -0.025  0.00  0.00    -0.050 Br
ENDBRANCH   2   5
BRANCH   2  10
ATOM     10  O   UNL     1       4.654   1.475   0.737  0.00  0.00    -0.387 OA
ATOM     11  H   UNL     1       4.848   0.590   0.401  0.00  0.00    +0.210 HD
ENDBRANCH   2  10
ENDBRANCH   1   2
BRANCH   1  12
ATOM     12  C   UNL     1       5.405   3.233  -1.484  0.00  0.00    -0.076 C 
BRANCH  12  13
ATOM     13  N   UNL     1       5.874   3.388  -2.867  0.00  0.00    +0.383 N 
ATOM     14  C   UNL     1       4.870   4.138  -3.652  0.00  0.00    -0.078 C 
ATOM     15  C   UNL     1       5.356   5.608  -3.613  0.00  0.00    -0.020 C 
ATOM     16  C   UNL     1       6.896   5.431  -3.693  0.00  0.00    -0.015 C 
ATOM     17  C   UNL     1       7.140   4.143  -2.881  0.00  0.00    -0.043 C 
ATOM     18  H   UNL     1       6.016   2.479  -3.282  0.00  0.00    -0.081 HD
BRANCH  17  19
ATOM     19  C   UNL     1       8.237   3.308  -3.546  0.00  0.00    +0.140 C 
BRANCH  19  20
ATOM     20  O   UNL     1       7.910   3.103  -4.922  0.00  0.00    -0.397 OA
ATOM     21  H   UNL     1       8.563   2.580  -5.408  0.00  0.00    +0.209 HD
ENDBRANCH  19  20
ENDBRANCH  17  19
ENDBRANCH  12  13
ENDBRANCH   1  12
TORSDOF 7
