REMARK  Name = ZINC21473024
REMARK  15 active torsions:
REMARK  status: ('A' for Active; 'I' for Inactive)
REMARK    1  A    between atoms: C_1  and  C_2
REMARK    2  A    between atoms: C_2  and  C_3
REMARK    3  A    between atoms: C_3  and  C_4
REMARK    4  A    between atoms: C_4  and  N_5
REMARK    5  A    between atoms: N_5  and  C_6
REMARK    6  A    between atoms: C_7  and  N_19
REMARK    7  A    between atoms: N_8  and  C_15
REMARK    8  A    between atoms: C_15  and  C_16
REMARK    9  A    between atoms: C_16  and  C_17
REMARK   10  A    between atoms: C_16  and  C_18
REMARK   11  A    between atoms: C_20  and  C_22
REMARK   12  A    between atoms: C_22  and  N_23
REMARK   13  A    between atoms: C_27  and  C_29
REMARK   14  A    between atoms: C_32  and  O_35
REMARK   15  A    between atoms: O_35  and  C_36
REMARK                            x       y       z     vdW  Elec       q    Type
REMARK                         _______ _______ _______ _____ _____    ______ ____
ROOT
ATOM      1  N   UNL     1      -2.261   4.352  -4.170  0.00  0.00    -0.266 N 
ATOM      2  C   UNL     1      -1.619   4.415  -2.985  0.00  0.00    +0.203 C 
ATOM      3  O   UNL     1      -1.163   5.471  -2.598  0.00  0.00    -0.277 OA
ENDROOT
BRANCH   1   4
ATOM      4  C   UNL     1      -2.488   5.529  -4.913  0.00  0.00    +0.140 A 
ATOM      5  C   UNL     1      -3.288   6.535  -4.409  0.00  0.00    +0.127 A 
ATOM      6  N   UNL     1      -3.490   7.671  -5.157  0.00  0.00    -0.280 N 
ATOM      7  C   UNL     1      -2.916   7.801  -6.366  0.00  0.00    +0.331 A 
ATOM      8  O   UNL     1      -3.107   8.813  -7.013  0.00  0.00    -0.246 OA
ATOM      9  N   UNL     1      -2.134   6.832  -6.874  0.00  0.00    -0.273 N 
ATOM     10  H   UNL     1      -1.678   6.957  -7.867  0.00  0.00    +0.173 HD
ATOM     11  C   UNL     1      -1.898   5.702  -6.179  0.00  0.00    +0.277 A 
ATOM     12  O   UNL     1      -1.183   4.831  -6.647  0.00  0.00    -0.266 OA
BRANCH   5  13
ATOM     13  N   UNL     1      -3.875   6.402  -3.173  0.00  0.00    -0.343 N 
ATOM     14  H   UNL     1      -4.511   7.207  -2.777  0.00  0.00    +0.144 HD
ATOM     15  H   UNL     1      -3.708   5.490  -2.580  0.00  0.00    +0.144 HD
ENDBRANCH   5  13
BRANCH   6  16
ATOM     16  C   UNL     1      -4.337   8.746  -4.634  0.00  0.00    +0.131 C 
BRANCH  16  17
ATOM     17  C   UNL     1      -3.478   9.730  -3.837  0.00  0.00    +0.003 C 
ATOM     18  C   UNL     1      -2.486  10.418  -4.778  0.00  0.00    +0.009 C 
ATOM     19  C   UNL     1      -4.378  10.783  -3.188  0.00  0.00    +0.009 C 
ENDBRANCH  16  17
ENDBRANCH   6  16
ENDBRANCH   1   4
BRANCH   1  20
ATOM     20  C   UNL     1      -2.722   3.060  -4.685  0.00  0.00    +0.114 C 
BRANCH  20  21
ATOM     21  C   UNL     1      -4.165   2.818  -4.237  0.00  0.00    +0.019 C 
BRANCH  21  23
ATOM     22  C   UNL     1      -6.090   1.228  -4.327  0.00  0.00    +0.004 C 
ATOM     23  C   UNL     1      -4.647   1.470  -4.775  0.00  0.00    -0.002 C 
ENDBRANCH  21  23
ENDBRANCH  20  21
ENDBRANCH   1  20
BRANCH   2  24
ATOM     24  C   UNL     1      -1.468   3.175  -2.142  0.00  0.00    +0.020 C 
BRANCH  24  25
ATOM     25  N   UNL     1      -0.738   3.505  -0.911  0.00  0.00    +0.390 N 
ATOM     26  C   UNL     1      -1.314   4.696  -0.259  0.00  0.00    -0.077 C 
ATOM     27  C   UNL     1      -1.703   4.287   1.178  0.00  0.00    -0.020 C 
ATOM     28  C   UNL     1      -0.809   3.046   1.444  0.00  0.00    -0.013 C 
ATOM     29  C   UNL     1      -0.777   2.379   0.046  0.00  0.00    -0.037 C 
ATOM     30  H   UNL     1       0.302   3.711  -1.203  0.00  0.00    -0.080 HD
BRANCH  29  31
ATOM     31  C   UNL     1       0.456   1.524  -0.099  0.00  0.00    -0.061 A 
ATOM     32  C   UNL     1       1.681   2.116  -0.346  0.00  0.00    +0.005 A 
ATOM     33  C   UNL     1       2.811   1.335  -0.485  0.00  0.00    +0.046 A 
ATOM     34  C   UNL     1       2.717  -0.045  -0.378  0.00  0.00    +0.120 A 
ATOM     35  C   UNL     1       1.487  -0.636  -0.130  0.00  0.00    +0.046 A 
ATOM     36  C   UNL     1       0.359   0.149   0.009  0.00  0.00    +0.005 A 
BRANCH  34  37
ATOM     37  O   UNL     1       3.827  -0.816  -0.515  0.00  0.00    -0.495 OA
ATOM     38  C   UNL     1       5.060  -0.139  -0.769  0.00  0.00    +0.277 C 
ENDBRANCH  34  37
ENDBRANCH  29  31
ENDBRANCH  24  25
ENDBRANCH   2  24
TORSDOF 11
