REMARK  Name = ZINC63126733
REMARK  11 active torsions:
REMARK  status: ('A' for Active; 'I' for Inactive)
REMARK    1  A    between atoms: C_1  and  C_2
REMARK    2  A    between atoms: C_2  and  C_4
REMARK    3  A    between atoms: C_2  and  O_7
REMARK    4  A    between atoms: O_7  and  C_8
REMARK    5  A    between atoms: C_8  and  C_10
REMARK    6  A    between atoms: C_10  and  C_12
REMARK    7  A    between atoms: C_10  and  N_22
REMARK    8  A    between atoms: C_12  and  C_13
REMARK    9  A    between atoms: C_23  and  O_25
REMARK   10  A    between atoms: O_25  and  C_26
REMARK   11  A    between atoms: C_26  and  C_27
REMARK                            x       y       z     vdW  Elec       q    Type
REMARK                         _______ _______ _______ _____ _____    ______ ____
ROOT
ATOM      1  C   UNL     1       0.618  -1.196   3.521  0.00  0.00    +0.189 C 
ENDROOT
BRANCH   1   2
ATOM      2  N   UNL     1      -0.391  -1.354   4.571  0.00  0.00    -0.268 N 
ATOM      3  C   UNL     1      -1.109  -2.492   4.650  0.00  0.00    +0.401 C 
ATOM      4  O   UNL     1      -0.920  -3.387   3.850  0.00  0.00    -0.226 OA
ATOM      5  H   UNL     1      -0.542  -0.640   5.210  0.00  0.00    +0.153 HD
BRANCH   3   6
ATOM      6  O   UNL     1      -2.036  -2.637   5.615  0.00  0.00    -0.446 OA
BRANCH   6   7
ATOM      7  C   UNL     1      -2.760  -3.869   5.639  0.00  0.00    +0.269 C 
BRANCH   7   8
ATOM      8  C   UNL     1      -3.746  -3.850   6.779  0.00  0.00    -0.010 A 
ATOM      9  C   UNL     1      -3.369  -4.308   8.027  0.00  0.00    +0.007 A 
ATOM     10  C   UNL     1      -4.273  -4.291   9.073  0.00  0.00    +0.000 A 
ATOM     11  C   UNL     1      -5.555  -3.814   8.870  0.00  0.00    +0.000 A 
ATOM     12  C   UNL     1      -5.932  -3.355   7.622  0.00  0.00    +0.000 A 
ATOM     13  C   UNL     1      -5.026  -3.369   6.578  0.00  0.00    +0.007 A 
ENDBRANCH   7   8
ENDBRANCH   6   7
ENDBRANCH   3   6
ENDBRANCH   1   2
BRANCH   1  14
ATOM     14  C   UNL     1      -0.042  -0.697   2.261  0.00  0.00    +0.329 C 
ATOM     15  O   UNL     1      -1.233  -0.493   2.243  0.00  0.00    -0.249 OA
BRANCH  14  16
ATOM     16  O   UNL     1       0.693  -0.477   1.160  0.00  0.00    -0.451 OA
BRANCH  16  18
ATOM     17  C   UNL     1      -0.019   1.526   0.010  0.00  0.00    +0.062 C 
ATOM     18  C   UNL     1       0.002  -0.004   0.002  0.00  0.00    +0.258 C 
BRANCH  18  19
ATOM     19  C   UNL     1       0.707  -0.490  -1.238  0.00  0.00    +0.251 C 
ATOM     20  O   UNL     1       1.753  -1.097  -1.142  0.00  0.00    -0.272 OA
ATOM     21  N   UNL     1       0.176  -0.250  -2.453  0.00  0.00    -0.326 N 
ATOM     22  H   UNL     1      -0.660   0.235  -2.530  0.00  0.00    +0.145 HD
ATOM     23  H   UNL     1       0.630  -0.563  -3.251  0.00  0.00    +0.145 HD
ENDBRANCH  18  19
ENDBRANCH  16  18
ENDBRANCH  14  16
ENDBRANCH   1  14
BRANCH   1  24
ATOM     24  C   UNL     1       1.675  -0.189   3.976  0.00  0.00    +0.067 C 
BRANCH  24  25
ATOM     25  C   UNL     1       2.420  -0.744   5.163  0.00  0.00    -0.039 C 
ATOM     26  C   UNL     1       3.594  -1.415   5.146  0.00  0.00    -0.001 A 
ATOM     27  C   UNL     1       4.495  -1.814   4.058  0.00  0.00    +0.010 A 
ATOM     28  C   UNL     1       5.625  -2.494   4.359  0.00  0.00    +0.001 A 
ATOM     29  C   UNL     1       5.956  -2.827   5.679  0.00  0.00    +0.002 A 
ATOM     30  C   UNL     1       5.178  -2.495   6.731  0.00  0.00    +0.026 A 
ATOM     31  C   UNL     1       3.966  -1.778   6.532  0.00  0.00    +0.043 A 
ATOM     32  N   UNL     1       3.057  -1.349   7.373  0.00  0.00    -0.380 N 
ATOM     33  C   UNL     1       2.007  -0.659   6.616  0.00  0.00    +0.144 C 
ATOM     34  H   UNL     1       3.078  -1.465   8.336  0.00  0.00    +0.160 HD
ENDBRANCH  24  25
ENDBRANCH   1  24
TORSDOF 10
