REMARK  Name = ZINC50810165
REMARK  7 active torsions:
REMARK  status: ('A' for Active; 'I' for Inactive)
REMARK    1  A    between atoms: C_1  and  C_2
REMARK    2  A    between atoms: C_2  and  C_3
REMARK    3  A    between atoms: C_2  and  C_4
REMARK    4  A    between atoms: C_2  and  O_5
REMARK    5  A    between atoms: O_5  and  C_6
REMARK    6  A    between atoms: C_13  and  C_15
REMARK    7  A    between atoms: C_21  and  C_24
REMARK                            x       y       z     vdW  Elec       q    Type
REMARK                         _______ _______ _______ _____ _____    ______ ____
ROOT
ATOM      1  C   UNL     1       3.292  -1.173  -0.649  0.00  0.00    +0.404 C 
ATOM      2  O   UNL     1       3.850  -0.324   0.019  0.00  0.00    -0.226 OA
ATOM      3  N   UNL     1       3.367  -1.129  -1.994  0.00  0.00    -0.256 N 
ATOM      4  C   UNL     1       2.810  -2.217  -2.810  0.00  0.00    +0.112 C 
ATOM      5  C   UNL     1       1.846  -1.617  -3.839  0.00  0.00    +0.019 C 
ATOM      6  C   UNL     1       2.572  -0.536  -4.643  0.00  0.00    +0.004 C 
ATOM      7  C   UNL     1       3.030   0.581  -3.702  0.00  0.00    +0.032 C 
ATOM      8  C   UNL     1       4.002   0.009  -2.672  0.00  0.00    +0.165 C 
ENDROOT
BRANCH   8   9
ATOM      9  C   UNL     1       4.346   1.072  -1.660  0.00  0.00    +0.236 C 
ATOM     10  O   UNL     1       3.469   1.583  -0.996  0.00  0.00    -0.274 OA
ATOM     11  N   UNL     1       5.627   1.455  -1.494  0.00  0.00    -0.295 N 
ATOM     12  C   UNL     1       6.707   0.854  -2.292  0.00  0.00    +0.136 C 
ATOM     13  C   UNL     1       7.543   1.984  -2.903  0.00  0.00    +0.180 C 
ATOM     14  O   UNL     1       7.945   2.884  -1.867  0.00  0.00    -0.364 OA
ATOM     15  C   UNL     1       6.859   3.537  -1.205  0.00  0.00    +0.221 C 
ATOM     16  C   UNL     1       5.987   2.490  -0.512  0.00  0.00    +0.149 C 
BRANCH  15  17
ATOM     17  C   UNL     1       7.400   4.503  -0.182  0.00  0.00    +0.241 C 
ATOM     18  O   UNL     1       8.593   4.555   0.030  0.00  0.00    -0.273 OA
ATOM     19  N   UNL     1       6.559   5.308   0.496  0.00  0.00    -0.327 N 
ATOM     20  H   UNL     1       5.605   5.265   0.326  0.00  0.00    +0.145 HD
ATOM     21  H   UNL     1       6.907   5.929   1.155  0.00  0.00    +0.145 HD
ENDBRANCH  15  17
ENDBRANCH   8   9
BRANCH   1  22
ATOM     22  O   UNL     1       2.598  -2.156  -0.045  0.00  0.00    -0.445 OA
BRANCH  22  24
ATOM     23  C   UNL     1       1.924  -0.833   1.863  0.00  0.00    +0.055 C 
ATOM     24  C   UNL     1       2.560  -2.140   1.384  0.00  0.00    +0.107 C 
ATOM     25  C   UNL     1       3.984  -2.245   1.933  0.00  0.00    +0.055 C 
ATOM     26  C   UNL     1       1.731  -3.324   1.885  0.00  0.00    +0.055 C 
ENDBRANCH  22  24
ENDBRANCH   1  22
TORSDOF 4
