REMARK  Name = ZINC53741899
REMARK  11 active torsions:
REMARK  status: ('A' for Active; 'I' for Inactive)
REMARK    1  A    between atoms: C_1  and  N_2
REMARK    2  A    between atoms: N_2  and  C_3
REMARK    3  A    between atoms: N_2  and  C_14
REMARK    4  A    between atoms: C_3  and  C_4
REMARK    5  A    between atoms: C_4  and  C_5
REMARK    6  A    between atoms: C_5  and  O_6
REMARK    7  A    between atoms: O_6  and  C_7
REMARK    8  A    between atoms: C_14  and  C_15
REMARK    9  A    between atoms: C_15  and  C_16
REMARK   10  A    between atoms: N_18  and  C_19
REMARK   11  A    between atoms: C_20  and  C_24
REMARK                            x       y       z     vdW  Elec       q    Type
REMARK                         _______ _______ _______ _____ _____    ______ ____
ROOT
ATOM      1  C   UNL     1       0.713  -0.491   1.192  0.00  0.00    -0.070 C 
ENDROOT
BRANCH   1   3
ATOM      2  C   UNL     1      -0.018   1.465   0.010  0.00  0.00    -0.096 C 
ATOM      3  N   UNL     1       0.002  -0.004   0.002  0.00  0.00    +0.378 N 
ATOM      4  H   UNL     1       0.474  -0.330  -0.828  0.00  0.00    -0.082 HD
BRANCH   3   5
ATOM      5  C   UNL     1      -1.376  -0.512   0.012  0.00  0.00    -0.076 C 
BRANCH   5   6
ATOM      6  C   UNL     1      -2.078  -0.110  -1.286  0.00  0.00    +0.022 C 
BRANCH   6   7
ATOM      7  C   UNL     1      -3.513  -0.640  -1.275  0.00  0.00    +0.227 C 
BRANCH   7   8
ATOM      8  O   UNL     1      -4.169  -0.264  -2.488  0.00  0.00    -0.492 OA
BRANCH   8   9
ATOM      9  C   UNL     1      -5.460  -0.659  -2.639  0.00  0.00    +0.122 A 
ATOM     10  C   UNL     1      -6.086  -1.388  -1.638  0.00  0.00    +0.046 A 
ATOM     11  C   UNL     1      -7.399  -1.788  -1.793  0.00  0.00    +0.005 A 
ATOM     12  C   UNL     1      -8.091  -1.463  -2.945  0.00  0.00    +0.020 A 
ATOM     13  C   UNL     1      -7.470  -0.736  -3.946  0.00  0.00    +0.044 A 
ATOM     14  C   UNL     1      -6.157  -0.328  -3.792  0.00  0.00    +0.065 A 
ATOM     15 CL   UNL     1      -8.341  -0.329  -5.391  0.00  0.00    -0.083 Cl
ENDBRANCH   8   9
ENDBRANCH   7   8
ENDBRANCH   6   7
ENDBRANCH   5   6
ENDBRANCH   3   5
ENDBRANCH   1   3
BRANCH   1  16
ATOM     16  C   UNL     1       2.180  -0.066   1.119  0.00  0.00    +0.077 C 
BRANCH  16  17
ATOM     17  C   UNL     1       2.909  -0.565   2.340  0.00  0.00    +0.216 C 
ATOM     18  O   UNL     1       2.313  -1.198   3.185  0.00  0.00    -0.276 OA
ATOM     19  N   UNL     1       4.223  -0.307   2.493  0.00  0.00    -0.279 N 
ATOM     20  H   UNL     1       4.700   0.199   1.817  0.00  0.00    +0.155 HD
BRANCH  19  21
ATOM     21  C   UNL     1       4.894  -0.767   3.616  0.00  0.00    +0.084 A 
ATOM     22  C   UNL     1       6.232  -0.594   3.941  0.00  0.00    +0.065 A 
ATOM     23  C   UNL     1       6.676  -1.182   5.184  0.00  0.00    +0.022 A 
ATOM     24  C   UNL     1       5.737  -1.835   5.892  0.00  0.00    +0.048 A 
ATOM     25  S   UNL     1       4.272  -1.653   4.898  0.00  0.00    -0.081 S 
BRANCH  22  26
ATOM     26  C   UNL     1       7.147   0.147   3.068  0.00  0.00    +0.244 C 
ATOM     27  O   UNL     1       6.740   0.629   2.027  0.00  0.00    -0.270 OA
ATOM     28  N   UNL     1       8.441   0.294   3.417  0.00  0.00    -0.325 N 
ATOM     29  H   UNL     1       8.766  -0.090   4.247  0.00  0.00    +0.145 HD
ATOM     30  H   UNL     1       9.047   0.784   2.840  0.00  0.00    +0.145 HD
ENDBRANCH  22  26
ENDBRANCH  19  21
ENDBRANCH  16  17
ENDBRANCH   1  16
TORSDOF 10
