REMARK  Name = ZINC39695797
REMARK  9 active torsions:
REMARK  status: ('A' for Active; 'I' for Inactive)
REMARK    1  A    between atoms: C_1  and  C_2
REMARK    2  A    between atoms: C_2  and  S_3
REMARK    3  A    between atoms: S_3  and  C_4
REMARK    4  A    between atoms: C_5  and  C_10
REMARK    5  A    between atoms: C_14  and  C_23
REMARK    6  A    between atoms: N_25  and  C_26
REMARK    7  A    between atoms: C_26  and  C_28
REMARK    8  A    between atoms: C_26  and  C_29
REMARK    9  A    between atoms: C_35  and  C_39
REMARK                            x       y       z     vdW  Elec       q    Type
REMARK                         _______ _______ _______ _____ _____    ______ ____
ROOT
ATOM      1  C   UNL     1       2.047  -2.334  -3.739  0.00  0.00    +0.249 C 
ATOM      2  O   UNL     1       2.042  -1.142  -3.981  0.00  0.00    -0.270 OA
ATOM      3  N   UNL     1       2.684  -3.187  -4.566  0.00  0.00    -0.296 N 
ATOM      4  C   UNL     1       2.712  -4.667  -4.498  0.00  0.00    +0.121 C 
ATOM      5  C   UNL     1       2.626  -5.126  -5.971  0.00  0.00    +0.100 C 
ATOM      6  C   UNL     1       3.157  -3.935  -6.785  0.00  0.00    -0.004 C 
ATOM      7  C   UNL     1       3.511  -2.856  -5.751  0.00  0.00    +0.115 C 
ATOM      8  C   UNL     1       2.076  -3.417  -7.730  0.00  0.00    -0.010 C 
ATOM      9  C   UNL     1       2.645  -2.269  -8.569  0.00  0.00    -0.082 C 
ATOM     10  N   UNL     1       3.803  -2.748  -9.334  0.00  0.00    +0.379 N 
ATOM     11  C   UNL     1       4.874  -3.158  -8.417  0.00  0.00    -0.082 C 
ATOM     12  C   UNL     1       4.399  -4.343  -7.571  0.00  0.00    -0.010 C 
ATOM     13  H   UNL     1       3.528  -3.536  -9.901  0.00  0.00    -0.086 HD
ATOM     14  H   UNL     1       4.139  -2.008  -9.931  0.00  0.00    -0.086 HD
ENDROOT
BRANCH   1  16
ATOM     15  C   UNL     1       0.161  -2.254  -2.097  0.00  0.00    +0.109 A 
ATOM     16  C   UNL     1       1.357  -2.846  -2.542  0.00  0.00    +0.069 A 
ATOM     17  C   UNL     1       1.878  -3.930  -1.827  0.00  0.00    +0.017 A 
ATOM     18  C   UNL     1       1.191  -4.373  -0.711  0.00  0.00    +0.020 A 
ATOM     19  C   UNL     1       0.020  -3.739  -0.334  0.00  0.00    +0.112 A 
ATOM     20  N   UNL     1      -0.453  -2.715  -1.018  0.00  0.00    -0.248 NA
BRANCH  15  21
ATOM     21  S   UNL     1      -0.520  -0.887  -2.976  0.00  0.00    -0.105 S 
BRANCH  21  23
ATOM     22  C   UNL     1      -2.719   0.718  -2.709  0.00  0.00    +0.015 C 
ATOM     23  C   UNL     1      -2.020  -0.470  -2.045  0.00  0.00    +0.072 C 
ENDBRANCH  21  23
ENDBRANCH  15  21
ENDBRANCH   1  16
BRANCH   5  24
ATOM     24  C   UNL     1       1.197  -5.426  -6.345  0.00  0.00    +0.219 C 
ATOM     25  O   UNL     1       0.291  -4.822  -5.810  0.00  0.00    -0.275 OA
ATOM     26  N   UNL     1       0.926  -6.364  -7.273  0.00  0.00    -0.305 N 
ATOM     27  H   UNL     1       1.650  -6.847  -7.701  0.00  0.00    +0.149 HD
BRANCH  26  28
ATOM     28  C   UNL     1      -0.463  -6.655  -7.637  0.00  0.00    +0.136 C 
ATOM     29  C   UNL     1      -0.927  -5.668  -8.710  0.00  0.00    +0.036 C 
BRANCH  28  30
ATOM     30  C   UNL     1      -0.559  -8.061  -8.171  0.00  0.00    +0.128 A 
ATOM     31  H   UNL     1      -2.545  -8.574  -7.787  0.00  0.00    +0.167 HD
ATOM     32  N   UNL     1       0.421  -8.718  -8.719  0.00  0.00    -0.231 NA
ATOM     33  C   UNL     1      -0.007  -9.953  -9.088  0.00  0.00    +0.089 A 
ATOM     34  C   UNL     1       0.612 -11.043  -9.704  0.00  0.00    +0.030 A 
ATOM     35  C   UNL     1      -0.102 -12.181  -9.951  0.00  0.00    +0.005 A 
ATOM     36  C   UNL     1      -1.441 -12.268  -9.597  0.00  0.00    -0.048 A 
ATOM     37  C   UNL     1      -2.073 -11.204  -8.989  0.00  0.00    +0.031 A 
ATOM     38  C   UNL     1      -1.363 -10.040  -8.729  0.00  0.00    +0.067 A 
ATOM     39  N   UNL     1      -1.681  -8.829  -8.146  0.00  0.00    -0.340 N 
ATOM     40  C   UNL     1      -2.209 -13.533  -9.879  0.00  0.00    +0.044 C 
ENDBRANCH  28  30
ENDBRANCH  26  28
ENDBRANCH   5  24
TORSDOF 6
