REMARK  Name = ZINC59170916
REMARK  4 active torsions:
REMARK  status: ('A' for Active; 'I' for Inactive)
REMARK    1  A    between atoms: C_6  and  N_7
REMARK    2  A    between atoms: C_9  and  C_19
REMARK    3  A    between atoms: C_14  and  O_18
REMARK    4  A    between atoms: C_19  and  N_21
REMARK                            x       y       z     vdW  Elec       q    Type
REMARK                         _______ _______ _______ _____ _____    ______ ____
ROOT
ATOM      1  N   UNL     1      -1.507  -0.442  -0.182  0.00  0.00    -0.325 N 
ATOM      2  C   UNL     1      -1.479  -1.556  -0.881  0.00  0.00    +0.209 A 
ATOM      3  C   UNL     1      -2.542  -2.571  -0.742  0.00  0.00    +0.064 A 
ATOM      4  C   UNL     1      -2.763  -3.415  -1.822  0.00  0.00    +0.027 A 
ATOM      5  C   UNL     1      -1.937  -3.269  -2.966  0.00  0.00    +0.018 A 
ATOM      6  C   UNL     1      -2.243  -3.953  -4.153  0.00  0.00    +0.015 A 
ATOM      7  C   UNL     1      -1.466  -3.773  -5.259  0.00  0.00    +0.046 A 
ATOM      8  C   UNL     1      -0.364  -2.920  -5.219  0.00  0.00    +0.120 A 
ATOM      9  C   UNL     1      -0.035  -2.251  -4.049  0.00  0.00    +0.092 A 
ATOM     10  C   UNL     1      -0.809  -2.428  -2.914  0.00  0.00    +0.141 A 
ATOM     11  O   UNL     1      -0.474  -1.811  -1.758  0.00  0.00    -0.439 OA
ATOM     12  H   UNL     1      -2.278  -0.233   0.368  0.00  0.00    +0.169 HD
ENDROOT
BRANCH   1  18
ATOM     13  C   UNL     1      -0.670   1.795  -0.377  0.00  0.00    +0.027 A 
ATOM     14  C   UNL     1       0.402   2.662  -0.426  0.00  0.00    +0.022 A 
ATOM     15  C   UNL     1       1.695   2.175  -0.334  0.00  0.00    +0.041 A 
ATOM     16  C   UNL     1       1.921   0.816  -0.191  0.00  0.00    +0.022 A 
ATOM     17  C   UNL     1       0.858  -0.061  -0.141  0.00  0.00    +0.027 A 
ATOM     18  C   UNL     1      -0.449   0.423  -0.232  0.00  0.00    +0.042 A 
ATOM     19 CL   UNL     1       3.038   3.273  -0.397  0.00  0.00    -0.084 Cl
ENDBRANCH   1  18
BRANCH   8  20
ATOM     20  O   UNL     1       0.392  -2.742  -6.332  0.00  0.00    -0.507 OA
ATOM     21  H   UNL     1       0.096  -2.014  -6.896  0.00  0.00    +0.292 HD
ENDBRANCH   8  20
BRANCH   3  22
ATOM     22  C   UNL     1      -3.336  -2.684   0.490  0.00  0.00    +0.082 C 
ATOM     23  S   UNL     1      -2.934  -1.734   1.856  0.00  0.00    -0.035 S 
BRANCH  22  24
ATOM     24  N   UNL     1      -4.379  -3.535   0.544  0.00  0.00    -0.352 N 
ATOM     25  H   UNL     1      -4.607  -4.073  -0.230  0.00  0.00    +0.143 HD
ATOM     26  H   UNL     1      -4.903  -3.609   1.358  0.00  0.00    +0.143 HD
ENDBRANCH  22  24
ENDBRANCH   3  22
TORSDOF 4
