REMARK  Name = ZINC55888272
REMARK  7 active torsions:
REMARK  status: ('A' for Active; 'I' for Inactive)
REMARK    1  A    between atoms: C_1  and  C_2
REMARK    2  A    between atoms: C_5  and  N_9
REMARK    3  A    between atoms: C_10  and  C_12
REMARK    4  A    between atoms: C_12  and  N_13
REMARK    5  A    between atoms: N_13  and  C_14
REMARK    6  A    between atoms: C_19  and  N_20
REMARK    7  A    between atoms: C_23  and  O_26
REMARK                            x       y       z     vdW  Elec       q    Type
REMARK                         _______ _______ _______ _____ _____    ______ ____
ROOT
ATOM      1  N   UNL     1      -0.235  -6.825  -2.571  0.00  0.00    -0.334 N 
ATOM      2  H   UNL     1      -0.228  -6.193  -3.307  0.00  0.00    +0.147 HD
ENDROOT
BRANCH   1   3
ATOM      3  C   UNL     1      -0.333  -8.194  -2.828  0.00  0.00    +0.047 A 
ATOM      4  C   UNL     1      -0.448  -9.093  -1.775  0.00  0.00    +0.025 A 
ATOM      5  C   UNL     1      -0.545 -10.447  -2.031  0.00  0.00    +0.002 A 
ATOM      6  C   UNL     1      -0.527 -10.908  -3.335  0.00  0.00    +0.002 A 
ATOM      7  C   UNL     1      -0.412 -10.016  -4.386  0.00  0.00    +0.023 A 
ATOM      8  C   UNL     1      -0.321  -8.660  -4.136  0.00  0.00    +0.035 A 
BRANCH   8   9
ATOM      9  N   UNL     1      -0.210  -7.759  -5.199  0.00  0.00    -0.392 NA
ATOM     10  C   UNL     1       1.061  -7.981  -5.897  0.00  0.00    +0.087 C 
ATOM     11  C   UNL     1       1.224  -6.945  -7.011  0.00  0.00    +0.048 C 
ATOM     12  C   UNL     1       0.064  -7.082  -8.002  0.00  0.00    +0.117 C 
ATOM     13  C   UNL     1      -1.259  -6.921  -7.249  0.00  0.00    +0.048 C 
ATOM     14  C   UNL     1      -1.330  -7.959  -6.126  0.00  0.00    +0.087 C 
ATOM     15  H   UNL     1      -0.235  -6.815  -4.842  0.00  0.00    +0.126 HD
BRANCH  12  16
ATOM     16  O   UNL     1       0.170  -6.068  -9.004  0.00  0.00    -0.392 OA
ATOM     17  H   UNL     1      -0.534  -6.096  -9.666  0.00  0.00    +0.210 HD
ENDBRANCH  12  16
ENDBRANCH   8   9
ENDBRANCH   1   3
BRANCH   1  18
ATOM     18  C   UNL     1      -0.143  -6.343  -1.191  0.00  0.00    +0.198 C 
BRANCH  18  20
ATOM     19  N   UNL     1       0.046  -4.171  -0.023  0.00  0.00    -0.283 N 
ATOM     20  C   UNL     1      -0.048  -4.839  -1.190  0.00  0.00    +0.234 C 
ATOM     21  O   UNL     1      -0.057  -4.230  -2.238  0.00  0.00    -0.274 OA
ATOM     22  H   UNL     1       0.133  -4.660   0.810  0.00  0.00    +0.155 HD
BRANCH  19  27
ATOM     23  C   UNL     1      -0.072   1.502   0.016  0.00  0.00    +0.044 C 
ATOM     24  C   UNL     1      -0.040  -0.004   0.006  0.00  0.00    -0.049 A 
ATOM     25  C   UNL     1      -0.627  -0.700  -1.036  0.00  0.00    +0.005 A 
ATOM     26  C   UNL     1      -0.600  -2.081  -1.048  0.00  0.00    +0.024 A 
ATOM     27  C   UNL     1       0.017  -2.771  -0.013  0.00  0.00    +0.048 A 
ATOM     28  C   UNL     1       0.606  -2.070   1.031  0.00  0.00    +0.039 A 
ATOM     29  C   UNL     1       0.580  -0.688   1.035  0.00  0.00    +0.020 A 
ATOM     30 BR   UNL     1       1.448  -3.005   2.443  0.00  0.00    -0.048 Br
ENDBRANCH  19  27
ENDBRANCH  18  20
ENDBRANCH   1  18
TORSDOF 6
