REMARK  Name = ZINC63213792
REMARK  4 active torsions:
REMARK  status: ('A' for Active; 'I' for Inactive)
REMARK    1  A    between atoms: C_3  and  S_9
REMARK    2  A    between atoms: S_9  and  N_12
REMARK    3  A    between atoms: N_12  and  C_13
REMARK    4  A    between atoms: C_20  and  N_22
REMARK                            x       y       z     vdW  Elec       q    Type
REMARK                         _______ _______ _______ _____ _____    ______ ____
ROOT
ATOM      1  N   UNL     1       4.667   1.988   1.401  0.00  0.00    -0.188 NA
ATOM      2  H   UNL     1       4.812   2.694   2.050  0.00  0.00    +0.148 HD
ENDROOT
BRANCH   1   3
ATOM      3  C   UNL     1       5.137   0.628   1.681  0.00  0.00    +0.062 C 
ATOM      4  C   UNL     1       4.052  -0.119   2.480  0.00  0.00    +0.019 C 
ATOM      5  C   UNL     1       4.592  -1.376   3.188  0.00  0.00    +0.001 C 
ATOM      6  C   UNL     1       5.538  -2.163   2.322  0.00  0.00    -0.000 C 
ATOM      7  C   UNL     1       6.980  -1.716   2.639  0.00  0.00    -0.002 C 
ATOM      8  C   UNL     1       7.333  -0.471   1.973  0.00  0.00    -0.015 C 
ATOM      9  C   UNL     1       6.444   0.708   2.422  0.00  0.00    -0.056 C 
BRANCH   9  10
ATOM     10  N   UNL     1       7.113   1.978   2.108  0.00  0.00    +0.381 N 
ATOM     11  H   UNL     1       6.522   2.747   2.386  0.00  0.00    -0.090 HD
ATOM     12  H   UNL     1       7.989   2.028   2.606  0.00  0.00    -0.090 HD
ATOM     13  H   UNL     1       7.287   2.029   1.115  0.00  0.00    -0.090 HD
ENDBRANCH   9  10
ENDBRANCH   1   3
BRANCH   1  14
ATOM     14  S   UNL     1       3.890   2.318  -0.024  0.00  0.00    +0.061 S 
ATOM     15  O   UNL     1       4.688   1.763  -1.060  0.00  0.00    -0.153 OA
ATOM     16  O   UNL     1       3.541   3.695   0.014  0.00  0.00    -0.153 OA
BRANCH  14  19
ATOM     17  C   UNL     1      -0.017   1.379   0.010  0.00  0.00    +0.022 A 
ATOM     18  C   UNL     1       1.171   2.087   0.002  0.00  0.00    +0.033 A 
ATOM     19  C   UNL     1       2.377   1.415  -0.013  0.00  0.00    +0.140 A 
ATOM     20  C   UNL     1       2.398   0.030  -0.022  0.00  0.00    +0.151 A 
ATOM     21  C   UNL     1       1.209  -0.679  -0.014  0.00  0.00    +0.060 A 
ATOM     22  C   UNL     1       0.002  -0.004   0.002  0.00  0.00    +0.044 A 
ATOM     23 CL   UNL     1      -1.489  -0.892   0.012  0.00  0.00    -0.083 Cl
ATOM     24  F   UNL     1       3.578  -0.628  -0.038  0.00  0.00    -0.203 F 
ENDBRANCH  14  19
ENDBRANCH   1  14
TORSDOF 4
