REMARK  Name = ZINC01646556
REMARK  12 active torsions:
REMARK  status: ('A' for Active; 'I' for Inactive)
REMARK    1  A    between atoms: C_1  and  C_2
REMARK    2  A    between atoms: C_2  and  C_3
REMARK    3  A    between atoms: C_3  and  C_4
REMARK    4  A    between atoms: C_3  and  C_7
REMARK    5  A    between atoms: C_3  and  C_21
REMARK    6  A    between atoms: C_4  and  C_5
REMARK    7  A    between atoms: N_9  and  C_10
REMARK    8  A    between atoms: C_16  and  N_20
REMARK    9  A    between atoms: C_18  and  C_19
REMARK   10  A    between atoms: N_23  and  C_24
REMARK   11  A    between atoms: C_30  and  N_34
REMARK   12  A    between atoms: C_32  and  C_33
REMARK                            x       y       z     vdW  Elec       q    Type
REMARK                         _______ _______ _______ _____ _____    ______ ____
ROOT
ATOM      1  C   UNL     1      -2.308   4.050   9.418  0.00  0.00    +0.126 C 
ENDROOT
BRANCH   1   2
ATOM      2  C   UNL     1      -1.650   3.678   8.114  0.00  0.00    +0.233 C 
ATOM      3  O   UNL     1      -0.453   3.484   8.072  0.00  0.00    -0.274 OA
ATOM      4  N   UNL     1      -2.391   3.561   6.995  0.00  0.00    -0.285 N 
ATOM      5  H   UNL     1      -3.336   3.780   7.014  0.00  0.00    +0.155 HD
BRANCH   4   6
ATOM      6  C   UNL     1      -1.798   3.122   5.805  0.00  0.00    +0.034 A 
ATOM      7  C   UNL     1      -0.480   3.487   5.511  0.00  0.00    +0.025 A 
ATOM      8  C   UNL     1       0.120   3.076   4.363  0.00  0.00    +0.028 A 
ATOM      9  C   UNL     1      -0.584   2.272   3.450  0.00  0.00    +0.048 A 
ATOM     10  C   UNL     1      -1.918   1.899   3.743  0.00  0.00    +0.021 A 
ATOM     11  C   UNL     1      -2.517   2.334   4.933  0.00  0.00    +0.035 A 
ATOM     12  C   UNL     1      -2.621   1.088   2.820  0.00  0.00    +0.035 A 
ATOM     13  C   UNL     1      -1.962   0.701   1.664  0.00  0.00    +0.044 A 
ATOM     14  C   UNL     1      -0.651   1.104   1.452  0.00  0.00    +0.015 A 
ATOM     15  C   UNL     1       0.054   0.671   0.192  0.00  0.00    +0.063 C 
ATOM     16  N   UNL     1       0.066   1.878   2.300  0.00  0.00    -0.358 N 
ATOM     17  H   UNL     1       1.034   2.155   2.098  0.00  0.00    +0.166 HD
BRANCH  12  18
ATOM     18  N   UNL     1      -3.930   0.697   3.062  0.00  0.00    -0.357 N 
ATOM     19  H   UNL     1      -4.377   0.980   3.875  0.00  0.00    +0.142 HD
ATOM     20  H   UNL     1      -4.397   0.142   2.419  0.00  0.00    +0.142 HD
ENDBRANCH  12  18
ENDBRANCH   4   6
ENDBRANCH   1   2
BRANCH   1  21
ATOM     21  C   UNL     1      -1.266   4.114  10.506  0.00  0.00    +0.233 C 
ATOM     22  O   UNL     1      -0.104   3.881  10.247  0.00  0.00    -0.274 OA
ATOM     23  N   UNL     1      -1.626   4.431  11.765  0.00  0.00    -0.285 N 
ATOM     24  H   UNL     1      -2.563   4.553  11.986  0.00  0.00    +0.155 HD
BRANCH  23  25
ATOM     25  C   UNL     1      -0.648   4.585  12.755  0.00  0.00    +0.034 A 
ATOM     26  C   UNL     1       0.490   3.772  12.738  0.00  0.00    +0.025 A 
ATOM     27  C   UNL     1       1.459   3.905  13.683  0.00  0.00    +0.028 A 
ATOM     28  C   UNL     1       1.319   4.862  14.704  0.00  0.00    +0.048 A 
ATOM     29  C   UNL     1       0.166   5.683  14.729  0.00  0.00    +0.021 A 
ATOM     30  C   UNL     1      -0.816   5.534  13.741  0.00  0.00    +0.035 A 
ATOM     31  C   UNL     1       0.032   6.644  15.759  0.00  0.00    +0.035 A 
ATOM     32  C   UNL     1       1.046   6.732  16.700  0.00  0.00    +0.044 A 
ATOM     33  C   UNL     1       2.145   5.890  16.607  0.00  0.00    +0.015 A 
ATOM     34  C   UNL     1       3.239   5.997  17.637  0.00  0.00    +0.063 C 
ATOM     35  N   UNL     1       2.323   4.956  15.644  0.00  0.00    -0.358 N 
ATOM     36  H   UNL     1       3.155   4.354  15.615  0.00  0.00    +0.166 HD
BRANCH  31  37
ATOM     37  N   UNL     1      -1.079   7.472  15.825  0.00  0.00    -0.357 N 
ATOM     38  H   UNL     1      -1.779   7.398  15.158  0.00  0.00    +0.142 HD
ATOM     39  H   UNL     1      -1.155   8.126  16.538  0.00  0.00    +0.142 HD
ENDBRANCH  31  37
ENDBRANCH  23  25
ENDBRANCH   1  21
BRANCH   1  41
ATOM     40  C   UNL     1      -2.682   1.631   9.920  0.00  0.00    +0.005 C 
ATOM     41  C   UNL     1      -3.357   2.997   9.779  0.00  0.00    +0.022 C 
ENDBRANCH   1  41
BRANCH   1  42
ATOM     42  C   UNL     1      -2.983   5.416   9.277  0.00  0.00    +0.052 C 
BRANCH  42  43
ATOM     43  C   UNL     1      -1.949   6.453   8.922  0.00  0.00    -0.033 C 
ATOM     44  C   UNL     1      -2.107   7.197   7.855  0.00  0.00    +0.004 C 
ENDBRANCH  42  43
ENDBRANCH   1  42
TORSDOF 9
