REMARK  Name = ZINC39623244
REMARK  7 active torsions:
REMARK  status: ('A' for Active; 'I' for Inactive)
REMARK    1  A    between atoms: C_1  and  C_2
REMARK    2  A    between atoms: C_12  and  O_13
REMARK    3  A    between atoms: O_13  and  C_14
REMARK    4  A    between atoms: C_14  and  C_15
REMARK    5  A    between atoms: C_19  and  C_28
REMARK    6  A    between atoms: N_30  and  C_31
REMARK    7  A    between atoms: C_31  and  C_32
REMARK                            x       y       z     vdW  Elec       q    Type
REMARK                         _______ _______ _______ _____ _____    ______ ____
ROOT
ATOM      1  C   UNL     1       0.140  -6.564   3.314  0.00  0.00    +0.253 C 
ATOM      2  O   UNL     1       0.091  -7.023   2.192  0.00  0.00    -0.272 OA
ATOM      3  N   UNL     1       0.125  -7.388   4.380  0.00  0.00    -0.297 N 
ATOM      4  C   UNL     1       0.170  -7.018   5.815  0.00  0.00    +0.121 C 
ATOM      5  C   UNL     1      -0.808  -7.996   6.502  0.00  0.00    +0.100 C 
ATOM      6  C   UNL     1      -0.876  -9.210   5.559  0.00  0.00    -0.004 C 
ATOM      7  C   UNL     1       0.052  -8.868   4.384  0.00  0.00    +0.115 C 
ATOM      8  C   UNL     1      -2.302  -9.409   5.056  0.00  0.00    -0.010 C 
ATOM      9  C   UNL     1      -2.355 -10.654   4.167  0.00  0.00    -0.082 C 
ATOM     10  N   UNL     1      -1.918 -11.826   4.935  0.00  0.00    +0.379 N 
ATOM     11  C   UNL     1      -0.515 -11.666   5.336  0.00  0.00    -0.082 C 
ATOM     12  C   UNL     1      -0.384 -10.464   6.275  0.00  0.00    -0.010 C 
ATOM     13  H   UNL     1      -2.493 -11.920   5.759  0.00  0.00    -0.086 HD
ATOM     14  H   UNL     1      -2.011 -12.654   4.366  0.00  0.00    -0.086 HD
ENDROOT
BRANCH   5  15
ATOM     15  C   UNL     1      -0.278  -8.407   7.851  0.00  0.00    +0.218 C 
ATOM     16  O   UNL     1       0.918  -8.472   8.039  0.00  0.00    -0.275 OA
ATOM     17  N   UNL     1      -1.134  -8.701   8.850  0.00  0.00    -0.311 N 
ATOM     18  H   UNL     1      -2.091  -8.649   8.700  0.00  0.00    +0.149 HD
BRANCH  17  19
ATOM     19  C   UNL     1      -0.619  -9.100  10.162  0.00  0.00    +0.141 C 
BRANCH  19  20
ATOM     20  C   UNL     1      -1.773  -9.372  11.093  0.00  0.00    -0.012 A 
ATOM     21  C   UNL     1      -2.164  -8.412  12.008  0.00  0.00    +0.006 A 
ATOM     22  C   UNL     1      -3.222  -8.662  12.862  0.00  0.00    +0.000 A 
ATOM     23  C   UNL     1      -3.890  -9.871  12.801  0.00  0.00    +0.001 A 
ATOM     24  C   UNL     1      -3.500 -10.831  11.887  0.00  0.00    +0.020 A 
ATOM     25  C   UNL     1      -2.444 -10.580  11.028  0.00  0.00    +0.046 A 
ATOM     26 CL   UNL     1      -1.958 -11.783   9.875  0.00  0.00    -0.083 Cl
ENDBRANCH  19  20
ENDBRANCH  17  19
ENDBRANCH   5  15
BRANCH   1  27
ATOM     27  C   UNL     1       0.219  -5.072   3.515  0.00  0.00    +0.324 C 
BRANCH  27  28
ATOM     28  O   UNL     1       0.221  -4.420   2.243  0.00  0.00    -0.479 OA
BRANCH  28  40
ATOM     29  C   UNL     1       0.443   1.277  -0.239  0.00  0.00    +0.045 C 
ATOM     30  C   UNL     1       0.369  -0.228  -0.210  0.00  0.00    -0.033 A 
ATOM     31  C   UNL     1       0.307  -0.946  -1.361  0.00  0.00    +0.096 A 
ATOM     32  C   UNL     1       0.240  -2.355  -1.306  0.00  0.00    +0.338 A 
ATOM     33  O   UNL     1       0.185  -2.987  -2.345  0.00  0.00    -0.245 OA
ATOM     34  O   UNL     1       0.235  -3.015  -0.138  0.00  0.00    -0.418 OA
ATOM     35  C   UNL     1       0.294  -2.360   1.042  0.00  0.00    +0.181 A 
ATOM     36  C   UNL     1       0.369  -0.958   1.062  0.00  0.00    +0.024 A 
ATOM     37  C   UNL     1       0.436  -0.278   2.282  0.00  0.00    +0.012 A 
ATOM     38  C   UNL     1       0.434  -0.989   3.461  0.00  0.00    +0.004 A 
ATOM     39  C   UNL     1       0.366  -2.375   3.444  0.00  0.00    +0.049 A 
ATOM     40  C   UNL     1       0.288  -3.062   2.246  0.00  0.00    +0.164 A 
ENDBRANCH  28  40
ENDBRANCH  27  28
ENDBRANCH   1  27
TORSDOF 6
