REMARK  Name = ZINC67407813
REMARK  12 active torsions:
REMARK  status: ('A' for Active; 'I' for Inactive)
REMARK    1  A    between atoms: C_1  and  C_2
REMARK    2  A    between atoms: C_2  and  C_3
REMARK    3  A    between atoms: C_2  and  C_4
REMARK    4  A    between atoms: C_4  and  C_5
REMARK    5  A    between atoms: C_5  and  C_6
REMARK    6  A    between atoms: N_8  and  N_9
REMARK    7  A    between atoms: N_12  and  C_13
REMARK    8  A    between atoms: C_13  and  C_14
REMARK    9  A    between atoms: C_14  and  C_16
REMARK   10  A    between atoms: C_14  and  N_24
REMARK   11  A    between atoms: C_21  and  O_22
REMARK   12  A    between atoms: O_22  and  C_23
REMARK                            x       y       z     vdW  Elec       q    Type
REMARK                         _______ _______ _______ _____ _____    ______ ____
ROOT
ATOM      1  C   UNL     1      -3.832  -8.030  -0.533  0.00  0.00    +0.095 C 
ENDROOT
BRANCH   1   5
ATOM      2  N   UNL     1      -6.249  -8.277   2.228  0.00  0.00    -0.218 N 
ATOM      3  C   UNL     1      -5.666  -7.915   1.067  0.00  0.00    +0.316 C 
ATOM      4  O   UNL     1      -6.224  -7.128   0.327  0.00  0.00    -0.251 OA
ATOM      5  N   UNL     1      -4.466  -8.424   0.728  0.00  0.00    -0.299 N 
ATOM      6  H   UNL     1      -7.113  -7.910   2.472  0.00  0.00    +0.174 HD
ATOM      7  H   UNL     1      -4.021  -9.052   1.319  0.00  0.00    +0.150 HD
BRANCH   2  10
ATOM      8  C   UNL     1      -6.189  -9.546   4.241  0.00  0.00    +0.229 C 
ATOM      9  O   UNL     1      -7.269  -9.087   4.546  0.00  0.00    -0.274 OA
ATOM     10  N   UNL     1      -5.606  -9.184   3.081  0.00  0.00    -0.233 N 
ATOM     11  H   UNL     1      -4.742  -9.550   2.837  0.00  0.00    +0.173 HD
BRANCH   8  12
ATOM     12  C   UNL     1      -5.498 -10.521   5.159  0.00  0.00    +0.097 C 
BRANCH  12  13
ATOM     13  C   UNL     1      -6.366 -10.760   6.396  0.00  0.00    +0.012 C 
BRANCH  13  15
ATOM     14  C   UNL     1      -6.471 -11.894   8.620  0.00  0.00    +0.007 C 
ATOM     15  C   UNL     1      -5.665 -11.751   7.327  0.00  0.00    -0.017 C 
ATOM     16  C   UNL     1      -5.559 -13.112   6.638  0.00  0.00    +0.007 C 
ENDBRANCH  13  15
ENDBRANCH  12  13
ENDBRANCH   8  12
ENDBRANCH   2  10
ENDBRANCH   1   5
BRANCH   1  17
ATOM     17  C   UNL     1      -2.435  -8.647  -0.616  0.00  0.00    -0.017 C 
BRANCH  17  18
ATOM     18  N   UNL     1      -1.666  -8.282   0.582  0.00  0.00    +0.385 N 
ATOM     19  C   UNL     1      -1.639  -6.821   0.717  0.00  0.00    -0.078 C 
ATOM     20  C   UNL     1      -0.910  -6.438   2.007  0.00  0.00    -0.019 C 
ATOM     21  C   UNL     1       0.524  -6.973   1.954  0.00  0.00    -0.004 C 
ATOM     22  C   UNL     1       0.484  -8.489   1.738  0.00  0.00    -0.019 C 
ATOM     23  C   UNL     1      -0.297  -8.796   0.458  0.00  0.00    -0.078 C 
ATOM     24  H   UNL     1      -2.104  -8.685   1.397  0.00  0.00    -0.081 HD
ENDBRANCH  17  18
BRANCH  17  25
ATOM     25  C   UNL     1      -2.552 -10.147  -0.700  0.00  0.00    -0.018 A 
ATOM     26  C   UNL     1      -2.467 -10.912   0.448  0.00  0.00    +0.005 A 
ATOM     27  C   UNL     1      -2.574 -12.289   0.371  0.00  0.00    +0.000 A 
ATOM     28  C   UNL     1      -2.766 -12.903  -0.853  0.00  0.00    +0.004 A 
ATOM     29  C   UNL     1      -2.852 -12.142  -2.002  0.00  0.00    +0.046 A 
ATOM     30  C   UNL     1      -2.750 -10.760  -1.928  0.00  0.00    +0.122 A 
BRANCH  30  31
ATOM     31  O   UNL     1      -2.840 -10.009  -3.057  0.00  0.00    -0.495 OA
ATOM     32  C   UNL     1      -3.044 -10.708  -4.287  0.00  0.00    +0.277 C 
ENDBRANCH  30  31
ENDBRANCH  17  25
ENDBRANCH   1  17
TORSDOF 9
