REMARK  Name = ZINC08767085
REMARK  11 active torsions:
REMARK  status: ('A' for Active; 'I' for Inactive)
REMARK    1  A    between atoms: C_1  and  C_2
REMARK    2  A    between atoms: C_2  and  O_3
REMARK    3  A    between atoms: O_3  and  C_4
REMARK    4  A    between atoms: C_4  and  C_6
REMARK    5  A    between atoms: C_7  and  C_37
REMARK    6  A    between atoms: C_14  and  C_15
REMARK    7  A    between atoms: C_18  and  N_20
REMARK    8  A    between atoms: C_25  and  N_67
REMARK    9  A    between atoms: C_27  and  C_29
REMARK   10  A    between atoms: C_32  and  S_35
REMARK   11  A    between atoms: S_35  and  C_36
REMARK                            x       y       z     vdW  Elec       q    Type
REMARK                         _______ _______ _______ _____ _____    ______ ____
ROOT
ATOM      1  C   UNL     1      -6.025  -1.095   1.583  0.00  0.00    +0.085 C 
ATOM      2  C   UNL     1      -7.254  -0.550   1.833  0.00  0.00    +0.053 C 
ATOM      3  N   UNL     1      -7.959   0.003   0.855  0.00  0.00    -0.228 NA
ATOM      4  C   UNL     1      -7.570   0.082  -0.394  0.00  0.00    +0.178 A 
ATOM      5  N   UNL     1      -6.370  -0.404  -0.857  0.00  0.00    -0.275 N 
ATOM      6  C   UNL     1      -6.091  -0.260  -2.159  0.00  0.00    +0.268 A 
ATOM      7  O   UNL     1      -5.042  -0.671  -2.624  0.00  0.00    -0.266 OA
ATOM      8  C   UNL     1      -7.049   0.384  -2.980  0.00  0.00    +0.084 A 
ATOM      9  C   UNL     1      -7.003   0.651  -4.333  0.00  0.00    +0.067 C 
ATOM     10  S   UNL     1      -8.331   0.755  -1.796  0.00  0.00    -0.046 S 
ATOM     11  C   UNL     1      -5.501  -1.048   0.166  0.00  0.00    +0.162 C 
ATOM     12  C   UNL     1      -7.813  -0.578   3.232  0.00  0.00    +0.066 C 
ENDROOT
BRANCH  11  13
ATOM     13  C   UNL     1      -4.184  -0.314   0.183  0.00  0.00    -0.020 A 
ATOM     14  C   UNL     1      -2.999  -1.026   0.238  0.00  0.00    +0.007 A 
ATOM     15  C   UNL     1      -1.791  -0.357   0.253  0.00  0.00    +0.015 A 
ATOM     16  C   UNL     1      -1.767   1.032   0.214  0.00  0.00    +0.008 A 
ATOM     17  C   UNL     1      -2.960   1.743   0.166  0.00  0.00    +0.015 A 
ATOM     18  C   UNL     1      -4.164   1.068   0.144  0.00  0.00    +0.007 A 
BRANCH  16  19
ATOM     19  S   UNL     1      -0.228   1.889   0.234  0.00  0.00    -0.129 S 
ATOM     20  C   UNL     1      -0.699   3.640   0.171  0.00  0.00    +0.090 C 
ENDBRANCH  16  19
ENDBRANCH  11  13
BRANCH   9  21
ATOM     21  C   UNL     1      -5.971   0.113  -5.121  0.00  0.00    +0.131 A 
ATOM     22  C   UNL     1      -5.724   0.406  -6.452  0.00  0.00    +0.051 A 
ATOM     23  C   UNL     1      -4.609  -0.346  -6.829  0.00  0.00    +0.066 A 
ATOM     24  C   UNL     1      -4.223  -1.070  -5.737  0.00  0.00    +0.189 A 
ATOM     25  O   UNL     1      -5.047  -0.788  -4.716  0.00  0.00    -0.442 OA
BRANCH  24  26
ATOM     26  N   UNL     1      -3.160  -1.949  -5.692  0.00  0.00    -0.305 N 
ATOM     27  C   UNL     1      -3.288  -2.984  -6.727  0.00  0.00    +0.089 C 
ATOM     28  C   UNL     1      -2.054  -3.889  -6.696  0.00  0.00    -0.060 C 
ATOM     29  C   UNL     1      -1.799  -3.459  -4.327  0.00  0.00    -0.060 C 
ATOM     30  C   UNL     1      -3.033  -2.554  -4.359  0.00  0.00    +0.089 C 
ATOM     31  C   UNL     1      -0.795  -5.429  -5.314  0.00  0.00    -0.096 C 
ATOM     32  N   UNL     1      -1.951  -4.508  -5.357  0.00  0.00    +0.380 N 
ATOM     33  H   UNL     1      -2.809  -5.039  -5.169  0.00  0.00    -0.082 HD
ENDBRANCH  24  26
ENDBRANCH   9  21
BRANCH   1  34
ATOM     34  C   UNL     1      -5.273  -1.683   2.612  0.00  0.00    +0.339 C 
ATOM     35  O   UNL     1      -5.713  -1.711   3.748  0.00  0.00    -0.245 OA
BRANCH  34  36
ATOM     36  O   UNL     1      -4.062  -2.216   2.343  0.00  0.00    -0.462 OA
BRANCH  36  38
ATOM     37  C   UNL     1      -2.011  -3.345   2.944  0.00  0.00    +0.048 C 
ATOM     38  C   UNL     1      -3.351  -2.797   3.439  0.00  0.00    +0.229 C 
ENDBRANCH  36  38
ENDBRANCH  34  36
ENDBRANCH   1  34
TORSDOF 7
