REMARK  Name = ZINC29678763
REMARK  14 active torsions:
REMARK  status: ('A' for Active; 'I' for Inactive)
REMARK    1  A    between atoms: C_1  and  C_2
REMARK    2  A    between atoms: C_5  and  O_30
REMARK    3  A    between atoms: C_6  and  C_8
REMARK    4  A    between atoms: C_8  and  C_10
REMARK    5  A    between atoms: C_8  and  N_11
REMARK    6  A    between atoms: N_11  and  C_12
REMARK    7  A    between atoms: C_12  and  C_14
REMARK    8  A    between atoms: C_12  and  C_15
REMARK    9  A    between atoms: N_17  and  C_18
REMARK   10  A    between atoms: C_20  and  N_26
REMARK   11  A    between atoms: C_23  and  O_24
REMARK   12  A    between atoms: O_24  and  C_25
REMARK   13  A    between atoms: C_27  and  C_29
REMARK   14  A    between atoms: O_30  and  C_31
REMARK                            x       y       z     vdW  Elec       q    Type
REMARK                         _______ _______ _______ _____ _____    ______ ____
ROOT
ATOM      1  C   UNL     1      -5.906   3.159  -0.466  0.00  0.00    +0.203 C 
ATOM      2  O   UNL     1      -4.867   3.780  -0.382  0.00  0.00    -0.277 OA
ATOM      3  N   UNL     1      -5.899   1.815  -0.362  0.00  0.00    -0.284 N 
ATOM      4  H   UNL     1      -6.847   1.258  -0.361  0.00  0.00    +0.155 HD
ENDROOT
BRANCH   3   5
ATOM      5  C   UNL     1      -4.683   1.128  -0.253  0.00  0.00    +0.077 A 
ATOM      6  C   UNL     1      -3.623   1.695   0.438  0.00  0.00    +0.050 A 
ATOM      7  C   UNL     1      -2.420   1.012   0.544  0.00  0.00    +0.035 A 
ATOM      8  C   UNL     1      -2.276  -0.237  -0.046  0.00  0.00    +0.027 A 
ATOM      9  C   UNL     1      -3.333  -0.806  -0.730  0.00  0.00    +0.049 A 
ATOM     10  C   UNL     1      -4.536  -0.128  -0.839  0.00  0.00    +0.141 A 
BRANCH   7  11
ATOM     11  N   UNL     1      -1.349   1.584   1.242  0.00  0.00    -0.286 N 
ATOM     12  C   UNL     1      -0.410   0.795   1.800  0.00  0.00    +0.214 C 
ATOM     13  O   UNL     1      -0.546  -0.410   1.790  0.00  0.00    -0.276 OA
ATOM     14  C   UNL     1       0.813   1.409   2.431  0.00  0.00    +0.109 C 
ATOM     15  H   UNL     1      -1.274   2.678   1.334  0.00  0.00    +0.155 HD
ENDBRANCH   7  11
BRANCH  10  16
ATOM     16  O   UNL     1      -5.574  -0.687  -1.518  0.00  0.00    -0.493 OA
ATOM     17  C   UNL     1      -5.354  -1.976  -2.093  0.00  0.00    +0.277 C 
ENDBRANCH  10  16
ENDBRANCH   3   5
BRANCH   1  18
ATOM     18  C   UNL     1      -7.205   3.890  -0.688  0.00  0.00    +0.014 C 
ATOM     19  C   UNL     1      -8.156   3.605   0.476  0.00  0.00    -0.004 C 
BRANCH  18  20
ATOM     20  N   UNL     1      -6.946   5.334  -0.766  0.00  0.00    +0.391 N 
ATOM     21  H   UNL     1      -5.972   5.492  -1.252  0.00  0.00    -0.084 HD
ATOM     22  H   UNL     1      -6.918   5.744   0.254  0.00  0.00    -0.084 HD
BRANCH  20  23
ATOM     23  C   UNL     1      -7.995   6.015  -1.538  0.00  0.00    -0.039 C 
ATOM     24  C   UNL     1      -7.660   5.941  -3.029  0.00  0.00    -0.009 C 
BRANCH  23  30
ATOM     25  C   UNL     1      -5.836  10.075   0.436  0.00  0.00    +0.044 C 
ATOM     26  C   UNL     1      -7.042   9.402  -0.168  0.00  0.00    -0.050 A 
ATOM     27  C   UNL     1      -8.218  10.111  -0.331  0.00  0.00    +0.007 A 
ATOM     28  C   UNL     1      -9.324   9.497  -0.886  0.00  0.00    +0.046 A 
ATOM     29  C   UNL     1      -9.253   8.169  -1.282  0.00  0.00    +0.122 A 
ATOM     30  C   UNL     1      -8.074   7.459  -1.113  0.00  0.00    -0.020 A 
ATOM     31  C   UNL     1      -6.970   8.078  -0.559  0.00  0.00    +0.009 A 
BRANCH  29  32
ATOM     32  O   UNL     1     -10.339   7.564  -1.832  0.00  0.00    -0.495 OA
ATOM     33  C   UNL     1     -11.519   8.356  -1.977  0.00  0.00    +0.277 C 
ENDBRANCH  29  32
ENDBRANCH  23  30
ENDBRANCH  20  23
ENDBRANCH  18  20
ENDBRANCH   1  18
TORSDOF 8
