REMARK  Name = ZINC05223117
REMARK  8 active torsions:
REMARK  status: ('A' for Active; 'I' for Inactive)
REMARK    1  A    between atoms: C_1  and  C_2
REMARK    2  A    between atoms: C_3  and  C_26
REMARK    3  A    between atoms: C_4  and  C_25
REMARK    4  A    between atoms: C_7  and  C_8
REMARK    5  A    between atoms: C_8  and  C_10
REMARK    6  A    between atoms: C_10  and  N_11
REMARK    7  A    between atoms: C_19  and  C_21
REMARK    8  A    between atoms: C_26  and  C_28
REMARK                            x       y       z     vdW  Elec       q    Type
REMARK                         _______ _______ _______ _____ _____    ______ ____
ROOT
ATOM      1  C   UNL     1      -0.399  -1.972   3.462  0.00  0.00    +0.199 C 
ENDROOT
BRANCH   1   2
ATOM      2  N   UNL     1      -0.625  -1.496   4.829  0.00  0.00    -0.217 N 
ATOM      3  C   UNL     1       0.360  -1.151   5.684  0.00  0.00    +0.247 C 
ATOM      4  O   UNL     1       1.554  -1.175   5.476  0.00  0.00    -0.273 OA
ATOM      5  C   UNL     1      -0.339  -0.729   6.956  0.00  0.00    +0.115 C 
ATOM      6  C   UNL     1      -0.028   0.730   7.273  0.00  0.00    +0.035 C 
ATOM      7  C   UNL     1       1.471   0.885   7.547  0.00  0.00    +0.003 C 
ATOM      8  C   UNL     1       1.868  -0.007   8.725  0.00  0.00    +0.000 C 
ATOM      9  C   UNL     1       1.569  -1.469   8.384  0.00  0.00    +0.006 C 
ATOM     10  C   UNL     1       0.071  -1.632   8.113  0.00  0.00    +0.018 C 
ATOM     11  C   UNL     1      -0.225  -3.089   7.752  0.00  0.00    +0.010 C 
ATOM     12  N   UNL     1      -1.765  -0.896   6.651  0.00  0.00    -0.285 N 
ATOM     13  C   UNL     1      -1.834  -1.345   5.383  0.00  0.00    +0.310 C 
ATOM     14  O   UNL     1      -2.876  -1.587   4.807  0.00  0.00    -0.252 OA
ATOM     15  H   UNL     1      -2.511  -0.717   7.245  0.00  0.00    +0.151 HD
ENDBRANCH   1   2
BRANCH   1  16
ATOM     16  C   UNL     1      -0.371  -0.797   2.519  0.00  0.00    +0.197 C 
ATOM     17  O   UNL     1      -0.525   0.329   2.947  0.00  0.00    -0.289 OA
BRANCH  16  24
ATOM     18  C   UNL     1      -0.275   1.458   0.383  0.00  0.00    +0.047 C 
ATOM     19  C   UNL     1      -0.118  -0.026   0.167  0.00  0.00    -0.012 A 
ATOM     20  C   UNL     1       0.111  -0.678  -1.065  0.00  0.00    +0.041 A 
ATOM     21  C   UNL     1       0.189  -2.038  -0.799  0.00  0.00    +0.024 A 
ATOM     22  N   UNL     1       0.018  -2.227   0.517  0.00  0.00    -0.355 N 
ATOM     23  H   UNL     1       0.028  -3.086   0.966  0.00  0.00    +0.166 HD
ATOM     24  C   UNL     1      -0.166  -1.006   1.134  0.00  0.00    +0.088 A 
ATOM     25  C   UNL     1       0.424  -3.121  -1.819  0.00  0.00    +0.064 C 
BRANCH  20  26
ATOM     26  C   UNL     1       0.242  -0.039  -2.379  0.00  0.00    +0.162 C 
ATOM     27  O   UNL     1      -0.746   0.181  -3.047  0.00  0.00    -0.292 OA
ATOM     28  C   UNL     1       1.604   0.344  -2.898  0.00  0.00    +0.091 C 
ENDBRANCH  20  26
ENDBRANCH  16  24
ENDBRANCH   1  16
TORSDOF 4
