REMARK  Name = ZINC56682974
REMARK  10 active torsions:
REMARK  status: ('A' for Active; 'I' for Inactive)
REMARK    1  A    between atoms: C_1  and  C_2
REMARK    2  A    between atoms: C_2  and  C_3
REMARK    3  A    between atoms: C_2  and  N_4
REMARK    4  A    between atoms: C_5  and  C_7
REMARK    5  A    between atoms: C_11  and  N_13
REMARK    6  A    between atoms: N_16  and  C_17
REMARK    7  A    between atoms: C_17  and  C_18
REMARK    8  A    between atoms: C_23  and  N_24
REMARK    9  A    between atoms: N_24  and  C_25
REMARK   10  A    between atoms: N_24  and  C_26
REMARK                            x       y       z     vdW  Elec       q    Type
REMARK                         _______ _______ _______ _____ _____    ______ ____
ROOT
ATOM      1  N   UNL     1       6.159  -1.457  -3.716  0.00  0.00    -0.268 N 
ATOM      2  C   UNL     1       6.880  -1.178  -2.613  0.00  0.00    +0.304 C 
ATOM      3  O   UNL     1       6.316  -0.882  -1.577  0.00  0.00    -0.252 OA
ATOM      4  N   UNL     1       8.226  -1.227  -2.657  0.00  0.00    -0.295 N 
ATOM      5  H   UNL     1       6.604  -1.759  -4.523  0.00  0.00    +0.156 HD
ATOM      6  H   UNL     1       8.676  -1.462  -3.484  0.00  0.00    +0.151 HD
ENDROOT
BRANCH   1  11
ATOM      7  C   UNL     1       2.669  -1.435  -2.527  0.00  0.00    +0.039 A 
ATOM      8  C   UNL     1       2.004  -1.016  -3.681  0.00  0.00    +0.014 A 
ATOM      9  C   UNL     1       2.720  -0.750  -4.830  0.00  0.00    +0.022 A 
ATOM     10  C   UNL     1       4.096  -0.895  -4.844  0.00  0.00    +0.062 A 
ATOM     11  C   UNL     1       4.766  -1.311  -3.698  0.00  0.00    +0.054 A 
ATOM     12  C   UNL     1       4.057  -1.576  -2.538  0.00  0.00    +0.038 A 
ATOM     13 CL   UNL     1       4.988  -0.558  -6.294  0.00  0.00    -0.082 Cl
BRANCH   7  15
ATOM     14  N   UNL     1       0.564  -1.584  -1.286  0.00  0.00    -0.309 N 
ATOM     15  C   UNL     1       1.905  -1.721  -1.294  0.00  0.00    +0.244 C 
ATOM     16  O   UNL     1       2.486  -2.081  -0.289  0.00  0.00    -0.270 OA
ATOM     17  H   UNL     1       0.101  -1.298  -2.088  0.00  0.00    +0.149 HD
BRANCH  14  19
ATOM     18  C   UNL     1      -0.207  -0.626   0.828  0.00  0.00    +0.027 C 
ATOM     19  C   UNL     1      -0.193  -1.869  -0.064  0.00  0.00    +0.067 C 
ATOM     20  C   UNL     1      -1.629  -2.249  -0.432  0.00  0.00    +0.027 C 
ENDBRANCH  14  19
ENDBRANCH   7  15
ENDBRANCH   1  11
BRANCH   4  21
ATOM     21  C   UNL     1       9.010  -0.923  -1.458  0.00  0.00    +0.144 C 
BRANCH  21  22
ATOM     22  C   UNL     1      10.479  -1.048  -1.772  0.00  0.00    +0.008 A 
ATOM     23  C   UNL     1      11.182  -2.179  -1.398  0.00  0.00    +0.010 A 
ATOM     24  C   UNL     1      12.534  -2.252  -1.708  0.00  0.00    +0.018 A 
ATOM     25  C   UNL     1      13.132  -1.202  -2.376  0.00  0.00    +0.084 A 
ATOM     26  N   UNL     1      12.436  -0.135  -2.720  0.00  0.00    -0.349 N 
ATOM     27  C   UNL     1      11.144  -0.030  -2.447  0.00  0.00    +0.103 A 
ATOM     28  H   UNL     1      12.881   0.589  -3.188  0.00  0.00    +0.167 HD
BRANCH  27  29
ATOM     29  N   UNL     1      10.448   1.109  -2.834  0.00  0.00    -0.323 N 
ATOM     30  C   UNL     1      10.276   2.217  -1.891  0.00  0.00    +0.130 C 
ATOM     31  C   UNL     1       9.888   1.202  -4.184  0.00  0.00    +0.130 C 
ENDBRANCH  27  29
ENDBRANCH  21  22
ENDBRANCH   4  21
TORSDOF 6
