REMARK  Name = ZINC58190772
REMARK  6 active torsions:
REMARK  status: ('A' for Active; 'I' for Inactive)
REMARK    1  A    between atoms: C_3  and  C_6
REMARK    2  A    between atoms: N_8  and  C_9
REMARK    3  A    between atoms: C_12  and  N_15
REMARK    4  A    between atoms: C_16  and  C_18
REMARK    5  A    between atoms: C_18  and  N_19
REMARK    6  A    between atoms: C_23  and  O_26
REMARK                            x       y       z     vdW  Elec       q    Type
REMARK                         _______ _______ _______ _____ _____    ______ ____
ROOT
ATOM      1  C   UNL     1       6.016   1.225   0.026  0.00  0.00    +0.034 A 
ATOM      2  C   UNL     1       6.306   2.474  -0.505  0.00  0.00    +0.025 A 
ATOM      3  C   UNL     1       7.600   2.954  -0.473  0.00  0.00    +0.025 A 
ATOM      4  C   UNL     1       8.611   2.188   0.092  0.00  0.00    +0.033 A 
ATOM      5  C   UNL     1       8.320   0.938   0.623  0.00  0.00    +0.025 A 
ATOM      6  C   UNL     1       7.026   0.460   0.595  0.00  0.00    +0.025 A 
ENDROOT
BRANCH   1   9
ATOM      7  C   UNL     1       4.236  -0.010   1.012  0.00  0.00    +0.255 C 
ATOM      8  O   UNL     1       4.979  -0.333   1.920  0.00  0.00    -0.269 OA
ATOM      9  N   UNL     1       4.703   0.738  -0.007  0.00  0.00    -0.281 N 
ATOM     10  H   UNL     1       4.130   0.940  -0.763  0.00  0.00    +0.155 HD
BRANCH   7  13
ATOM     11  C   UNL     1       0.833  -1.435   1.707  0.00  0.00    +0.008 A 
ATOM     12  C   UNL     1       2.161  -1.198   1.969  0.00  0.00    +0.021 A 
ATOM     13  C   UNL     1       2.834  -0.435   1.027  0.00  0.00    +0.074 A 
ATOM     14  S   UNL     1       1.547  -0.104  -0.163  0.00  0.00    -0.092 S 
ATOM     15  C   UNL     1       0.282  -0.924   0.579  0.00  0.00    +0.046 A 
ENDBRANCH   7  13
ENDBRANCH   1   9
BRANCH   4  16
ATOM     16  N   UNL     1       9.924   2.675   0.125  0.00  0.00    -0.287 N 
ATOM     17  C   UNL     1      10.961   1.827  -0.021  0.00  0.00    +0.201 C 
ATOM     18  O   UNL     1      10.762   0.633  -0.097  0.00  0.00    -0.278 OA
ATOM     19  H   UNL     1      10.087   3.623   0.254  0.00  0.00    +0.155 HD
BRANCH  17  20
ATOM     20  C   UNL     1      12.368   2.362  -0.089  0.00  0.00    +0.019 C 
BRANCH  20  21
ATOM     21  N   UNL     1      13.310   1.246  -0.248  0.00  0.00    +0.387 N 
ATOM     22  C   UNL     1      13.073   0.588  -1.538  0.00  0.00    -0.078 C 
ATOM     23  C   UNL     1      13.996  -0.625  -1.674  0.00  0.00    -0.016 C 
ATOM     24  C   UNL     1      15.453  -0.162  -1.596  0.00  0.00    +0.027 C 
ATOM     25  C   UNL     1      15.670   0.588  -0.278  0.00  0.00    +0.098 C 
ATOM     26  C   UNL     1      14.685   1.756  -0.195  0.00  0.00    -0.047 C 
ATOM     27  H   UNL     1      13.170   0.580   0.497  0.00  0.00    -0.081 HD
BRANCH  25  28
ATOM     28  O   UNL     1      17.008   1.087  -0.228  0.00  0.00    -0.394 OA
ATOM     29  H   UNL     1      17.686   0.400  -0.280  0.00  0.00    +0.210 HD
ENDBRANCH  25  28
ENDBRANCH  20  21
ENDBRANCH  17  20
ENDBRANCH   4  16
TORSDOF 6
