REMARK  Name = ZINC02664160
REMARK  8 active torsions:
REMARK  status: ('A' for Active; 'I' for Inactive)
REMARK    1  A    between atoms: C_10  and  N_47
REMARK    2  A    between atoms: C_12  and  C_13
REMARK    3  A    between atoms: C_12  and  N_47
REMARK    4  A    between atoms: C_13  and  C_15
REMARK    5  A    between atoms: C_13  and  O_25
REMARK    6  A    between atoms: C_15  and  O_16
REMARK    7  A    between atoms: O_16  and  C_17
REMARK    8  A    between atoms: C_17  and  C_18
REMARK                            x       y       z     vdW  Elec       q    Type
REMARK                         _______ _______ _______ _____ _____    ______ ____
ROOT
ATOM      1  C   UNL     1      -4.378   8.411   0.309  0.00  0.00    -0.048 C 
ENDROOT
BRANCH   1   2
ATOM      2  N   UNL     1      -4.006   9.836   0.218  0.00  0.00    +0.385 N 
ATOM      3  H   UNL     1      -3.409  10.082   1.016  0.00  0.00    -0.085 HD
ATOM      4  H   UNL     1      -3.492   9.997  -0.657  0.00  0.00    -0.085 HD
BRANCH   2  14
ATOM      5  C   UNL     1      -4.329  14.259  -1.938  0.00  0.00    +0.000 A 
ATOM      6  C   UNL     1      -3.906  13.026  -2.400  0.00  0.00    +0.000 A 
ATOM      7  C   UNL     1      -4.202  11.887  -1.682  0.00  0.00    +0.002 A 
ATOM      8  C   UNL     1      -4.922  11.967  -0.496  0.00  0.00    -0.058 A 
ATOM      9  C   UNL     1      -5.340  13.194  -0.034  0.00  0.00    -0.046 A 
ATOM     10  C   UNL     1      -5.042  14.340  -0.760  0.00  0.00    +0.004 A 
ATOM     11  C   UNL     1      -6.118  13.357   1.246  0.00  0.00    +0.035 C 
ATOM     12  C   UNL     1      -6.722  12.023   1.680  0.00  0.00    +0.003 C 
ATOM     13  C   UNL     1      -5.611  10.966   1.682  0.00  0.00    -0.011 C 
ATOM     14  C   UNL     1      -5.214  10.682   0.234  0.00  0.00    -0.041 C 
ENDBRANCH   2  14
ENDBRANCH   1   2
BRANCH   1  15
ATOM     15  C   UNL     1      -3.119   7.554   0.159  0.00  0.00    +0.123 C 
BRANCH  15  16
ATOM     16  O   UNL     1      -2.515   7.812  -1.110  0.00  0.00    -0.391 OA
ATOM     17  H   UNL     1      -3.086   7.614  -1.865  0.00  0.00    +0.210 HD
ENDBRANCH  15  16
BRANCH  15  18
ATOM     18  C   UNL     1      -3.495   6.074   0.254  0.00  0.00    +0.189 C 
BRANCH  18  19
ATOM     19  O   UNL     1      -2.309   5.279   0.231  0.00  0.00    -0.373 OA
BRANCH  19  20
ATOM     20  C   UNL     1      -2.550   3.873   0.314  0.00  0.00    +0.198 C 
BRANCH  20  21
ATOM     21  C   UNL     1      -1.236   3.135   0.282  0.00  0.00    +0.013 A 
ATOM     22  C   UNL     1      -0.051   3.838   0.184  0.00  0.00    +0.009 A 
ATOM     23  C   UNL     1       1.154   3.162   0.154  0.00  0.00    +0.001 A 
ATOM     24  C   UNL     1       1.175   1.781   0.222  0.00  0.00    +0.003 A 
ATOM     25  C   UNL     1      -0.009   1.075   0.320  0.00  0.00    +0.039 A 
ATOM     26  C   UNL     1      -1.217   1.752   0.344  0.00  0.00    +0.129 A 
ATOM     27  F   UNL     1      -2.376   1.063   0.433  0.00  0.00    -0.205 F 
ENDBRANCH  20  21
ENDBRANCH  19  20
ENDBRANCH  18  19
ENDBRANCH  15  18
ENDBRANCH   1  15
TORSDOF 8
