REMARK  Name = ZINC66244854
REMARK  5 active torsions:
REMARK  status: ('A' for Active; 'I' for Inactive)
REMARK    1  A    between atoms: C_3  and  C_6
REMARK    2  A    between atoms: C_6  and  N_7
REMARK    3  A    between atoms: N_10  and  C_11
REMARK    4  A    between atoms: C_11  and  C_12
REMARK    5  A    between atoms: C_12  and  C_13
REMARK                            x       y       z     vdW  Elec       q    Type
REMARK                         _______ _______ _______ _____ _____    ______ ____
ROOT
ATOM      1  N   UNL     1       4.101   0.607   1.347  0.00  0.00    -0.351 N 
ATOM      2  C   UNL     1       5.384   0.576   1.572  0.00  0.00    +0.169 C 
ATOM      3  N   UNL     1       6.267   0.560   0.518  0.00  0.00    -0.371 N 
ATOM      4  N   UNL     1       5.855   0.558   2.864  0.00  0.00    -0.357 N 
ATOM      5  H   UNL     1       5.935   0.573  -0.393  0.00  0.00    +0.159 HD
ATOM      6  H   UNL     1       7.222   0.537   0.686  0.00  0.00    +0.159 HD
ATOM      7  H   UNL     1       5.232   0.569   3.607  0.00  0.00    +0.162 HD
ATOM      8  H   UNL     1       3.478   0.617   2.090  0.00  0.00    +0.163 HD
ENDROOT
BRANCH   1   9
ATOM      9  C   UNL     1       3.599   0.625  -0.029  0.00  0.00    +0.190 C 
BRANCH   9  12
ATOM     10  C   UNL     1      -0.016   1.341   0.009  0.00  0.00    +0.041 A 
ATOM     11  C   UNL     1       1.331   1.769  -0.001  0.00  0.00    +0.046 A 
ATOM     12  C   UNL     1       2.092   0.660  -0.014  0.00  0.00    +0.124 A 
ATOM     13  O   UNL     1       1.282  -0.411  -0.012  0.00  0.00    -0.466 OA
ATOM     14  C   UNL     1       0.002  -0.004   0.002  0.00  0.00    +0.195 A 
ENDBRANCH   9  12
ENDBRANCH   1   9
BRANCH   4  15
ATOM     15  C   UNL     1       7.298   0.523   3.117  0.00  0.00    +0.120 C 
BRANCH  15  16
ATOM     16  C   UNL     1       7.550   0.510   4.626  0.00  0.00    +0.059 C 
BRANCH  16  17
ATOM     17  C   UNL     1       9.034   0.474   4.887  0.00  0.00    -0.009 A 
ATOM     18  C   UNL     1       9.670  -0.735   5.097  0.00  0.00    +0.021 A 
ATOM     19  C   UNL     1      11.032  -0.767   5.337  0.00  0.00    +0.018 A 
ATOM     20  C   UNL     1      11.758   0.409   5.365  0.00  0.00    +0.018 A 
ATOM     21  C   UNL     1      11.124   1.619   5.154  0.00  0.00    +0.040 A 
ATOM     22  C   UNL     1       9.761   1.652   4.909  0.00  0.00    +0.127 A 
ATOM     23  F   UNL     1       9.142   2.834   4.698  0.00  0.00    -0.205 F 
ATOM     24 BR   UNL     1      11.901  -2.422   5.625  0.00  0.00    -0.050 Br
ENDBRANCH  16  17
ENDBRANCH  15  16
ENDBRANCH   4  15
TORSDOF 5
