REMARK  Name = ZINC67269275
REMARK  8 active torsions:
REMARK  status: ('A' for Active; 'I' for Inactive)
REMARK    1  A    between atoms: C_1  and  C_2
REMARK    2  A    between atoms: C_5  and  C_29
REMARK    3  A    between atoms: N_8  and  C_10
REMARK    4  A    between atoms: C_10  and  C_11
REMARK    5  A    between atoms: C_10  and  C_12
REMARK    6  A    between atoms: C_10  and  C_13
REMARK    7  A    between atoms: C_13  and  N_14
REMARK    8  A    between atoms: C_15  and  C_17
REMARK                            x       y       z     vdW  Elec       q    Type
REMARK                         _______ _______ _______ _____ _____    ______ ____
ROOT
ATOM      1  N   UNL     1       2.001   1.661   3.436  0.00  0.00    -0.316 N 
ATOM      2  C   UNL     1       1.527   2.460   4.412  0.00  0.00    +0.216 C 
ATOM      3  O   UNL     1       1.212   1.986   5.484  0.00  0.00    -0.276 OA
ATOM      4  H   UNL     1       2.253   2.039   2.579  0.00  0.00    +0.149 HD
ENDROOT
BRANCH   2   5
ATOM      5  C   UNL     1       1.389   3.941   4.173  0.00  0.00    +0.075 C 
ATOM      6  C   UNL     1       2.759   4.535   3.842  0.00  0.00    +0.015 C 
ATOM      7  C   UNL     1       2.615   6.037   3.587  0.00  0.00    +0.036 C 
ATOM      8  C   UNL     1       2.036   6.713   4.825  0.00  0.00    +0.112 C 
ATOM      9  C   UNL     1       0.680   6.114   5.183  0.00  0.00    +0.036 C 
ATOM     10  C   UNL     1       0.832   4.611   5.431  0.00  0.00    +0.015 C 
ATOM     11  C   UNL     1       2.991   6.589   5.990  0.00  0.00    +0.244 C 
ATOM     12  O   UNL     1       3.382   5.568   6.513  0.00  0.00    -0.273 OA
ATOM     13  N   UNL     1       3.317   7.855   6.325  0.00  0.00    -0.238 N 
ATOM     14  C   UNL     1       2.703   8.746   5.537  0.00  0.00    +0.307 C 
ATOM     15  O   UNL     1       2.839   9.950   5.645  0.00  0.00    -0.252 OA
ATOM     16  N   UNL     1       1.918   8.161   4.613  0.00  0.00    -0.285 N 
ATOM     17  H   UNL     1       3.921   8.089   7.047  0.00  0.00    +0.159 HD
ATOM     18  H   UNL     1       1.381   8.608   3.940  0.00  0.00    +0.151 HD
ENDBRANCH   2   5
BRANCH   1  19
ATOM     19  C   UNL     1       2.136   0.221   3.668  0.00  0.00    +0.092 C 
BRANCH  19  20
ATOM     20  C   UNL     1       2.570  -0.467   2.372  0.00  0.00    -0.055 C 
ATOM     21  C   UNL     1       2.628  -1.980   2.592  0.00  0.00    -0.008 C 
ATOM     22  C   UNL     1       3.953   0.043   1.963  0.00  0.00    -0.008 C 
BRANCH  20  28
ATOM     23  C   UNL     1      -0.773   1.282   0.483  0.00  0.00    +0.005 C 
ATOM     24  C   UNL     1      -0.756  -0.238   0.650  0.00  0.00    -0.031 C 
ATOM     25  C   UNL     1      -0.373  -0.895  -0.680  0.00  0.00    +0.003 C 
ATOM     26  C   UNL     1       1.048  -0.466  -1.058  0.00  0.00    -0.031 C 
ATOM     27  C   UNL     1       2.007  -0.843   0.073  0.00  0.00    -0.075 C 
ATOM     28  N   UNL     1       1.602  -0.164   1.310  0.00  0.00    +0.384 N 
ATOM     29  C   UNL     1       0.269  -0.624   1.718  0.00  0.00    -0.075 C 
ATOM     30  C   UNL     1       1.470  -1.176  -2.346  0.00  0.00    +0.005 C 
ATOM     31  H   UNL     1       1.579   0.833   1.153  0.00  0.00    -0.081 HD
ENDBRANCH  20  28
ENDBRANCH  19  20
ENDBRANCH   1  19
TORSDOF 4
