REMARK  Name = ZINC37047084
REMARK  3 active torsions:
REMARK  status: ('A' for Active; 'I' for Inactive)
REMARK    1  A    between atoms: C_4  and  N_8
REMARK    2  A    between atoms: C_9  and  C_11
REMARK    3  A    between atoms: C_14  and  O_18
REMARK                            x       y       z     vdW  Elec       q    Type
REMARK                         _______ _______ _______ _____ _____    ______ ____
ROOT
ATOM      1  N   UNL     1       3.622  -0.652  -0.037  0.00  0.00    -0.286 N 
ATOM      2  C   UNL     1       3.646  -1.996   0.058  0.00  0.00    +0.203 C 
ATOM      3  O   UNL     1       2.606  -2.621   0.065  0.00  0.00    -0.277 OA
ATOM      4  H   UNL     1       4.453  -0.156  -0.108  0.00  0.00    +0.155 HD
ENDROOT
BRANCH   1   8
ATOM      5  C   UNL     1      -0.018   1.377  -0.021  0.00  0.00    +0.016 A 
ATOM      6  C   UNL     1       1.092   1.948   0.574  0.00  0.00    +0.018 A 
ATOM      7  C   UNL     1       2.300   1.278   0.571  0.00  0.00    +0.039 A 
ATOM      8  C   UNL     1       2.400   0.029  -0.031  0.00  0.00    +0.048 A 
ATOM      9  C   UNL     1       1.284  -0.541  -0.629  0.00  0.00    +0.039 A 
ATOM     10  C   UNL     1       0.077   0.135  -0.622  0.00  0.00    +0.020 A 
ATOM     11 BR   UNL     1      -1.443  -0.641  -1.435  0.00  0.00    -0.050 Br
ATOM     12 BR   UNL     1       3.818   2.059   1.386  0.00  0.00    -0.048 Br
ENDBRANCH   1   8
BRANCH   2  13
ATOM     13  C   UNL     1       4.963  -2.722   0.154  0.00  0.00    +0.019 C 
ATOM     14  C   UNL     1       5.485  -2.699   1.607  0.00  0.00    +0.023 C 
ATOM     15  C   UNL     1       6.138  -4.080   1.820  0.00  0.00    +0.097 C 
ATOM     16  C   UNL     1       5.954  -4.822   0.479  0.00  0.00    -0.050 C 
ATOM     17  N   UNL     1       4.784  -4.163  -0.159  0.00  0.00    +0.388 N 
ATOM     18  H   UNL     1       3.925  -4.507   0.242  0.00  0.00    -0.085 HD
ATOM     19  H   UNL     1       4.794  -4.311  -1.157  0.00  0.00    -0.085 HD
BRANCH  15  20
ATOM     20  O   UNL     1       7.526  -3.932   2.122  0.00  0.00    -0.394 OA
ATOM     21  H   UNL     1       7.989  -4.768   2.267  0.00  0.00    +0.210 HD
ENDBRANCH  15  20
ENDBRANCH   2  13
TORSDOF 3
