REMARK  Name = ZINC44357910
REMARK  9 active torsions:
REMARK  status: ('A' for Active; 'I' for Inactive)
REMARK    1  A    between atoms: C_1  and  C_2
REMARK    2  A    between atoms: C_2  and  O_3
REMARK    3  A    between atoms: O_3  and  C_4
REMARK    4  A    between atoms: C_4  and  C_6
REMARK    5  A    between atoms: C_6  and  C_8
REMARK    6  A    between atoms: C_6  and  N_18
REMARK    7  A    between atoms: C_8  and  C_9
REMARK    8  A    between atoms: C_11  and  C_17
REMARK    9  A    between atoms: C_14  and  O_15
REMARK                            x       y       z     vdW  Elec       q    Type
REMARK                         _______ _______ _______ _____ _____    ______ ____
ROOT
ATOM      1  C   UNL     1       3.018  -2.409  -2.286  0.00  0.00    +0.033 C 
ENDROOT
BRANCH   1   2
ATOM      2  C   UNL     1       3.795  -2.900  -3.481  0.00  0.00    -0.006 A 
ATOM      3  C   UNL     1       4.044  -4.250  -3.636  0.00  0.00    +0.010 A 
ATOM      4  C   UNL     1       4.756  -4.701  -4.732  0.00  0.00    -0.049 A 
ATOM      5  C   UNL     1       5.221  -3.803  -5.675  0.00  0.00    +0.021 A 
ATOM      6  C   UNL     1       4.974  -2.452  -5.525  0.00  0.00    +0.055 A 
ATOM      7  C   UNL     1       4.255  -1.997  -4.428  0.00  0.00    +0.133 A 
ATOM      8  I   UNL     1       5.678  -1.092  -6.955  0.00  0.00    -0.040 I 
ATOM      9  C   UNL     1       5.027  -6.174  -4.898  0.00  0.00    +0.044 C 
BRANCH   7  10
ATOM     10  O   UNL     1       4.007  -0.669  -4.280  0.00  0.00    -0.505 OA
ATOM     11  H   UNL     1       4.649  -0.209  -3.723  0.00  0.00    +0.292 HD
ENDBRANCH   7  10
ENDBRANCH   1   2
BRANCH   1  12
ATOM     12  C   UNL     1       1.556  -2.194  -2.682  0.00  0.00    +0.040 C 
BRANCH  12  13
ATOM     13  N   UNL     1       0.954  -3.482  -3.051  0.00  0.00    +0.387 N 
ATOM     14  H   UNL     1       0.969  -4.101  -2.254  0.00  0.00    -0.089 HD
ATOM     15  H   UNL     1       0.001  -3.335  -3.346  0.00  0.00    -0.089 HD
ATOM     16  H   UNL     1       1.481  -3.894  -3.807  0.00  0.00    -0.089 HD
ENDBRANCH  12  13
BRANCH  12  17
ATOM     17  C   UNL     1       0.803  -1.603  -1.518  0.00  0.00    +0.293 C 
ATOM     18  O   UNL     1       0.119  -2.312  -0.818  0.00  0.00    -0.253 OA
BRANCH  17  19
ATOM     19  O   UNL     1       0.891  -0.288  -1.259  0.00  0.00    -0.466 OA
BRANCH  19  21
ATOM     20  C   UNL     1       0.373   1.711  -0.005  0.00  0.00    +0.048 C 
ATOM     21  C   UNL     1       0.150   0.204  -0.141  0.00  0.00    +0.228 C 
ENDBRANCH  19  21
ENDBRANCH  17  19
ENDBRANCH  12  17
ENDBRANCH   1  12
TORSDOF 7
