REMARK  Name = ZINC04645197
REMARK  5 active torsions:
REMARK  status: ('A' for Active; 'I' for Inactive)
REMARK    1  A    between atoms: C_9  and  N_26
REMARK    2  A    between atoms: C_10  and  N_13
REMARK    3  A    between atoms: C_14  and  C_16
REMARK    4  A    between atoms: C_16  and  C_17
REMARK    5  A    between atoms: C_17  and  C_18
REMARK                            x       y       z     vdW  Elec       q    Type
REMARK                         _______ _______ _______ _____ _____    ______ ____
ROOT
ATOM      1  C   UNL     1      -3.802   5.885   0.047  0.00  0.00    +0.001 A 
ATOM      2  C   UNL     1      -4.980   5.165   0.056  0.00  0.00    +0.001 A 
ATOM      3  C   UNL     1      -4.956   3.778   0.051  0.00  0.00    +0.012 A 
ATOM      4  C   UNL     1      -3.739   3.109   0.037  0.00  0.00    +0.034 A 
ATOM      5  C   UNL     1      -2.540   3.842   0.027  0.00  0.00    +0.034 A 
ATOM      6  C   UNL     1      -2.579   5.231   0.032  0.00  0.00    +0.012 A 
ATOM      7  C   UNL     1      -1.246   3.122   0.017  0.00  0.00    +0.208 C 
ATOM      8  O   UNL     1      -0.202   3.744   0.013  0.00  0.00    -0.285 OA
ATOM      9  C   UNL     1      -1.230   1.647   0.006  0.00  0.00    +0.082 C 
ATOM     10  C   UNL     1      -2.390   0.941   0.015  0.00  0.00    +0.105 C 
ATOM     11  C   UNL     1      -3.689   1.629   0.031  0.00  0.00    +0.210 C 
ATOM     12  O   UNL     1      -4.720   0.985   0.039  0.00  0.00    -0.285 OA
ENDROOT
BRANCH  10  13
ATOM     13  N   UNL     1      -2.349  -0.453   0.011  0.00  0.00    -0.276 N 
ATOM     14  C   UNL     1      -2.910  -1.147   1.020  0.00  0.00    +0.293 C 
ATOM     15  O   UNL     1      -3.525  -0.565   1.889  0.00  0.00    -0.269 OA
ATOM     16  H   UNL     1      -1.858  -0.986  -0.817  0.00  0.00    +0.155 HD
BRANCH  14  17
ATOM     17  C   UNL     1      -2.773  -2.647   1.071  0.00  0.00    +0.393 C 
ATOM     18  F   UNL     1      -3.775  -3.233   0.289  0.00  0.00    -0.188 F 
ATOM     19  F   UNL     1      -1.519  -3.018   0.575  0.00  0.00    -0.188 F 
BRANCH  17  20
ATOM     20  C   UNL     1      -2.911  -3.124   2.518  0.00  0.00    +0.411 C 
ATOM     21  F   UNL     1      -1.909  -2.538   3.299  0.00  0.00    -0.189 F 
ATOM     22  F   UNL     1      -4.166  -2.753   3.014  0.00  0.00    -0.189 F 
BRANCH  20  23
ATOM     23  C   UNL     1      -2.772  -4.647   2.569  0.00  0.00    +0.461 C 
ATOM     24  F   UNL     1      -1.518  -5.018   2.073  0.00  0.00    -0.165 F 
ATOM     25  F   UNL     1      -2.898  -5.082   3.893  0.00  0.00    -0.165 F 
ATOM     26  F   UNL     1      -3.774  -5.233   1.788  0.00  0.00    -0.165 F 
ENDBRANCH  20  23
ENDBRANCH  17  20
ENDBRANCH  14  17
ENDBRANCH  10  13
BRANCH   9  27
ATOM     27  N   UNL     1      -0.017   0.975  -0.008  0.00  0.00    -0.412 NA
ATOM     28  H   UNL     1      -0.199  -0.110  -0.015  0.00  0.00    +0.121 HD
ATOM     29  H   UNL     1       0.562   1.244   0.887  0.00  0.00    +0.121 HD
ATOM     30  H   UNL     1       0.548   1.257  -0.909  0.00  0.00    +0.121 HD
ENDBRANCH   9  27
TORSDOF 5
