REMARK  Name = ZINC63780947
REMARK  6 active torsions:
REMARK  status: ('A' for Active; 'I' for Inactive)
REMARK    1  A    between atoms: C_6  and  C_11
REMARK    2  A    between atoms: N_13  and  C_14
REMARK    3  A    between atoms: C_14  and  C_15
REMARK    4  A    between atoms: C_15  and  N_16
REMARK    5  A    between atoms: C_17  and  C_19
REMARK    6  A    between atoms: N_21  and  C_22
REMARK                            x       y       z     vdW  Elec       q    Type
REMARK                         _______ _______ _______ _____ _____    ______ ____
ROOT
ATOM      1  C   UNL     1       3.363  -6.202   2.571  0.00  0.00    +0.123 C 
ENDROOT
BRANCH   1   2
ATOM      2  N   UNL     1       3.871  -6.896   3.757  0.00  0.00    -0.306 N 
ATOM      3  C   UNL     1       3.583  -8.198   3.950  0.00  0.00    +0.299 C 
ATOM      4  O   UNL     1       2.903  -8.796   3.141  0.00  0.00    -0.265 OA
ATOM      5  H   UNL     1       4.414  -6.418   4.404  0.00  0.00    +0.149 HD
BRANCH   3   6
ATOM      6  C   UNL     1       4.100  -8.906   5.159  0.00  0.00    +0.303 C 
ATOM      7  O   UNL     1       4.780  -8.309   5.968  0.00  0.00    -0.265 OA
ATOM      8  N   UNL     1       3.812 -10.209   5.352  0.00  0.00    -0.276 N 
ATOM      9  H   UNL     1       3.216 -10.669   4.741  0.00  0.00    +0.155 HD
BRANCH   8  10
ATOM     10  C   UNL     1       4.373 -10.896   6.433  0.00  0.00    +0.052 A 
ATOM     11  C   UNL     1       4.589 -10.240   7.638  0.00  0.00    +0.026 A 
ATOM     12  C   UNL     1       5.143 -10.921   8.704  0.00  0.00    +0.022 A 
ATOM     13  C   UNL     1       5.482 -12.257   8.573  0.00  0.00    +0.042 A 
ATOM     14  C   UNL     1       5.268 -12.914   7.374  0.00  0.00    +0.041 A 
ATOM     15  C   UNL     1       4.709 -12.239   6.305  0.00  0.00    +0.064 A 
ATOM     16 CL   UNL     1       4.434 -13.065   4.804  0.00  0.00    -0.082 Cl
ATOM     17 CL   UNL     1       6.179 -13.109   9.915  0.00  0.00    -0.083 Cl
ENDBRANCH   8  10
ENDBRANCH   3   6
ENDBRANCH   1   2
BRANCH   1  18
ATOM     18  C   UNL     1       3.831  -4.745   2.594  0.00  0.00    +0.123 C 
BRANCH  18  21
ATOM     19  C   UNL     1       3.611  -2.748   1.215  0.00  0.00    +0.239 C 
ATOM     20  O   UNL     1       4.290  -2.151   2.024  0.00  0.00    -0.273 OA
ATOM     21  N   UNL     1       3.323  -4.050   1.408  0.00  0.00    -0.312 N 
ATOM     22  H   UNL     1       2.780  -4.528   0.762  0.00  0.00    +0.149 HD
BRANCH  19  28
ATOM     23  C   UNL     1      -0.079   1.359   0.078  0.00  0.00    +0.001 A 
ATOM     24  C   UNL     1       1.101   2.115   0.067  0.00  0.00    +0.002 A 
ATOM     25  C   UNL     1       2.328   1.552   0.042  0.00  0.00    +0.026 A 
ATOM     26  C   UNL     1       2.469   0.137   0.027  0.00  0.00    +0.043 A 
ATOM     27  N   UNL     1       3.529  -0.634   0.002  0.00  0.00    -0.370 N 
ATOM     28  C   UNL     1       3.089  -2.034  -0.005  0.00  0.00    +0.190 C 
ATOM     29  C   UNL     1       1.578  -1.993   0.020  0.00  0.00    +0.016 C 
ATOM     30  C   UNL     1       1.238  -0.684   0.038  0.00  0.00    -0.004 A 
ATOM     31  C   UNL     1      -0.057   0.007   0.065  0.00  0.00    +0.010 A 
ATOM     32  H   UNL     1       4.450  -0.330  -0.010  0.00  0.00    +0.161 HD
ENDBRANCH  19  28
ENDBRANCH  18  21
ENDBRANCH   1  18
TORSDOF 6
