REMARK  Name = ZINC44178696
REMARK  9 active torsions:
REMARK  status: ('A' for Active; 'I' for Inactive)
REMARK    1  A    between atoms: C_1  and  C_2
REMARK    2  A    between atoms: C_2  and  C_3
REMARK    3  A    between atoms: C_3  and  C_5
REMARK    4  A    between atoms: C_3  and  N_21
REMARK    5  A    between atoms: C_5  and  N_6
REMARK    6  A    between atoms: N_9  and  C_10
REMARK    7  A    between atoms: C_15  and  C_16
REMARK    8  A    between atoms: C_16  and  C_17
REMARK    9  A    between atoms: N_19  and  C_20
REMARK                            x       y       z     vdW  Elec       q    Type
REMARK                         _______ _______ _______ _____ _____    ______ ____
ROOT
ATOM      1  N   UNL     1       1.395  -2.525  -2.459  0.00  0.00    -0.301 N 
ATOM      2  C   UNL     1       1.393  -3.836  -2.772  0.00  0.00    +0.304 C 
ATOM      3  O   UNL     1       0.620  -4.592  -2.218  0.00  0.00    -0.253 OA
ATOM      4  N   UNL     1       2.250  -4.308  -3.699  0.00  0.00    -0.269 N 
ATOM      5  H   UNL     1       2.013  -1.921  -2.901  0.00  0.00    +0.150 HD
ATOM      6  H   UNL     1       2.913  -3.719  -4.093  0.00  0.00    +0.156 HD
ENDROOT
BRANCH   4   7
ATOM      7  C   UNL     1       2.183  -5.649  -4.095  0.00  0.00    +0.038 A 
ATOM      8  C   UNL     1       1.687  -6.608  -3.222  0.00  0.00    +0.023 A 
ATOM      9  C   UNL     1       1.621  -7.930  -3.616  0.00  0.00    +0.002 A 
ATOM     10  C   UNL     1       2.050  -8.299  -4.878  0.00  0.00    +0.000 A 
ATOM     11  C   UNL     1       2.545  -7.347  -5.749  0.00  0.00    +0.006 A 
ATOM     12  C   UNL     1       2.607  -6.022  -5.364  0.00  0.00    -0.017 A 
BRANCH  12  13
ATOM     13  C   UNL     1       3.141  -4.983  -6.316  0.00  0.00    +0.132 C 
BRANCH  13  14
ATOM     14  C   UNL     1       4.607  -4.762  -6.049  0.00  0.00    +0.217 C 
ATOM     15  O   UNL     1       5.164  -5.387  -5.171  0.00  0.00    -0.275 OA
ATOM     16  N   UNL     1       5.300  -3.871  -6.785  0.00  0.00    -0.318 N 
ATOM     17  C   UNL     1       6.726  -3.656  -6.525  0.00  0.00    +0.128 C 
ATOM     18  H   UNL     1       4.854  -3.371  -7.487  0.00  0.00    +0.148 HD
ENDBRANCH  13  14
ENDBRANCH  12  13
ENDBRANCH   4   7
BRANCH   1  19
ATOM     19  C   UNL     1       0.464  -2.011  -1.451  0.00  0.00    +0.090 C 
BRANCH  19  20
ATOM     20  C   UNL     1       0.797  -0.549  -1.147  0.00  0.00    -0.051 C 
BRANCH  20  21
ATOM     21  N   UNL     1       2.076  -0.477  -0.429  0.00  0.00    +0.385 N 
ATOM     22  C   UNL     1       3.141  -1.059  -1.261  0.00  0.00    -0.073 C 
ATOM     23  C   UNL     1       4.493  -0.702  -0.642  0.00  0.00    +0.017 C 
ATOM     24  C   UNL     1       4.495  -1.061   0.822  0.00  0.00    -0.048 A 
ATOM     25  C   UNL     1       5.709  -1.144   1.486  0.00  0.00    +0.004 A 
ATOM     26  C   UNL     1       5.749  -1.468   2.827  0.00  0.00    +0.000 A 
ATOM     27  C   UNL     1       4.573  -1.709   3.512  0.00  0.00    +0.000 A 
ATOM     28  C   UNL     1       3.363  -1.627   2.852  0.00  0.00    +0.002 A 
ATOM     29  C   UNL     1       3.321  -1.304   1.504  0.00  0.00    -0.061 A 
ATOM     30  C   UNL     1       1.980  -1.235   0.822  0.00  0.00    -0.042 C 
ATOM     31  H   UNL     1       2.295   0.486  -0.224  0.00  0.00    -0.081 HD
ENDBRANCH  20  21
BRANCH  20  33
ATOM     32  C   UNL     1      -0.013   1.537  -0.037  0.00  0.00    +0.002 C 
ATOM     33  C   UNL     1      -0.309   0.056  -0.281  0.00  0.00    -0.017 C 
ENDBRANCH  20  33
ENDBRANCH  19  20
ENDBRANCH   1  19
TORSDOF 7
