REMARK  Name = ZINC35907838
REMARK  10 active torsions:
REMARK  status: ('A' for Active; 'I' for Inactive)
REMARK    1  A    between atoms: C_1  and  C_2
REMARK    2  A    between atoms: C_2  and  C_3
REMARK    3  A    between atoms: C_2  and  C_4
REMARK    4  A    between atoms: C_4  and  C_5
REMARK    5  A    between atoms: C_5  and  N_6
REMARK    6  A    between atoms: C_7  and  C_9
REMARK    7  A    between atoms: C_14  and  C_33
REMARK    8  A    between atoms: N_22  and  C_25
REMARK    9  A    between atoms: C_30  and  O_31
REMARK   10  A    between atoms: O_31  and  C_32
REMARK                            x       y       z     vdW  Elec       q    Type
REMARK                         _______ _______ _______ _____ _____    ______ ____
ROOT
ATOM      1  C   UNL     1      -4.435  -4.410  -0.207  0.00  0.00    +0.101 C 
ATOM      2  C   UNL     1      -5.110  -4.017   1.106  0.00  0.00    +0.051 C 
ATOM      3  C   UNL     1      -4.387  -4.691   2.243  0.00  0.00    -0.025 A 
ATOM      4  C   UNL     1      -4.364  -4.091   3.489  0.00  0.00    +0.017 A 
ATOM      5  C   UNL     1      -3.694  -4.697   4.535  0.00  0.00    +0.055 A 
ATOM      6  C   UNL     1      -3.046  -5.903   4.339  0.00  0.00    +0.014 A 
ATOM      7  C   UNL     1      -3.070  -6.507   3.098  0.00  0.00    +0.024 A 
ATOM      8  C   UNL     1      -3.749  -5.901   2.044  0.00  0.00    +0.033 A 
ATOM      9  N   UNL     1      -3.776  -6.555   0.799  0.00  0.00    -0.323 N 
ATOM     10  C   UNL     1      -4.415  -5.935  -0.346  0.00  0.00    +0.103 C 
ATOM     11  C   UNL     1      -3.751  -6.287  -1.668  0.00  0.00    +0.128 C 
ATOM     12  N   UNL     1      -3.183  -7.620  -1.680  0.00  0.00    -0.324 N 
ATOM     13  C   UNL     1      -2.466  -8.175  -0.544  0.00  0.00    +0.124 C 
ATOM     14  C   UNL     1      -3.184  -7.891   0.752  0.00  0.00    +0.124 C 
ENDROOT
BRANCH  12  15
ATOM     15  C   UNL     1      -3.331  -8.403  -2.831  0.00  0.00    +0.072 A 
ATOM     16  C   UNL     1      -2.373  -8.355  -3.833  0.00  0.00    +0.027 A 
ATOM     17  C   UNL     1      -2.521  -9.130  -4.968  0.00  0.00    +0.002 A 
ATOM     18  C   UNL     1      -3.622  -9.954  -5.107  0.00  0.00    +0.004 A 
ATOM     19  C   UNL     1      -4.581 -10.008  -4.112  0.00  0.00    +0.047 A 
ATOM     20  C   UNL     1      -4.437  -9.239  -2.970  0.00  0.00    +0.141 A 
BRANCH  20  21
ATOM     21  O   UNL     1      -5.377  -9.294  -1.988  0.00  0.00    -0.493 OA
ATOM     22  C   UNL     1      -6.484 -10.172  -2.199  0.00  0.00    +0.277 C 
ENDBRANCH  20  21
ENDBRANCH  12  15
BRANCH   1  24
ATOM     23  N   UNL     1      -2.790  -2.565  -0.111  0.00  0.00    -0.315 N 
ATOM     24  C   UNL     1      -3.021  -3.888  -0.217  0.00  0.00    +0.218 C 
ATOM     25  O   UNL     1      -2.091  -4.660  -0.322  0.00  0.00    -0.275 OA
ATOM     26  H   UNL     1      -3.534  -1.948  -0.027  0.00  0.00    +0.149 HD
BRANCH  23  27
ATOM     27  C   UNL     1      -1.416  -2.058  -0.121  0.00  0.00    +0.104 C 
BRANCH  27  28
ATOM     28  C   UNL     1      -1.433  -0.534   0.013  0.00  0.00    +0.022 C 
BRANCH  28  30
ATOM     29  C   UNL     1      -0.019   1.526   0.010  0.00  0.00    +0.007 C 
ATOM     30  C   UNL     1       0.002  -0.004   0.002  0.00  0.00    -0.016 C 
ATOM     31  C   UNL     1       0.742  -0.511   1.242  0.00  0.00    +0.007 C 
ENDBRANCH  28  30
ENDBRANCH  27  28
ENDBRANCH  23  27
ENDBRANCH   1  24
BRANCH   5  32
ATOM     32  C   UNL     1      -3.670  -4.042   5.892  0.00  0.00    +0.417 C 
ATOM     33  F   UNL     1      -4.764  -4.485   6.644  0.00  0.00    -0.166 F 
ATOM     34  F   UNL     1      -2.484  -4.380   6.552  0.00  0.00    -0.166 F 
ATOM     35  F   UNL     1      -3.740  -2.653   5.741  0.00  0.00    -0.166 F 
ENDBRANCH   5  32
TORSDOF 7
