REMARK  Name = ZINC06380521
REMARK  14 active torsions:
REMARK  status: ('A' for Active; 'I' for Inactive)
REMARK    1  A    between atoms: C_1  and  C_2
REMARK    2  A    between atoms: C_2  and  C_3
REMARK    3  A    between atoms: C_3  and  N_48
REMARK    4  A    between atoms: C_4  and  C_6
REMARK    5  A    between atoms: C_4  and  C_21
REMARK    6  A    between atoms: C_4  and  N_48
REMARK    7  A    between atoms: C_9  and  C_12
REMARK    8  A    between atoms: N_13  and  C_14
REMARK    9  A    between atoms: C_14  and  C_15
REMARK   10  A    between atoms: C_14  and  C_17
REMARK   11  A    between atoms: C_14  and  C_19
REMARK   12  A    between atoms: C_15  and  C_16
REMARK   13  A    between atoms: C_17  and  O_18
REMARK   14  A    between atoms: C_19  and  O_20
REMARK                            x       y       z     vdW  Elec       q    Type
REMARK                         _______ _______ _______ _____ _____    ______ ____
ROOT
ATOM      1  C   UNL     1      -0.606   0.517  -4.851  0.00  0.00    -0.057 A 
ATOM      2  C   UNL     1       0.599  -0.099  -5.139  0.00  0.00    +0.003 A 
ATOM      3  C   UNL     1       0.684  -1.005  -6.176  0.00  0.00    +0.009 A 
ATOM      4  C   UNL     1      -0.447  -1.290  -6.944  0.00  0.00    -0.007 A 
ATOM      5  C   UNL     1      -1.659  -0.660  -6.651  0.00  0.00    +0.009 A 
ATOM      6  C   UNL     1      -1.731   0.239  -5.607  0.00  0.00    +0.003 A 
ENDROOT
BRANCH   4   7
ATOM      7  C   UNL     1      -0.363  -2.253  -8.059  0.00  0.00    +0.113 C 
ATOM      8  N   UNL     1       0.761  -2.835  -8.327  0.00  0.00    -0.280 NA
BRANCH   8   9
ATOM      9  C   UNL     1       0.844  -3.791  -9.434  0.00  0.00    +0.107 C 
BRANCH   9  10
ATOM     10  C   UNL     1       2.273  -4.330  -9.536  0.00  0.00    +0.031 C 
ATOM     11  C   UNL     1       2.361  -5.328 -10.691  0.00  0.00    +0.006 C 
ENDBRANCH   9  10
BRANCH   9  12
ATOM     12  C   UNL     1      -0.121  -4.951  -9.181  0.00  0.00    +0.188 C 
BRANCH  12  13
ATOM     13  O   UNL     1       0.156  -5.531  -7.904  0.00  0.00    -0.393 OA
ATOM     14  H   UNL     1      -0.419  -6.274  -7.677  0.00  0.00    +0.209 HD
ENDBRANCH  12  13
ENDBRANCH   9  12
BRANCH   9  15
ATOM     15  C   UNL     1       0.469  -3.091 -10.742  0.00  0.00    +0.188 C 
BRANCH  15  16
ATOM     16  O   UNL     1       1.371  -2.008 -10.979  0.00  0.00    -0.393 OA
ATOM     17  H   UNL     1       1.192  -1.518 -11.793  0.00  0.00    +0.209 HD
ENDBRANCH  15  16
ENDBRANCH   9  15
ENDBRANCH   8   9
ENDBRANCH   4   7
BRANCH   1  18
ATOM     18  C   UNL     1      -0.692   1.501  -3.712  0.00  0.00    +0.011 C 
BRANCH  18  19
ATOM     19  C   UNL     1      -0.143   2.855  -4.166  0.00  0.00    +0.183 C 
ATOM     20 CL   UNL     1       1.616   2.699  -4.529  0.00  0.00    -0.085 Cl
ATOM     21 CL   UNL     1      -1.017   3.393  -5.648  0.00  0.00    -0.085 Cl
ATOM     22 CL   UNL     1      -0.381   4.069  -2.854  0.00  0.00    -0.085 Cl
ENDBRANCH  18  19
BRANCH  18  23
ATOM     23  N   UNL     1       0.109   1.009  -2.575  0.00  0.00    +0.386 N 
ATOM     24  H   UNL     1       0.936   0.516  -2.932  0.00  0.00    -0.085 HD
ATOM     25  H   UNL     1       0.406   1.807  -2.001  0.00  0.00    -0.085 HD
BRANCH  23  26
ATOM     26  C   UNL     1      -0.689   0.085  -1.748  0.00  0.00    -0.082 C 
BRANCH  26  28
ATOM     27  C   UNL     1      -0.618  -1.468   0.208  0.00  0.00    +0.002 C 
ATOM     28  C   UNL     1       0.203  -0.508  -0.656  0.00  0.00    -0.022 C 
ENDBRANCH  26  28
ENDBRANCH  23  26
ENDBRANCH  18  23
ENDBRANCH   1  18
TORSDOF 12
