REMARK  Name = ZINC63067914
REMARK  8 active torsions:
REMARK  status: ('A' for Active; 'I' for Inactive)
REMARK    1  A    between atoms: C_1  and  O_2
REMARK    2  A    between atoms: O_2  and  C_3
REMARK    3  A    between atoms: C_6  and  C_9
REMARK    4  A    between atoms: C_12  and  C_24
REMARK    5  A    between atoms: N_15  and  C_16
REMARK    6  A    between atoms: N_26  and  C_27
REMARK    7  A    between atoms: C_27  and  C_28
REMARK    8  A    between atoms: C_28  and  C_29
REMARK                            x       y       z     vdW  Elec       q    Type
REMARK                         _______ _______ _______ _____ _____    ______ ____
ROOT
ATOM      1  C   UNL     1       2.603  -2.558   4.316  0.00  0.00    +0.105 C 
ATOM      2  C   UNL     1       3.996  -3.067   3.881  0.00  0.00    +0.054 C 
ATOM      3  C   UNL     1       4.084  -4.447   4.583  0.00  0.00    +0.157 C 
ATOM      4  N   UNL     1       2.682  -4.933   4.498  0.00  0.00    -0.241 NA
ATOM      5  N   UNL     1       1.837  -3.757   4.712  0.00  0.00    -0.230 NA
ATOM      6  H   UNL     1       2.501  -5.639   5.197  0.00  0.00    +0.142 HD
ENDROOT
BRANCH   5   7
ATOM      7  C   UNL     1       1.404  -3.666   6.113  0.00  0.00    +0.096 C 
ATOM      8  C   UNL     1       0.599  -4.920   6.490  0.00  0.00    +0.044 C 
ATOM      9  C   UNL     1      -0.126  -4.696   7.839  0.00  0.00    +0.167 C 
ATOM     10  S   UNL     1      -0.375  -2.874   7.866  0.00  0.00    -0.029 S 
ATOM     11  O   UNL     1       0.346  -2.325   8.960  0.00  0.00    -0.174 OA
ATOM     12  O   UNL     1      -1.762  -2.595   7.731  0.00  0.00    -0.174 OA
ATOM     13  C   UNL     1       0.482  -2.426   6.298  0.00  0.00    +0.186 C 
ENDBRANCH   5   7
BRANCH   1  17
ATOM     14  C   UNL     1       0.670  -0.588   1.053  0.00  0.00    +0.120 A 
ATOM     15  C   UNL     1       1.256   0.157   2.067  0.00  0.00    +0.046 A 
ATOM     16  C   UNL     1       1.880  -0.482   3.120  0.00  0.00    +0.009 A 
ATOM     17  C   UNL     1       1.921  -1.863   3.166  0.00  0.00    -0.029 A 
ATOM     18  C   UNL     1       1.339  -2.608   2.156  0.00  0.00    +0.009 A 
ATOM     19  C   UNL     1       0.709  -1.974   1.104  0.00  0.00    +0.046 A 
BRANCH  14  21
ATOM     20  C   UNL     1       0.055   1.468   0.029  0.00  0.00    +0.277 C 
ATOM     21  O   UNL     1       0.056   0.039   0.016  0.00  0.00    -0.495 OA
ENDBRANCH  14  21
ENDBRANCH   1  17
BRANCH   3  22
ATOM     22  C   UNL     1       5.021  -5.366   3.843  0.00  0.00    +0.231 C 
ATOM     23  O   UNL     1       4.576  -6.210   3.094  0.00  0.00    -0.274 OA
ATOM     24  N   UNL     1       6.353  -5.251   4.014  0.00  0.00    -0.314 N 
ATOM     25  H   UNL     1       6.708  -4.577   4.613  0.00  0.00    +0.149 HD
BRANCH  24  26
ATOM     26  C   UNL     1       7.263  -6.145   3.294  0.00  0.00    +0.108 C 
BRANCH  26  27
ATOM     27  C   UNL     1       8.709  -5.806   3.664  0.00  0.00    +0.065 C 
BRANCH  27  28
ATOM     28  C   UNL     1       9.660  -6.739   2.912  0.00  0.00    +0.175 C 
ATOM     29  N   UNL     1       9.622  -6.446   1.474  0.00  0.00    -0.363 N 
ATOM     30  C   UNL     1      10.822  -6.089   1.117  0.00  0.00    +0.060 A 
ATOM     31  C   UNL     1      11.401  -5.683  -0.171  0.00  0.00    +0.027 A 
ATOM     32  C   UNL     1      12.708  -5.361  -0.240  0.00  0.00    +0.002 A 
ATOM     33  C   UNL     1      13.558  -5.397   0.880  0.00  0.00    +0.002 A 
ATOM     34  C   UNL     1      13.129  -5.755   2.106  0.00  0.00    +0.027 A 
ATOM     35  C   UNL     1      11.721  -6.127   2.302  0.00  0.00    +0.060 A 
ATOM     36  N   UNL     1      11.043  -6.506   3.346  0.00  0.00    -0.363 N 
ATOM     37  H   UNL     1       8.845  -6.508   0.896  0.00  0.00    +0.162 HD
ATOM     38  H   UNL     1      11.388  -6.614   4.247  0.00  0.00    +0.162 HD
ENDBRANCH  27  28
ENDBRANCH  26  27
ENDBRANCH  24  26
ENDBRANCH   3  22
TORSDOF 7
