REMARK  Name = ZINC20558818
REMARK  5 active torsions:
REMARK  status: ('A' for Active; 'I' for Inactive)
REMARK    1  A    between atoms: C_1  and  C_2
REMARK    2  A    between atoms: C_5  and  C_8
REMARK    3  A    between atoms: C_8  and  N_9
REMARK    4  A    between atoms: C_21  and  N_22
REMARK    5  A    between atoms: N_22  and  C_23
REMARK                            x       y       z     vdW  Elec       q    Type
REMARK                         _______ _______ _______ _____ _____    ______ ____
ROOT
ATOM      1  N   UNL     1       1.447  -4.746  -0.032  0.00  0.00    -0.198 N 
ATOM      2  C   UNL     1       2.154  -4.865  -1.227  0.00  0.00    +0.062 A 
ATOM      3  C   UNL     1       1.451  -5.199  -2.381  0.00  0.00    +0.025 A 
ATOM      4  C   UNL     1       2.111  -5.330  -3.584  0.00  0.00    +0.002 A 
ATOM      5  C   UNL     1       3.481  -5.131  -3.652  0.00  0.00    +0.001 A 
ATOM      6  C   UNL     1       4.191  -4.800  -2.522  0.00  0.00    +0.013 A 
ATOM      7  C   UNL     1       3.536  -4.660  -1.289  0.00  0.00    +0.046 A 
ATOM      8  C   UNL     1       4.344  -4.298  -0.110  0.00  0.00    +0.216 C 
ATOM      9  C   UNL     1       3.852  -4.482   1.206  0.00  0.00    +0.169 C 
ATOM     10  S   UNL     1       2.225  -5.146   1.384  0.00  0.00    +0.080 S 
ATOM     11  O   UNL     1       2.356  -6.561   1.400  0.00  0.00    -0.150 OA
ATOM     12  O   UNL     1       1.591  -4.419   2.427  0.00  0.00    -0.150 OA
ATOM     13  C   UNL     1       4.598  -4.158   2.285  0.00  0.00    +0.105 C 
ATOM     14  O   UNL     1       5.458  -3.831  -0.270  0.00  0.00    -0.285 OA
ENDROOT
BRANCH  13  15
ATOM     15  N   UNL     1       4.099  -4.347   3.542  0.00  0.00    -0.319 N 
ATOM     16  H   UNL     1       3.208  -4.713   3.660  0.00  0.00    +0.152 HD
BRANCH  15  17
ATOM     17  C   UNL     1       4.871  -4.011   4.660  0.00  0.00    +0.033 A 
ATOM     18  C   UNL     1       6.144  -3.482   4.478  0.00  0.00    +0.024 A 
ATOM     19  C   UNL     1       6.901  -3.153   5.588  0.00  0.00    +0.019 A 
ATOM     20  C   UNL     1       6.384  -3.354   6.847  0.00  0.00    +0.037 A 
ATOM     21  C   UNL     1       5.110  -3.884   7.065  0.00  0.00    +0.051 A 
ATOM     22  C   UNL     1       4.355  -4.206   5.926  0.00  0.00    +0.047 A 
ATOM     23  N   UNL     1       4.706  -4.037   8.401  0.00  0.00    -0.279 N 
ATOM     24  C   UNL     1       3.478  -4.542   9.075  0.00  0.00    +0.134 C 
ATOM     25  C   UNL     1       3.790  -4.395  10.572  0.00  0.00    +0.134 C 
ATOM     26  N   UNL     1       5.143  -3.830  10.600  0.00  0.00    -0.366 N 
ATOM     27  C   UNL     1       5.577  -3.662   9.390  0.00  0.00    +0.140 C 
ATOM     28  S   UNL     1       7.002  -3.077   8.488  0.00  0.00    -0.054 S 
ATOM     29  H   UNL     1       5.640  -3.613  11.405  0.00  0.00    +0.161 HD
ENDBRANCH  15  17
ENDBRANCH  13  15
BRANCH   1  30
ATOM     30  C   UNL     1       0.059  -4.275  -0.021  0.00  0.00    +0.166 C 
BRANCH  30  35
ATOM     31  C   UNL     1      -0.018   1.503   0.010  0.00  0.00    +0.044 C 
ATOM     32  C   UNL     1       0.002  -0.004   0.002  0.00  0.00    -0.050 A 
ATOM     33  C   UNL     1       0.006  -0.689  -1.199  0.00  0.00    +0.003 A 
ATOM     34  C   UNL     1       0.025  -2.071  -1.206  0.00  0.00    +0.005 A 
ATOM     35  C   UNL     1       0.040  -2.768  -0.013  0.00  0.00    -0.028 A 
ATOM     36  C   UNL     1       0.037  -2.084   1.188  0.00  0.00    +0.005 A 
ATOM     37  C   UNL     1       0.023  -0.702   1.195  0.00  0.00    +0.003 A 
ENDBRANCH  30  35
ENDBRANCH   1  30
TORSDOF 4
