REMARK  Name = ZINC13733295
REMARK  14 active torsions:
REMARK  status: ('A' for Active; 'I' for Inactive)
REMARK    1  A    between atoms: C_1  and  O_2
REMARK    2  A    between atoms: O_2  and  C_3
REMARK    3  A    between atoms: C_7  and  C_17
REMARK    4  A    between atoms: C_8  and  O_9
REMARK    5  A    between atoms: O_9  and  C_10
REMARK    6  A    between atoms: C_10  and  C_11
REMARK    7  A    between atoms: C_17  and  N_50
REMARK    8  A    between atoms: C_18  and  C_19
REMARK    9  A    between atoms: C_18  and  N_50
REMARK   10  A    between atoms: C_19  and  C_20
REMARK   11  A    between atoms: C_20  and  N_53
REMARK   12  A    between atoms: C_21  and  C_22
REMARK   13  A    between atoms: C_21  and  N_53
REMARK   14  A    between atoms: C_22  and  O_23
REMARK                            x       y       z     vdW  Elec       q    Type
REMARK                         _______ _______ _______ _____ _____    ______ ____
ROOT
ATOM      1  C   UNL     1       0.002  -0.004   0.002  0.00  0.00    +0.163 A 
ATOM      2  C   UNL     1      -0.017   1.381   0.010  0.00  0.00    +0.064 A 
ATOM      3  C   UNL     1       1.172   2.089   0.002  0.00  0.00    +0.022 A 
ATOM      4  C   UNL     1       2.380   1.416  -0.013  0.00  0.00    +0.020 A 
ATOM      5  C   UNL     1       2.405   0.034  -0.021  0.00  0.00    -0.018 A 
ATOM      6  C   UNL     1       1.218  -0.680  -0.013  0.00  0.00    +0.164 A 
ATOM      7 BR   UNL     1       1.144   3.980   0.012  0.00  0.00    -0.050 Br
ENDROOT
BRANCH   1   9
ATOM      8  C   UNL     1      -2.375   0.059   0.024  0.00  0.00    +0.277 C 
ATOM      9  O   UNL     1      -1.165  -0.701   0.009  0.00  0.00    -0.491 OA
ENDBRANCH   1   9
BRANCH   6  10
ATOM     10  O   UNL     1       1.241  -2.040  -0.021  0.00  0.00    -0.484 OA
BRANCH  10  11
ATOM     11  C   UNL     1       1.240  -2.682  -1.298  0.00  0.00    +0.264 C 
BRANCH  11  12
ATOM     12  C   UNL     1       1.268  -4.177  -1.109  0.00  0.00    -0.010 A 
ATOM     13  C   UNL     1       2.477  -4.843  -1.040  0.00  0.00    +0.007 A 
ATOM     14  C   UNL     1       2.502  -6.213  -0.861  0.00  0.00    +0.000 A 
ATOM     15  C   UNL     1       1.318  -6.919  -0.764  0.00  0.00    +0.000 A 
ATOM     16  C   UNL     1       0.108  -6.254  -0.839  0.00  0.00    +0.000 A 
ATOM     17  C   UNL     1       0.083  -4.883  -1.012  0.00  0.00    +0.007 A 
ENDBRANCH  11  12
ENDBRANCH  10  11
ENDBRANCH   6  10
BRANCH   5  18
ATOM     18  C   UNL     1       3.724  -0.696  -0.037  0.00  0.00    -0.043 C 
BRANCH  18  19
ATOM     19  N   UNL     1       4.016  -1.134  -1.415  0.00  0.00    +0.382 N 
ATOM     20  H   UNL     1       4.065  -0.312  -2.029  0.00  0.00    -0.085 HD
ATOM     21  H   UNL     1       3.268  -1.759  -1.738  0.00  0.00    -0.085 HD
BRANCH  19  22
ATOM     22  C   UNL     1       5.304  -1.853  -1.461  0.00  0.00    -0.084 C 
BRANCH  22  23
ATOM     23  C   UNL     1       5.580  -2.294  -2.900  0.00  0.00    -0.038 C 
BRANCH  23  24
ATOM     24  C   UNL     1       6.914  -3.041  -2.957  0.00  0.00    -0.084 C 
BRANCH  24  25
ATOM     25  N   UNL     1       7.173  -3.463  -4.346  0.00  0.00    +0.380 N 
ATOM     26  H   UNL     1       7.211  -2.634  -4.950  0.00  0.00    -0.086 HD
ATOM     27  H   UNL     1       6.414  -4.080  -4.660  0.00  0.00    -0.086 HD
BRANCH  25  28
ATOM     28  C   UNL     1       8.455  -4.187  -4.431  0.00  0.00    -0.054 C 
BRANCH  28  29
ATOM     29  C   UNL     1       8.696  -4.612  -5.881  0.00  0.00    +0.137 C 
BRANCH  29  30
ATOM     30  O   UNL     1       8.859  -3.450  -6.697  0.00  0.00    -0.397 OA
ATOM     31  H   UNL     1       9.016  -3.644  -7.631  0.00  0.00    +0.209 HD
ENDBRANCH  29  30
ENDBRANCH  28  29
ENDBRANCH  25  28
ENDBRANCH  24  25
ENDBRANCH  23  24
ENDBRANCH  22  23
ENDBRANCH  19  22
ENDBRANCH  18  19
ENDBRANCH   5  18
TORSDOF 13
