REMARK  Name = ZINC39534626
REMARK  13 active torsions:
REMARK  status: ('A' for Active; 'I' for Inactive)
REMARK    1  A    between atoms: C_1  and  C_2
REMARK    2  A    between atoms: C_2  and  O_3
REMARK    3  A    between atoms: O_3  and  C_4
REMARK    4  A    between atoms: N_7  and  C_11
REMARK    5  A    between atoms: C_11  and  C_13
REMARK    6  A    between atoms: C_11  and  C_22
REMARK    7  A    between atoms: C_13  and  N_14
REMARK    8  A    between atoms: N_14  and  C_15
REMARK    9  A    between atoms: C_20  and  O_21
REMARK   10  A    between atoms: C_25  and  S_28
REMARK   11  A    between atoms: S_28  and  C_31
REMARK   12  A    between atoms: C_31  and  C_32
REMARK   13  A    between atoms: C_31  and  C_33
REMARK                            x       y       z     vdW  Elec       q    Type
REMARK                         _______ _______ _______ _____ _____    ______ ____
ROOT
ATOM      1  C   UNL     1       2.732  -4.130   3.546  0.00  0.00    -0.020 C 
ENDROOT
BRANCH   1   4
ATOM      2  C   UNL     1       1.151  -1.946   0.935  0.00  0.00    +0.169 C 
ATOM      3  C   UNL     1       1.981  -2.318   2.165  0.00  0.00    -0.029 C 
ATOM      4  N   UNL     1       1.921  -3.771   2.376  0.00  0.00    +0.389 N 
ATOM      5  C   UNL     1       0.528  -4.177   2.603  0.00  0.00    -0.062 C 
ATOM      6  C   UNL     1      -0.314  -3.820   1.376  0.00  0.00    +0.065 C 
ATOM      7  N   UNL     1      -0.241  -2.371   1.139  0.00  0.00    -0.295 NA
ATOM      8  H   UNL     1      -0.668  -1.859   1.896  0.00  0.00    +0.124 HD
ATOM      9  H   UNL     1       2.280  -4.244   1.560  0.00  0.00    -0.081 HD
BRANCH   2  10
ATOM     10  O   UNL     1       1.194  -0.531   0.741  0.00  0.00    -0.364 OA
BRANCH  10  12
ATOM     11  C   UNL     1       0.739   1.427  -0.601  0.00  0.00    +0.034 C 
ATOM     12  C   UNL     1       0.641  -0.097  -0.503  0.00  0.00    +0.158 C 
ENDBRANCH  10  12
ENDBRANCH   2  10
ENDBRANCH   1   4
BRANCH   1  13
ATOM     13  C   UNL     1       4.154  -3.680   3.329  0.00  0.00    -0.059 A 
ATOM     14  C   UNL     1       4.738  -3.812   2.083  0.00  0.00    +0.004 A 
ATOM     15  C   UNL     1       6.043  -3.399   1.884  0.00  0.00    +0.027 A 
ATOM     16  C   UNL     1       6.762  -2.853   2.931  0.00  0.00    +0.088 A 
ATOM     17  C   UNL     1       6.178  -2.720   4.176  0.00  0.00    +0.027 A 
ATOM     18  C   UNL     1       4.872  -3.129   4.375  0.00  0.00    +0.004 A 
BRANCH  16  19
ATOM     19  S   UNL     1       8.425  -2.328   2.677  0.00  0.00    -0.001 S 
ATOM     20  O   UNL     1       9.033  -2.419   3.958  0.00  0.00    -0.169 OA
ATOM     21  O   UNL     1       8.894  -3.120   1.595  0.00  0.00    -0.169 OA
BRANCH  19  22
ATOM     22  C   UNL     1       8.293  -0.591   2.171  0.00  0.00    +0.130 C 
ATOM     23  C   UNL     1       9.680  -0.061   1.801  0.00  0.00    +0.032 C 
ATOM     24  C   UNL     1       7.365  -0.483   0.959  0.00  0.00    +0.032 C 
ENDBRANCH  19  22
ENDBRANCH  16  19
ENDBRANCH   1  13
BRANCH   1  25
ATOM     25  C   UNL     1       2.702  -5.647   3.742  0.00  0.00    +0.091 C 
BRANCH  25  26
ATOM     26  N   UNL     1       3.446  -5.998   4.954  0.00  0.00    -0.342 N 
ATOM     27  H   UNL     1       3.796  -5.299   5.528  0.00  0.00    +0.146 HD
BRANCH  26  28
ATOM     28  C   UNL     1       3.650  -7.343   5.285  0.00  0.00    +0.069 A 
ATOM     29  C   UNL     1       3.154  -8.344   4.464  0.00  0.00    +0.026 A 
ATOM     30  C   UNL     1       3.357  -9.671   4.793  0.00  0.00    +0.002 A 
ATOM     31  C   UNL     1       4.054 -10.004   5.939  0.00  0.00    +0.004 A 
ATOM     32  C   UNL     1       4.552  -9.011   6.763  0.00  0.00    +0.047 A 
ATOM     33  C   UNL     1       4.357  -7.678   6.438  0.00  0.00    +0.138 A 
BRANCH  33  34
ATOM     34  O   UNL     1       4.850  -6.701   7.245  0.00  0.00    -0.505 OA
ATOM     35  H   UNL     1       4.239  -6.419   7.940  0.00  0.00    +0.292 HD
ENDBRANCH  33  34
ENDBRANCH  26  28
ENDBRANCH  25  26
ENDBRANCH   1  25
TORSDOF 10
