REMARK  Name = ZINC34698086
REMARK  7 active torsions:
REMARK  status: ('A' for Active; 'I' for Inactive)
REMARK    1  A    between atoms: C_4  and  N_7
REMARK    2  A    between atoms: N_10  and  C_13
REMARK    3  A    between atoms: C_13  and  C_14
REMARK    4  A    between atoms: C_19  and  C_21
REMARK    5  A    between atoms: C_25  and  C_27
REMARK    6  A    between atoms: C_31  and  C_33
REMARK    7  A    between atoms: C_33  and  C_34
REMARK                            x       y       z     vdW  Elec       q    Type
REMARK                         _______ _______ _______ _____ _____    ______ ____
ROOT
ATOM      1  C   UNL     1       7.246  -3.986  -1.550  0.00  0.00    -0.001 C 
ATOM      2  C   UNL     1       5.971  -4.807  -1.843  0.00  0.00    +0.110 C 
ATOM      3  N   UNL     1       6.467  -6.062  -2.454  0.00  0.00    -0.301 N 
ATOM      4  C   UNL     1       7.575  -5.628  -3.336  0.00  0.00    +0.116 C 
ATOM      5  C   UNL     1       8.305  -4.527  -2.533  0.00  0.00    +0.039 C 
ATOM      6  C   UNL     1       6.013  -7.315  -2.253  0.00  0.00    +0.216 C 
ATOM      7  O   UNL     1       5.088  -7.510  -1.492  0.00  0.00    -0.276 OA
ENDROOT
BRANCH   5   8
ATOM      8  C   UNL     1       8.775  -3.430  -3.452  0.00  0.00    -0.042 A 
ATOM      9  C   UNL     1       7.915  -2.907  -4.400  0.00  0.00    +0.004 A 
ATOM     10  C   UNL     1       8.346  -1.900  -5.244  0.00  0.00    +0.001 A 
ATOM     11  C   UNL     1       9.636  -1.416  -5.140  0.00  0.00    +0.012 A 
ATOM     12  C   UNL     1      10.496  -1.938  -4.191  0.00  0.00    +0.055 A 
ATOM     13  C   UNL     1      10.064  -2.942  -3.345  0.00  0.00    +0.016 A 
BRANCH  12  14
ATOM     14  C   UNL     1      11.903  -1.410  -4.078  0.00  0.00    +0.417 C 
ATOM     15  F   UNL     1      12.102  -0.405  -5.031  0.00  0.00    -0.166 F 
ATOM     16  F   UNL     1      12.102  -0.885  -2.797  0.00  0.00    -0.166 F 
ATOM     17  F   UNL     1      12.811  -2.451  -4.301  0.00  0.00    -0.166 F 
ENDBRANCH  12  14
ENDBRANCH   5   8
BRANCH   1  18
ATOM     18  C   UNL     1       6.992  -2.499  -1.806  0.00  0.00    -0.073 C 
BRANCH  18  22
ATOM     19  N   UNL     1       9.593   0.269  -0.051  0.00  0.00    -0.333 N 
ATOM     20  C   UNL     1       9.268   0.465  -1.472  0.00  0.00    +0.086 C 
ATOM     21  C   UNL     1       7.992  -0.321  -1.792  0.00  0.00    -0.060 C 
ATOM     22  N   UNL     1       8.172  -1.724  -1.399  0.00  0.00    +0.382 N 
ATOM     23  C   UNL     1       8.340  -1.819   0.056  0.00  0.00    -0.060 C 
ATOM     24  C   UNL     1       9.638  -1.107   0.466  0.00  0.00    +0.086 C 
ATOM     25  H   UNL     1       8.991  -2.098  -1.856  0.00  0.00    -0.082 HD
BRANCH  19  29
ATOM     26  C   UNL     1      10.378   3.516   2.434  0.00  0.00    +0.000 A 
ATOM     27  C   UNL     1      10.311   2.241   2.966  0.00  0.00    +0.002 A 
ATOM     28  C   UNL     1      10.050   1.162   2.144  0.00  0.00    +0.023 A 
ATOM     29  C   UNL     1       9.856   1.358   0.783  0.00  0.00    +0.030 A 
ATOM     30  C   UNL     1       9.924   2.640   0.252  0.00  0.00    +0.023 A 
ATOM     31  C   UNL     1      10.185   3.715   1.079  0.00  0.00    +0.002 A 
ENDBRANCH  19  29
ENDBRANCH  18  22
ENDBRANCH   1  18
BRANCH   6  32
ATOM     32  C   UNL     1       6.653  -8.473  -2.973  0.00  0.00    +0.099 C 
BRANCH  32  33
ATOM     33  C   UNL     1       5.955  -9.773  -2.571  0.00  0.00    -0.002 C 
ATOM     34  C   UNL     1       6.245 -10.092  -1.089  0.00  0.00    +0.004 C 
ATOM     35  C   UNL     1       6.387 -11.634  -1.054  0.00  0.00    +0.000 C 
ATOM     36  C   UNL     1       7.125 -11.941  -2.380  0.00  0.00    +0.000 C 
ATOM     37  C   UNL     1       6.514 -10.949  -3.391  0.00  0.00    +0.004 C 
ENDBRANCH  32  33
ENDBRANCH   6  32
TORSDOF 7
