REMARK  Name = ZINC20114931
REMARK  11 active torsions:
REMARK  status: ('A' for Active; 'I' for Inactive)
REMARK    1  A    between atoms: C_1  and  C_2
REMARK    2  A    between atoms: C_2  and  O_3
REMARK    3  A    between atoms: O_3  and  C_4
REMARK    4  A    between atoms: C_7  and  N_10
REMARK    5  A    between atoms: C_13  and  C_27
REMARK    6  A    between atoms: N_15  and  C_18
REMARK    7  A    between atoms: C_18  and  C_19
REMARK    8  A    between atoms: C_19  and  N_20
REMARK    9  A    between atoms: C_23  and  C_26
REMARK   10  A    between atoms: C_27  and  C_28
REMARK   11  A    between atoms: N_30  and  C_31
REMARK                            x       y       z     vdW  Elec       q    Type
REMARK                         _______ _______ _______ _____ _____    ______ ____
ROOT
ATOM      1  N   UNL     1       3.747   0.837   6.259  0.00  0.00    -0.220 N 
ATOM      2  C   UNL     1       2.831  -0.046   6.705  0.00  0.00    +0.246 C 
ATOM      3  O   UNL     1       3.017  -0.974   7.463  0.00  0.00    -0.273 OA
ATOM      4  C   UNL     1       1.520   0.366   6.065  0.00  0.00    +0.170 C 
ATOM      5  N   UNL     1       1.885   1.539   5.252  0.00  0.00    -0.302 N 
ATOM      6  C   UNL     1       3.203   1.737   5.433  0.00  0.00    +0.147 C 
ATOM      7  S   UNL     1       4.086   3.001   4.687  0.00  0.00    -0.018 S 
ENDROOT
BRANCH   1  11
ATOM      8  C   UNL     1       7.779   0.774   7.329  0.00  0.00    +0.121 A 
ATOM      9  C   UNL     1       7.404   0.500   6.022  0.00  0.00    +0.047 A 
ATOM     10  C   UNL     1       6.069   0.520   5.667  0.00  0.00    +0.027 A 
ATOM     11  C   UNL     1       5.103   0.816   6.619  0.00  0.00    +0.043 A 
ATOM     12  C   UNL     1       5.479   1.095   7.926  0.00  0.00    +0.027 A 
ATOM     13  C   UNL     1       6.814   1.070   8.280  0.00  0.00    +0.047 A 
BRANCH   8  14
ATOM     14  O   UNL     1       9.093   0.754   7.677  0.00  0.00    -0.492 OA
BRANCH  14  16
ATOM     15  C   UNL     1      10.922   0.976   9.240  0.00  0.00    +0.048 C 
ATOM     16  C   UNL     1       9.407   1.046   9.040  0.00  0.00    +0.225 C 
ENDBRANCH  14  16
ENDBRANCH   8  14
ENDBRANCH   1  11
BRANCH   5  17
ATOM     17  C   UNL     1       0.986   2.337   4.415  0.00  0.00    +0.089 C 
BRANCH  17  18
ATOM     18  C   UNL     1       0.952   1.752   3.001  0.00  0.00    -0.060 C 
BRANCH  18  19
ATOM     19  N   UNL     1       0.157   2.626   2.128  0.00  0.00    +0.381 N 
ATOM     20  C   UNL     1       0.400   2.319   0.713  0.00  0.00    -0.079 C 
ATOM     21  C   UNL     1      -0.328   3.339  -0.164  0.00  0.00    -0.016 C 
ATOM     22  C   UNL     1      -1.828   3.287   0.138  0.00  0.00    -0.018 C 
ATOM     23  C   UNL     1      -2.050   3.563   1.628  0.00  0.00    -0.016 C 
ATOM     24  C   UNL     1      -1.272   2.536   2.454  0.00  0.00    -0.079 C 
ATOM     25  C   UNL     1      -2.554   4.348  -0.692  0.00  0.00    +0.007 C 
ATOM     26  H   UNL     1       0.476   3.664   2.305  0.00  0.00    -0.082 HD
ENDBRANCH  18  19
ENDBRANCH  17  18
ENDBRANCH   5  17
BRANCH   4  27
ATOM     27  C   UNL     1       0.980  -0.758   5.178  0.00  0.00    +0.128 C 
BRANCH  27  28
ATOM     28  C   UNL     1       0.604  -1.938   6.036  0.00  0.00    +0.219 C 
ATOM     29  O   UNL     1       0.647  -1.848   7.245  0.00  0.00    -0.275 OA
ATOM     30  N   UNL     1       0.219  -3.094   5.460  0.00  0.00    -0.285 N 
ATOM     31  H   UNL     1       0.258  -3.203   4.366  0.00  0.00    +0.155 HD
BRANCH  30  32
ATOM     32  C   UNL     1      -0.229  -4.157   6.254  0.00  0.00    +0.033 A 
ATOM     33  C   UNL     1      -0.946  -3.902   7.416  0.00  0.00    +0.025 A 
ATOM     34  C   UNL     1      -1.391  -4.952   8.195  0.00  0.00    +0.022 A 
ATOM     35  C   UNL     1      -1.114  -6.256   7.824  0.00  0.00    +0.041 A 
ATOM     36  C   UNL     1      -0.396  -6.512   6.670  0.00  0.00    +0.022 A 
ATOM     37  C   UNL     1       0.047  -5.466   5.884  0.00  0.00    +0.025 A 
ATOM     38 CL   UNL     1      -1.670  -7.574   8.809  0.00  0.00    -0.084 Cl
ENDBRANCH  30  32
ENDBRANCH  27  28
ENDBRANCH   4  27
TORSDOF 9
