REMARK  Name = ZINC36660397
REMARK  12 active torsions:
REMARK  status: ('A' for Active; 'I' for Inactive)
REMARK    1  A    between atoms: C_1  and  C_2
REMARK    2  A    between atoms: N_11  and  C_12
REMARK    3  A    between atoms: C_12  and  C_13
REMARK    4  A    between atoms: C_13  and  C_14
REMARK    5  A    between atoms: C_14  and  N_15
REMARK    6  A    between atoms: N_15  and  C_16
REMARK    7  A    between atoms: N_15  and  C_17
REMARK    8  A    between atoms: C_18  and  C_20
REMARK    9  A    between atoms: N_25  and  S_26
REMARK   10  A    between atoms: S_26  and  C_29
REMARK   11  A    between atoms: C_32  and  O_35
REMARK   12  A    between atoms: O_35  and  C_36
REMARK                            x       y       z     vdW  Elec       q    Type
REMARK                         _______ _______ _______ _____ _____    ______ ____
ROOT
ATOM      1  C   UNL     1       1.817   1.344  -0.090  0.00  0.00    +0.044 C 
ATOM      2  C   UNL     1       1.572  -0.142  -0.076  0.00  0.00    -0.049 A 
ATOM      3  C   UNL     1       1.686  -0.883  -1.243  0.00  0.00    +0.005 A 
ATOM      4  C   UNL     1       1.468  -2.236  -1.258  0.00  0.00    +0.029 A 
ATOM      5  C   UNL     1       1.119  -2.924  -0.072  0.00  0.00    +0.080 A 
ATOM      6  C   UNL     1       1.012  -2.138   1.097  0.00  0.00    +0.041 A 
ATOM      7  C   UNL     1       1.238  -0.784   1.103  0.00  0.00    +0.020 A 
ATOM      8  S   UNL     1       0.571  -3.344   2.325  0.00  0.00    -0.052 S 
ATOM      9  C   UNL     1       0.555  -4.768   1.245  0.00  0.00    +0.168 A 
ATOM     10  N   UNL     1       0.873  -4.243   0.085  0.00  0.00    -0.224 NA
ATOM     11  N   UNL     1       0.278  -6.090   1.554  0.00  0.00    -0.249 N 
ATOM     12  C   UNL     1       0.094  -6.457   2.838  0.00  0.00    +0.240 C 
ATOM     13  O   UNL     1      -0.067  -7.627   3.116  0.00  0.00    -0.273 OA
ENDROOT
BRANCH  12  14
ATOM     14  C   UNL     1       0.089  -5.416   3.926  0.00  0.00    +0.166 C 
ATOM     15  C   UNL     1      -1.247  -4.643   3.907  0.00  0.00    +0.031 C 
ATOM     16  C   UNL     1      -2.080  -5.362   5.001  0.00  0.00    +0.019 C 
ATOM     17  C   UNL     1      -0.989  -5.713   6.042  0.00  0.00    +0.110 C 
ATOM     18  N   UNL     1       0.202  -6.065   5.241  0.00  0.00    -0.165 NA
BRANCH  18  19
ATOM     19  S   UNL     1       1.453  -7.031   5.736  0.00  0.00    +0.062 S 
ATOM     20  O   UNL     1       0.939  -7.866   6.764  0.00  0.00    -0.153 OA
ATOM     21  O   UNL     1       2.053  -7.553   4.558  0.00  0.00    -0.153 OA
BRANCH  19  22
ATOM     22  C   UNL     1       2.652  -5.983   6.490  0.00  0.00    +0.106 A 
ATOM     23  C   UNL     1       3.654  -5.418   5.724  0.00  0.00    +0.032 A 
ATOM     24  C   UNL     1       4.596  -4.597   6.313  0.00  0.00    +0.047 A 
ATOM     25  C   UNL     1       4.535  -4.339   7.675  0.00  0.00    +0.120 A 
ATOM     26  C   UNL     1       3.528  -4.907   8.441  0.00  0.00    +0.047 A 
ATOM     27  C   UNL     1       2.586  -5.723   7.846  0.00  0.00    +0.032 A 
BRANCH  25  28
ATOM     28  O   UNL     1       5.461  -3.532   8.257  0.00  0.00    -0.495 OA
ATOM     29  C   UNL     1       5.336  -3.311   9.663  0.00  0.00    +0.277 C 
ENDBRANCH  25  28
ENDBRANCH  19  22
ENDBRANCH  18  19
ENDBRANCH  12  14
BRANCH  11  30
ATOM     30  C   UNL     1       0.185  -7.087   0.485  0.00  0.00    +0.114 C 
BRANCH  30  31
ATOM     31  C   UNL     1       1.570  -7.679   0.218  0.00  0.00    +0.001 C 
BRANCH  31  32
ATOM     32  C   UNL     1       1.458  -8.785  -0.834  0.00  0.00    -0.078 C 
BRANCH  32  33
ATOM     33  N   UNL     1       2.788  -9.353  -1.090  0.00  0.00    +0.376 N 
ATOM     34  C   UNL     1       3.278 -10.020   0.123  0.00  0.00    -0.097 C 
ATOM     35  C   UNL     1       2.700 -10.330  -2.184  0.00  0.00    -0.097 C 
ATOM     36  H   UNL     1       3.425  -8.615  -1.349  0.00  0.00    -0.083 HD
ENDBRANCH  32  33
ENDBRANCH  31  32
ENDBRANCH  30  31
ENDBRANCH  11  30
TORSDOF 8
