REMARK  Name = ZINC57958279
REMARK  8 active torsions:
REMARK  status: ('A' for Active; 'I' for Inactive)
REMARK    1  A    between atoms: C_1  and  C_2
REMARK    2  A    between atoms: C_2  and  C_4
REMARK    3  A    between atoms: C_2  and  N_11
REMARK    4  A    between atoms: N_9  and  C_10
REMARK    5  A    between atoms: N_11  and  C_12
REMARK    6  A    between atoms: C_15  and  C_18
REMARK    7  A    between atoms: C_18  and  C_19
REMARK    8  A    between atoms: C_19  and  N_20
REMARK                            x       y       z     vdW  Elec       q    Type
REMARK                         _______ _______ _______ _____ _____    ______ ____
ROOT
ATOM      1  C   UNL     1       2.110  -0.605   1.103  0.00  0.00    +0.028 A 
ATOM      2  C   UNL     1       2.823  -0.172  -0.008  0.00  0.00    +0.023 A 
ATOM      3  C   UNL     1       4.200  -0.276  -0.026  0.00  0.00    +0.005 A 
ATOM      4  C   UNL     1       4.869  -0.810   1.060  0.00  0.00    -0.049 A 
ATOM      5  C   UNL     1       4.162  -1.242   2.167  0.00  0.00    +0.005 A 
ATOM      6  C   UNL     1       2.785  -1.136   2.194  0.00  0.00    +0.023 A 
ENDROOT
BRANCH   1   7
ATOM      7  N   UNL     1       0.717  -0.502   1.124  0.00  0.00    -0.333 N 
ATOM      8  H   UNL     1       0.221  -0.801   1.902  0.00  0.00    +0.147 HD
BRANCH   7  10
ATOM      9  C   UNL     1      -0.025   1.584   0.086  0.00  0.00    +0.038 C 
ATOM     10  C   UNL     1       0.006   0.059  -0.027  0.00  0.00    +0.154 C 
BRANCH  10  11
ATOM     11  C   UNL     1      -1.404  -0.472  -0.054  0.00  0.00    +0.240 C 
ATOM     12  O   UNL     1      -1.778  -1.242   0.804  0.00  0.00    -0.273 OA
ATOM     13  N   UNL     1      -2.249  -0.091  -1.032  0.00  0.00    -0.239 N 
ATOM     14  C   UNL     1      -3.511  -0.565  -1.056  0.00  0.00    +0.306 C 
ATOM     15  O   UNL     1      -3.886  -1.337  -0.196  0.00  0.00    -0.252 OA
ATOM     16  N   UNL     1      -4.356  -0.184  -2.034  0.00  0.00    -0.302 N 
ATOM     17  C   UNL     1      -5.727  -0.700  -2.060  0.00  0.00    +0.129 C 
ATOM     18  H   UNL     1      -1.950   0.526  -1.719  0.00  0.00    +0.159 HD
ATOM     19  H   UNL     1      -4.057   0.432  -2.721  0.00  0.00    +0.150 HD
ENDBRANCH  10  11
ENDBRANCH   7  10
ENDBRANCH   1   7
BRANCH   4  20
ATOM     20  C   UNL     1       6.371  -0.922   1.036  0.00  0.00    +0.016 C 
BRANCH  20  21
ATOM     21  C   UNL     1       6.987   0.356   1.609  0.00  0.00    -0.074 C 
BRANCH  21  22
ATOM     22  N   UNL     1       8.444   0.196   1.707  0.00  0.00    +0.381 N 
ATOM     23  C   UNL     1       9.005   1.340   2.428  0.00  0.00    -0.068 C 
ATOM     24  C   UNL     1      10.441   1.026   2.866  0.00  0.00    +0.050 C 
ATOM     25  S   UNL     1      11.446   0.750   1.374  0.00  0.00    -0.164 S 
ATOM     26  C   UNL     1      10.442  -0.442   0.433  0.00  0.00    +0.050 C 
ATOM     27  C   UNL     1       9.007   0.092   0.359  0.00  0.00    -0.068 C 
ATOM     28  H   UNL     1       8.651  -0.649   2.217  0.00  0.00    -0.082 HD
ENDBRANCH  21  22
ENDBRANCH  20  21
ENDBRANCH   4  20
TORSDOF 6
