REMARK  Name = ZINC28527208
REMARK  7 active torsions:
REMARK  status: ('A' for Active; 'I' for Inactive)
REMARK    1  A    between atoms: C_3  and  N_28
REMARK    2  A    between atoms: C_4  and  C_8
REMARK    3  A    between atoms: C_8  and  C_9
REMARK    4  A    between atoms: C_17  and  N_18
REMARK    5  A    between atoms: N_18  and  C_19
REMARK    6  A    between atoms: C_19  and  C_20
REMARK    7  A    between atoms: C_20  and  C_21
REMARK                            x       y       z     vdW  Elec       q    Type
REMARK                         _______ _______ _______ _____ _____    ______ ____
ROOT
ATOM      1  C   UNL     1      -0.015   1.295   0.009  0.00  0.00    +0.201 A 
ATOM      2  N   UNL     1       0.002  -0.004   0.002  0.00  0.00    -0.210 NA
ATOM      3  C   UNL     1       1.294  -0.424  -0.013  0.00  0.00    +0.149 A 
ATOM      4  C   UNL     1       2.089   0.733  -0.014  0.00  0.00    +0.160 A 
ATOM      5  O   UNL     1       1.239   1.777  -0.000  0.00  0.00    -0.439 OA
ATOM      6  C   UNL     1       3.473   0.589  -0.028  0.00  0.00    +0.068 A 
ATOM      7  C   UNL     1       4.013  -0.678  -0.041  0.00  0.00    +0.116 A 
ATOM      8  N   UNL     1       3.244  -1.755  -0.039  0.00  0.00    -0.238 NA
ATOM      9  C   UNL     1       1.923  -1.676  -0.026  0.00  0.00    +0.148 A 
ENDROOT
BRANCH   9  10
ATOM     10  N   UNL     1       1.160  -2.836  -0.024  0.00  0.00    -0.327 N 
ATOM     11  H   UNL     1       0.061  -2.772  -0.013  0.00  0.00    +0.148 HD
BRANCH  10  12
ATOM     12  C   UNL     1       1.817  -4.146  -0.038  0.00  0.00    +0.101 C 
BRANCH  12  13
ATOM     13  C   UNL     1       0.756  -5.248  -0.033  0.00  0.00    +0.003 C 
BRANCH  13  14
ATOM     14  C   UNL     1       1.442  -6.616  -0.047  0.00  0.00    -0.070 C 
ATOM     15  C   UNL     1       0.387  -7.717   0.085  0.00  0.00    -0.016 C 
ATOM     16  C   UNL     1       1.076  -9.084   0.050  0.00  0.00    -0.003 C 
ATOM     17  C   UNL     1       1.868  -9.214  -1.254  0.00  0.00    -0.019 C 
ATOM     18  C   UNL     1       2.880  -8.070  -1.347  0.00  0.00    -0.082 C 
ATOM     19  N   UNL     1       2.171  -6.784  -1.311  0.00  0.00    +0.381 N 
ATOM     20  H   UNL     1       1.462  -6.750  -2.151  0.00  0.00    -0.086 HD
ATOM     21  H   UNL     1       2.908  -5.974  -1.419  0.00  0.00    -0.086 HD
ENDBRANCH  13  14
ENDBRANCH  12  13
ENDBRANCH  10  12
ENDBRANCH   9  10
BRANCH   1  22
ATOM     22  C   UNL     1      -1.263   2.140   0.020  0.00  0.00    +0.133 C 
BRANCH  22  26
ATOM     23  C   UNL     1      -2.423   2.918   4.062  0.00  0.00    +0.022 A 
ATOM     24  C   UNL     1      -1.486   3.726   3.449  0.00  0.00    +0.029 A 
ATOM     25  C   UNL     1      -1.107   3.477   2.137  0.00  0.00    +0.071 A 
ATOM     26  C   UNL     1      -1.672   2.414   1.444  0.00  0.00    -0.012 A 
ATOM     27  C   UNL     1      -2.613   1.612   2.059  0.00  0.00    +0.026 A 
ATOM     28  C   UNL     1      -2.985   1.860   3.369  0.00  0.00    +0.041 A 
ATOM     29 CL   UNL     1      -4.163   0.846   4.143  0.00  0.00    -0.084 Cl
BRANCH  25  30
ATOM     30  N   UNL     1      -0.155   4.295   1.513  0.00  0.00    -0.220 N 
ATOM     31  C   UNL     1       0.472   5.359   2.051  0.00  0.00    +0.225 A 
ATOM     32  N   UNL     1       1.285   5.849   1.150  0.00  0.00    -0.222 NA
ATOM     33  C   UNL     1       1.198   5.136   0.027  0.00  0.00    +0.245 A 
ATOM     34  N   UNL     1       0.329   4.174   0.200  0.00  0.00    -0.154 NA
ENDBRANCH  25  30
ENDBRANCH  22  26
ENDBRANCH   1  22
TORSDOF 7
