REMARK  Name = ZINC64215567
REMARK  7 active torsions:
REMARK  status: ('A' for Active; 'I' for Inactive)
REMARK    1  A    between atoms: C_1  and  C_2
REMARK    2  A    between atoms: C_5  and  C_29
REMARK    3  A    between atoms: C_6  and  C_8
REMARK    4  A    between atoms: N_10  and  C_11
REMARK    5  A    between atoms: C_11  and  C_12
REMARK    6  A    between atoms: C_12  and  C_14
REMARK    7  A    between atoms: C_12  and  C_20
REMARK                            x       y       z     vdW  Elec       q    Type
REMARK                         _______ _______ _______ _____ _____    ______ ____
ROOT
ATOM      1  C   UNL     1       4.834  -3.179   4.177  0.00  0.00    +0.064 C 
ENDROOT
BRANCH   1   2
ATOM      2  C   UNL     1       5.954  -4.068   4.653  0.00  0.00    -0.033 C 
ATOM      3  C   UNL     1       5.843  -5.171   5.427  0.00  0.00    -0.000 A 
ATOM      4  C   UNL     1       4.691  -5.847   6.036  0.00  0.00    +0.010 A 
ATOM      5  C   UNL     1       4.899  -6.959   6.777  0.00  0.00    +0.001 A 
ATOM      6  C   UNL     1       6.184  -7.481   6.979  0.00  0.00    +0.002 A 
ATOM      7  C   UNL     1       7.291  -6.915   6.452  0.00  0.00    +0.026 A 
ATOM      8  C   UNL     1       7.189  -5.742   5.654  0.00  0.00    +0.043 A 
ATOM      9  N   UNL     1       8.098  -5.020   5.045  0.00  0.00    -0.380 N 
ATOM     10  C   UNL     1       7.428  -3.911   4.355  0.00  0.00    +0.145 C 
ATOM     11  H   UNL     1       9.052  -5.192   5.045  0.00  0.00    +0.160 HD
ENDBRANCH   1   2
BRANCH   1  12
ATOM     12  C   UNL     1       5.058  -1.776   4.681  0.00  0.00    -0.039 A 
ATOM     13  C   UNL     1       6.202  -1.087   4.321  0.00  0.00    +0.004 A 
ATOM     14  C   UNL     1       6.407   0.200   4.782  0.00  0.00    +0.000 A 
ATOM     15  C   UNL     1       5.470   0.798   5.603  0.00  0.00    +0.000 A 
ATOM     16  C   UNL     1       4.326   0.109   5.963  0.00  0.00    +0.000 A 
ATOM     17  C   UNL     1       4.118  -1.176   5.497  0.00  0.00    +0.004 A 
ENDBRANCH   1  12
BRANCH   1  18
ATOM     18  C   UNL     1       4.802  -3.172   2.648  0.00  0.00    +0.117 C 
BRANCH  18  21
ATOM     19  C   UNL     1       3.410  -2.264   0.867  0.00  0.00    +0.252 C 
ATOM     20  O   UNL     1       4.163  -2.773   0.057  0.00  0.00    -0.270 OA
ATOM     21  N   UNL     1       3.642  -2.405   2.187  0.00  0.00    -0.310 N 
ATOM     22  H   UNL     1       3.042  -1.999   2.831  0.00  0.00    +0.149 HD
BRANCH  19  27
ATOM     23  C   UNL     1      -0.019   1.526   0.010  0.00  0.00    +0.040 C 
ATOM     24  C   UNL     1       0.002  -0.004   0.002  0.00  0.00    +0.130 C 
ATOM     25  N   UNL     1       0.765  -0.523  -1.153  0.00  0.00    -0.335 N 
ATOM     26  C   UNL     1       1.863  -1.252  -0.863  0.00  0.00    +0.020 C 
ATOM     27  C   UNL     1       2.253  -1.498   0.406  0.00  0.00    +0.088 C 
ATOM     28  S   UNL     1       1.014  -0.665   1.390  0.00  0.00    -0.097 S 
ATOM     29  C   UNL     1       2.685  -1.809  -1.996  0.00  0.00    +0.061 C 
ATOM     30  H   UNL     1       0.492  -0.350  -2.067  0.00  0.00    +0.147 HD
ENDBRANCH  19  27
ENDBRANCH  18  21
ENDBRANCH   1  18
TORSDOF 5
