REMARK  Name = ZINC09235045
REMARK  9 active torsions:
REMARK  status: ('A' for Active; 'I' for Inactive)
REMARK    1  A    between atoms: C_4  and  N_7
REMARK    2  A    between atoms: C_8  and  C_27
REMARK    3  A    between atoms: C_11  and  S_12
REMARK    4  A    between atoms: S_12  and  C_13
REMARK    5  A    between atoms: C_13  and  C_14
REMARK    6  A    between atoms: N_16  and  C_17
REMARK    7  A    between atoms: C_20  and  S_23
REMARK    8  A    between atoms: S_23  and  N_26
REMARK    9  A    between atoms: C_32  and  O_33
REMARK                            x       y       z     vdW  Elec       q    Type
REMARK                         _______ _______ _______ _____ _____    ______ ____
ROOT
ATOM      1  N   UNL     1       0.687   3.673  -0.327  0.00  0.00    -0.270 N 
ATOM      2  C   UNL     1       1.346   4.528  -1.184  0.00  0.00    +0.173 A 
ATOM      3  N   UNL     1       1.299   5.724  -0.645  0.00  0.00    -0.128 NA
ATOM      4  N   UNL     1       0.674   5.678   0.477  0.00  0.00    -0.122 NA
ATOM      5  C   UNL     1       0.277   4.449   0.723  0.00  0.00    +0.197 A 
ENDROOT
BRANCH   1   9
ATOM      6  C   UNL     1       0.083  -0.421  -0.824  0.00  0.00    +0.000 A 
ATOM      7  C   UNL     1      -0.996   0.443  -0.846  0.00  0.00    +0.002 A 
ATOM      8  C   UNL     1      -0.799   1.800  -0.682  0.00  0.00    +0.026 A 
ATOM      9  C   UNL     1       0.484   2.296  -0.494  0.00  0.00    +0.051 A 
ATOM     10  C   UNL     1       1.565   1.426  -0.472  0.00  0.00    +0.026 A 
ATOM     11  C   UNL     1       1.362   0.070  -0.636  0.00  0.00    +0.002 A 
ENDBRANCH   1   9
BRANCH   2  12
ATOM     12  C   UNL     1       1.982   4.167  -2.467  0.00  0.00    +0.061 A 
ATOM     13  C   UNL     1       1.298   3.377  -3.392  0.00  0.00    +0.015 A 
ATOM     14  C   UNL     1       1.897   3.043  -4.589  0.00  0.00    +0.001 A 
ATOM     15  C   UNL     1       3.176   3.490  -4.877  0.00  0.00    +0.004 A 
ATOM     16  C   UNL     1       3.863   4.273  -3.969  0.00  0.00    +0.046 A 
ATOM     17  C   UNL     1       3.273   4.622  -2.765  0.00  0.00    +0.128 A 
BRANCH  17  18
ATOM     18  O   UNL     1       3.946   5.396  -1.875  0.00  0.00    -0.506 OA
ATOM     19  H   UNL     1       4.481   4.896  -1.244  0.00  0.00    +0.292 HD
ENDBRANCH  17  18
ENDBRANCH   2  12
BRANCH   5  20
ATOM     20  S   UNL     1      -0.617   3.904   2.140  0.00  0.00    -0.076 S 
BRANCH  20  21
ATOM     21  C   UNL     1      -0.773   5.469   3.035  0.00  0.00    +0.173 C 
BRANCH  21  22
ATOM     22  C   UNL     1      -1.526   5.239   4.320  0.00  0.00    +0.227 C 
ATOM     23  O   UNL     1      -1.919   4.127   4.603  0.00  0.00    -0.275 OA
ATOM     24  N   UNL     1      -1.763   6.270   5.155  0.00  0.00    -0.285 N 
ATOM     25  H   UNL     1      -1.513   7.171   4.897  0.00  0.00    +0.155 HD
BRANCH  24  26
ATOM     26  C   UNL     1      -2.371   6.041   6.395  0.00  0.00    +0.034 A 
ATOM     27  C   UNL     1      -3.214   6.998   6.944  0.00  0.00    +0.025 A 
ATOM     28  C   UNL     1      -3.818   6.766   8.165  0.00  0.00    +0.030 A 
ATOM     29  C   UNL     1      -3.574   5.588   8.845  0.00  0.00    +0.105 A 
ATOM     30  C   UNL     1      -2.730   4.635   8.304  0.00  0.00    +0.030 A 
ATOM     31  C   UNL     1      -2.128   4.858   7.081  0.00  0.00    +0.025 A 
BRANCH  29  32
ATOM     32  S   UNL     1      -4.339   5.299  10.406  0.00  0.00    +0.056 S 
ATOM     33  O   UNL     1      -5.509   6.104  10.439  0.00  0.00    -0.153 OA
ATOM     34  O   UNL     1      -4.379   3.889  10.584  0.00  0.00    -0.153 OA
BRANCH  32  35
ATOM     35  N   UNL     1      -3.321   5.894  11.568  0.00  0.00    -0.204 NA
ATOM     36  H   UNL     1      -3.683   6.236  12.401  0.00  0.00    +0.144 HD
ATOM     37  H   UNL     1      -2.363   5.901  11.417  0.00  0.00    +0.144 HD
ENDBRANCH  32  35
ENDBRANCH  29  32
ENDBRANCH  24  26
ENDBRANCH  21  22
ENDBRANCH  20  21
ENDBRANCH   5  20
TORSDOF 9
