REMARK  Name = ZINC66244690
REMARK  9 active torsions:
REMARK  status: ('A' for Active; 'I' for Inactive)
REMARK    1  A    between atoms: C_1  and  O_2
REMARK    2  A    between atoms: O_2  and  C_3
REMARK    3  A    between atoms: C_6  and  C_9
REMARK    4  A    between atoms: C_9  and  C_10
REMARK    5  A    between atoms: C_10  and  N_11
REMARK    6  A    between atoms: N_14  and  C_15
REMARK    7  A    between atoms: C_15  and  C_16
REMARK    8  A    between atoms: C_20  and  N_22
REMARK    9  A    between atoms: C_23  and  C_25
REMARK                            x       y       z     vdW  Elec       q    Type
REMARK                         _______ _______ _______ _____ _____    ______ ____
ROOT
ATOM      1  N   UNL     1      -6.739  -3.551  -1.392  0.00  0.00    -0.357 N 
ATOM      2  C   UNL     1      -7.355  -3.877  -2.577  0.00  0.00    +0.169 C 
ATOM      3  N   UNL     1      -6.784  -3.581  -3.711  0.00  0.00    -0.371 N 
ATOM      4  N   UNL     1      -8.573  -4.516  -2.567  0.00  0.00    -0.354 N 
ATOM      5  H   UNL     1      -7.164  -3.772  -0.548  0.00  0.00    +0.162 HD
ATOM      6  H   UNL     1      -7.218  -3.811  -4.547  0.00  0.00    +0.159 HD
ATOM      7  H   UNL     1      -8.997  -4.736  -1.723  0.00  0.00    +0.163 HD
ATOM      8  H   UNL     1      -5.925  -3.131  -3.718  0.00  0.00    +0.159 HD
ENDROOT
BRANCH   1   9
ATOM      9  C   UNL     1      -5.442  -2.871  -1.403  0.00  0.00    +0.120 C 
BRANCH   9  10
ATOM     10  C   UNL     1      -4.982  -2.626   0.035  0.00  0.00    +0.056 C 
BRANCH  10  14
ATOM     11  C   UNL     1      -1.197  -0.642   0.003  0.00  0.00    +0.120 A 
ATOM     12  C   UNL     1      -2.370   0.099   0.005  0.00  0.00    +0.046 A 
ATOM     13  C   UNL     1      -3.592  -0.545   0.015  0.00  0.00    +0.007 A 
ATOM     14  C   UNL     1      -3.647  -1.926   0.024  0.00  0.00    -0.045 A 
ATOM     15  C   UNL     1      -2.480  -2.667   0.022  0.00  0.00    +0.007 A 
ATOM     16  C   UNL     1      -1.255  -2.028   0.005  0.00  0.00    +0.046 A 
BRANCH  11  18
ATOM     17  C   UNL     1      -0.010   1.418  -0.010  0.00  0.00    +0.277 C 
ATOM     18  O   UNL     1       0.006  -0.011  -0.008  0.00  0.00    -0.495 OA
ENDBRANCH  11  18
ENDBRANCH  10  14
ENDBRANCH   9  10
ENDBRANCH   1   9
BRANCH   4  19
ATOM     19  C   UNL     1      -9.229  -4.863  -3.829  0.00  0.00    +0.151 C 
BRANCH  19  20
ATOM     20  C   UNL     1     -10.539  -5.549  -3.543  0.00  0.00    -0.027 A 
ATOM     21  C   UNL     1     -10.583  -6.925  -3.403  0.00  0.00    +0.005 A 
ATOM     22  C   UNL     1     -11.783  -7.558  -3.139  0.00  0.00    +0.002 A 
ATOM     23  C   UNL     1     -12.943  -6.818  -3.015  0.00  0.00    +0.023 A 
ATOM     24  C   UNL     1     -12.903  -5.438  -3.155  0.00  0.00    +0.034 A 
ATOM     25  C   UNL     1     -11.694  -4.804  -3.414  0.00  0.00    +0.028 A 
BRANCH  24  26
ATOM     26  N   UNL     1     -14.076  -4.686  -3.030  0.00  0.00    -0.283 N 
ATOM     27  C   UNL     1     -15.248  -5.187  -3.468  0.00  0.00    +0.246 C 
ATOM     28  O   UNL     1     -15.301  -6.322  -3.893  0.00  0.00    -0.273 OA
ATOM     29  H   UNL     1     -14.046  -3.803  -2.628  0.00  0.00    +0.155 HD
BRANCH  27  30
ATOM     30  C   UNL     1     -16.493  -4.339  -3.429  0.00  0.00    +0.204 C 
ATOM     31  C   UNL     1     -16.363  -3.150  -4.415  0.00  0.00    +0.043 C 
ATOM     32  C   UNL     1     -17.858  -2.839  -4.699  0.00  0.00    +0.031 C 
ATOM     33  C   UNL     1     -18.500  -4.242  -4.646  0.00  0.00    +0.161 C 
ATOM     34  O   UNL     1     -17.624  -5.092  -3.894  0.00  0.00    -0.367 OA
ENDBRANCH  27  30
ENDBRANCH  24  26
ENDBRANCH  19  20
ENDBRANCH   4  19
TORSDOF 8
