REMARK  Name = ZINC63374367
REMARK  8 active torsions:
REMARK  status: ('A' for Active; 'I' for Inactive)
REMARK    1  A    between atoms: C_1  and  C_2
REMARK    2  A    between atoms: C_5  and  N_8
REMARK    3  A    between atoms: C_9  and  O_42
REMARK    4  A    between atoms: C_11  and  C_25
REMARK    5  A    between atoms: N_15  and  C_18
REMARK    6  A    between atoms: C_21  and  C_24
REMARK    7  A    between atoms: C_32  and  O_37
REMARK    8  A    between atoms: O_37  and  C_38
REMARK                            x       y       z     vdW  Elec       q    Type
REMARK                         _______ _______ _______ _____ _____    ______ ____
ROOT
ATOM      1  N   UNL     1       0.315  -4.018   0.087  0.00  0.00    -0.228 N 
ATOM      2  C   UNL     1       0.192  -4.781   1.330  0.00  0.00    +0.224 C 
ATOM      3  C   UNL     1       0.770  -6.184   1.128  0.00  0.00    +0.142 C 
ATOM      4  C   UNL     1       0.244  -6.755  -0.164  0.00  0.00    +0.236 C 
ATOM      5  O   UNL     1       0.024  -7.944  -0.257  0.00  0.00    -0.274 OA
ATOM      6  N   UNL     1       0.017  -5.945  -1.214  0.00  0.00    -0.193 N 
ATOM      7  C   UNL     1       0.163  -4.613  -1.107  0.00  0.00    +0.322 C 
ATOM      8  O   UNL     1       0.163  -3.933  -2.114  0.00  0.00    -0.251 OA
ENDROOT
BRANCH   3   9
ATOM      9  C   UNL     1       2.297  -6.104   1.069  0.00  0.00    +0.096 C 
ATOM     10  C   UNL     1       2.839  -5.595   2.406  0.00  0.00    +0.124 C 
ATOM     11  C   UNL     1       4.336  -5.383   2.207  0.00  0.00    -0.036 C 
ATOM     12  C   UNL     1       4.943  -6.072   3.162  0.00  0.00    +0.003 A 
ATOM     13  C   UNL     1       6.359  -6.192   3.541  0.00  0.00    +0.055 A 
ATOM     14  C   UNL     1       6.644  -7.015   4.588  0.00  0.00    +0.121 A 
ATOM     15  C   UNL     1       5.677  -7.736   5.305  0.00  0.00    +0.047 A 
ATOM     16  C   UNL     1       4.345  -7.694   5.044  0.00  0.00    +0.029 A 
ATOM     17  C   UNL     1       3.912  -6.833   3.936  0.00  0.00    +0.043 A 
ATOM     18  N   UNL     1       2.703  -6.579   3.479  0.00  0.00    -0.376 N 
ATOM     19  C   UNL     1       4.875  -4.597   1.036  0.00  0.00    +0.048 C 
ATOM     20  C   UNL     1       4.151  -5.135  -0.212  0.00  0.00    +0.085 C 
ATOM     21  N   UNL     1       2.704  -5.161   0.015  0.00  0.00    -0.310 NA
ATOM     22  H   UNL     1       2.206  -5.341  -0.844  0.00  0.00    +0.122 HD
ATOM     23  H   UNL     1       1.871  -6.970   3.789  0.00  0.00    +0.160 HD
BRANCH  14  24
ATOM     24  O   UNL     1       7.944  -7.147   4.961  0.00  0.00    -0.495 OA
ATOM     25  C   UNL     1       8.219  -8.015   6.062  0.00  0.00    +0.277 C 
ENDBRANCH  14  24
ENDBRANCH   3   9
BRANCH   1  30
ATOM     26  C   UNL     1       1.427   1.541   0.319  0.00  0.00    +0.044 C 
ATOM     27  C   UNL     1       1.132   0.064   0.258  0.00  0.00    -0.050 A 
ATOM     28  C   UNL     1      -0.078  -0.417   0.724  0.00  0.00    +0.005 A 
ATOM     29  C   UNL     1      -0.351  -1.770   0.669  0.00  0.00    +0.024 A 
ATOM     30  C   UNL     1       0.589  -2.647   0.144  0.00  0.00    +0.040 A 
ATOM     31  C   UNL     1       1.803  -2.159  -0.324  0.00  0.00    +0.024 A 
ATOM     32  C   UNL     1       2.068  -0.805  -0.271  0.00  0.00    +0.005 A 
ENDBRANCH   1  30
BRANCH   6  33
ATOM     33  C   UNL     1      -0.383  -6.497  -2.439  0.00  0.00    +0.045 A 
ATOM     34  C   UNL     1      -1.663  -6.264  -2.923  0.00  0.00    +0.024 A 
ATOM     35  C   UNL     1      -2.054  -6.810  -4.130  0.00  0.00    +0.005 A 
ATOM     36  C   UNL     1      -1.173  -7.588  -4.856  0.00  0.00    -0.050 A 
ATOM     37  C   UNL     1       0.103  -7.823  -4.377  0.00  0.00    +0.005 A 
ATOM     38  C   UNL     1       0.502  -7.275  -3.174  0.00  0.00    +0.024 A 
ATOM     39  C   UNL     1      -1.603  -8.183  -6.173  0.00  0.00    +0.044 C 
ENDBRANCH   6  33
BRANCH   2  40
ATOM     40  O   UNL     1      -1.186  -4.882   1.693  0.00  0.00    -0.373 OA
ATOM     41  H   UNL     1      -1.618  -4.029   1.838  0.00  0.00    +0.212 HD
ENDBRANCH   2  40
TORSDOF 5
