REMARK  Name = ZINC30403662
REMARK  7 active torsions:
REMARK  status: ('A' for Active; 'I' for Inactive)
REMARK    1  A    between atoms: C_6  and  N_7
REMARK    2  A    between atoms: C_8  and  C_10
REMARK    3  A    between atoms: C_10  and  O_11
REMARK    4  A    between atoms: O_11  and  C_12
REMARK    5  A    between atoms: C_12  and  C_14
REMARK    6  A    between atoms: C_14  and  C_15
REMARK    7  A    between atoms: C_15  and  N_16
REMARK                            x       y       z     vdW  Elec       q    Type
REMARK                         _______ _______ _______ _____ _____    ______ ____
ROOT
ATOM      1  C   UNL     1       1.571  -1.798  -0.033  0.00  0.00    +0.309 C 
ATOM      2  O   UNL     1       0.623  -2.546  -0.036  0.00  0.00    -0.251 OA
ENDROOT
BRANCH   1   3
ATOM      3  O   UNL     1       1.377  -0.469  -0.017  0.00  0.00    -0.455 OA
BRANCH   3   4
ATOM      4  C   UNL     1       0.002  -0.004  -0.005  0.00  0.00    +0.328 C 
BRANCH   4   6
ATOM      5  N   UNL     1      -1.195   2.161   0.019  0.00  0.00    -0.283 N 
ATOM      6  C   UNL     1      -0.018   1.503   0.012  0.00  0.00    +0.255 C 
ATOM      7  O   UNL     1       1.024   2.123   0.013  0.00  0.00    -0.272 OA
ATOM      8  H   UNL     1      -2.138   1.602  -0.063  0.00  0.00    +0.155 HD
BRANCH   5  14
ATOM      9  C   UNL     1      -2.239   4.181   0.833  0.00  0.00    +0.027 A 
ATOM     10  C   UNL     1      -2.261   5.559   0.951  0.00  0.00    +0.051 A 
ATOM     11  C   UNL     1      -1.263   6.315   0.361  0.00  0.00    +0.162 A 
ATOM     12  C   UNL     1      -0.241   5.695  -0.344  0.00  0.00    +0.164 A 
ATOM     13  C   UNL     1      -0.214   4.316  -0.460  0.00  0.00    +0.072 A 
ATOM     14  C   UNL     1      -1.215   3.557   0.133  0.00  0.00    +0.037 A 
ATOM     15  O   UNL     1       0.737   6.453  -0.921  0.00  0.00    -0.488 OA
ATOM     16  C   UNL     1       0.329   7.266  -2.022  0.00  0.00    +0.232 C 
ATOM     17  C   UNL     1      -0.249   8.585  -1.534  0.00  0.00    +0.082 C 
ATOM     18  C   UNL     1      -1.532   8.396  -0.740  0.00  0.00    +0.232 C 
ATOM     19  O   UNL     1      -1.278   7.677   0.468  0.00  0.00    -0.488 OA
ENDBRANCH   5  14
ENDBRANCH   4   6
ENDBRANCH   3   4
ENDBRANCH   1   3
BRANCH   1  20
ATOM     20  C   UNL     1       2.971  -2.355  -0.046  0.00  0.00    +0.142 C 
BRANCH  20  21
ATOM     21  C   UNL     1       2.912  -3.884  -0.063  0.00  0.00    +0.137 C 
BRANCH  21  22
ATOM     22  N   UNL     1       4.273  -4.425  -0.076  0.00  0.00    -0.298 N 
ATOM     23  C   UNL     1       4.883  -4.663  -1.266  0.00  0.00    +0.203 A 
ATOM     24  N   UNL     1       6.097  -5.141  -1.319  0.00  0.00    -0.230 NA
ATOM     25  C   UNL     1       6.772  -5.420  -0.207  0.00  0.00    +0.116 A 
ATOM     26  C   UNL     1       6.223  -5.212   1.068  0.00  0.00    +0.076 A 
ATOM     27  C   UNL     1       4.891  -4.682   1.092  0.00  0.00    +0.262 A 
ATOM     28  O   UNL     1       4.329  -4.466   2.151  0.00  0.00    -0.267 OA
ATOM     29  C   UNL     1       7.081  -5.564   2.199  0.00  0.00    -0.023 A 
ATOM     30  C   UNL     1       8.306  -6.050   1.910  0.00  0.00    -0.004 A 
ATOM     31  S   UNL     1       8.387  -6.067   0.139  0.00  0.00    -0.073 S 
ATOM     32  C   UNL     1       9.364  -6.479   2.880  0.00  0.00    +0.043 C 
ATOM     33  C   UNL     1       8.995  -5.941   4.269  0.00  0.00    +0.005 C 
ATOM     34  C   UNL     1       7.521  -6.257   4.543  0.00  0.00    +0.005 C 
ATOM     35  C   UNL     1       6.630  -5.397   3.647  0.00  0.00    +0.037 C 
ENDBRANCH  21  22
ENDBRANCH  20  21
ENDBRANCH   1  20
TORSDOF 7
