REMARK  Name = ZINC36585976
REMARK  13 active torsions:
REMARK  status: ('A' for Active; 'I' for Inactive)
REMARK    1  A    between atoms: C_1  and  C_2
REMARK    2  A    between atoms: C_2  and  C_3
REMARK    3  A    between atoms: C_2  and  C_4
REMARK    4  A    between atoms: C_2  and  N_5
REMARK    5  A    between atoms: C_6  and  C_8
REMARK    6  A    between atoms: C_8  and  C_10
REMARK    7  A    between atoms: C_8  and  N_17
REMARK    8  A    between atoms: N_17  and  C_30
REMARK    9  A    between atoms: C_18  and  C_20
REMARK   10  A    between atoms: C_22  and  N_27
REMARK   11  A    between atoms: C_30  and  C_31
REMARK   12  A    between atoms: C_30  and  C_32
REMARK   13  A    between atoms: C_30  and  C_33
REMARK                            x       y       z     vdW  Elec       q    Type
REMARK                         _______ _______ _______ _____ _____    ______ ____
ROOT
ATOM      1  N   UNL     1       5.312   1.387  -2.109  0.00  0.00    -0.277 N 
ATOM      2  C   UNL     1       5.881   2.523  -2.558  0.00  0.00    +0.252 C 
ATOM      3  O   UNL     1       5.335   3.593  -2.367  0.00  0.00    -0.270 OA
ENDROOT
BRANCH   2   4
ATOM      4  C   UNL     1       7.166   2.469  -3.280  0.00  0.00    +0.086 A 
ATOM      5  C   UNL     1       7.616   1.264  -3.825  0.00  0.00    +0.049 A 
ATOM      6  C   UNL     1       8.817   1.220  -4.498  0.00  0.00    +0.127 A 
ATOM      7  C   UNL     1       9.582   2.366  -4.639  0.00  0.00    +0.036 A 
ATOM      8  C   UNL     1       9.150   3.564  -4.105  0.00  0.00    +0.054 A 
ATOM      9  C   UNL     1       7.940   3.628  -3.429  0.00  0.00    +0.191 A 
ATOM     10  O   UNL     1       7.511   4.805  -2.909  0.00  0.00    -0.287 OA
BRANCH   6  11
ATOM     11  N   UNL     1       9.292  -0.058  -5.075  0.00  0.00    +0.056 N 
ATOM     12  O   UNL     1       8.584  -1.037  -5.042  0.00  0.00    -0.126 OA
ATOM     13  O   UNL     1      10.390  -0.123  -5.578  0.00  0.00    -0.126 OA
ENDBRANCH   6  11
ENDBRANCH   2   4
BRANCH   1  14
ATOM     14  C   UNL     1       5.463   0.142  -2.867  0.00  0.00    +0.030 C 
ATOM     15  C   UNL     1       4.239  -0.747  -2.639  0.00  0.00    +0.031 C 
ATOM     16  C   UNL     1       5.588   0.466  -4.358  0.00  0.00    +0.031 C 
ATOM     17  C   UNL     1       6.721  -0.591  -2.398  0.00  0.00    +0.031 C 
ENDBRANCH   1  14
BRANCH   1  18
ATOM     18  C   UNL     1       4.542   1.395  -0.863  0.00  0.00    +0.193 C 
BRANCH  18  19
ATOM     19  C   UNL     1       3.098   1.701  -1.167  0.00  0.00    -0.018 A 
ATOM     20  C   UNL     1       2.745   2.215  -2.401  0.00  0.00    +0.007 A 
ATOM     21  C   UNL     1       1.421   2.495  -2.680  0.00  0.00    +0.020 A 
ATOM     22  C   UNL     1       0.448   2.262  -1.725  0.00  0.00    +0.041 A 
ATOM     23  C   UNL     1       0.801   1.748  -0.490  0.00  0.00    +0.020 A 
ATOM     24  C   UNL     1       2.125   1.462  -0.214  0.00  0.00    +0.007 A 
ATOM     25 CL   UNL     1      -1.215   2.614  -2.075  0.00  0.00    -0.084 Cl
ENDBRANCH  18  19
BRANCH  18  27
ATOM     26  N   UNL     1       4.411   2.800   1.169  0.00  0.00    -0.309 N 
ATOM     27  C   UNL     1       5.094   2.450   0.062  0.00  0.00    +0.239 C 
ATOM     28  O   UNL     1       6.154   2.982  -0.191  0.00  0.00    -0.273 OA
ATOM     29  H   UNL     1       3.563   2.374   1.371  0.00  0.00    +0.149 HD
BRANCH  26  31
ATOM     30  C   UNL     1       5.111   5.140   1.303  0.00  0.00    +0.031 C 
ATOM     31  C   UNL     1       4.948   3.825   2.068  0.00  0.00    +0.026 C 
ATOM     32  C   UNL     1       6.309   3.373   2.601  0.00  0.00    +0.031 C 
ATOM     33  C   UNL     1       3.985   4.032   3.238  0.00  0.00    +0.031 C 
ENDBRANCH  26  31
ENDBRANCH  18  27
ENDBRANCH   1  18
TORSDOF 7
