REMARK  Name = ZINC01505546
REMARK  6 active torsions:
REMARK  status: ('A' for Active; 'I' for Inactive)
REMARK    1  A    between atoms: C_4  and  C_7
REMARK    2  A    between atoms: C_7  and  C_8
REMARK    3  A    between atoms: C_7  and  C_23
REMARK    4  A    between atoms: C_7  and  O_29
REMARK    5  A    between atoms: C_8  and  C_9
REMARK    6  A    between atoms: N_11  and  N_12
REMARK                            x       y       z     vdW  Elec       q    Type
REMARK                         _______ _______ _______ _____ _____    ______ ____
ROOT
ATOM      1  C   UNL     1       3.537  -2.076   0.638  0.00  0.00    +0.142 C 
ENDROOT
BRANCH   1   2
ATOM      2  C   UNL     1       4.825  -2.853   0.553  0.00  0.00    +0.236 C 
ATOM      3  O   UNL     1       5.709  -2.482  -0.190  0.00  0.00    -0.274 OA
ATOM      4  N   UNL     1       4.995  -3.961   1.301  0.00  0.00    -0.206 N 
ATOM      5  H   UNL     1       4.288  -4.258   1.895  0.00  0.00    +0.177 HD
BRANCH   4   6
ATOM      6  N   UNL     1       6.192  -4.684   1.222  0.00  0.00    -0.175 NA
ATOM      7  C   UNL     1       6.317  -5.818   1.866  0.00  0.00    +0.152 C 
ATOM      8  C   UNL     1       5.257  -6.579   2.568  0.00  0.00    +0.028 A 
ATOM      9  C   UNL     1       3.898  -6.360   2.760  0.00  0.00    +0.012 A 
ATOM     10  C   UNL     1       3.152  -7.274   3.479  0.00  0.00    +0.001 A 
ATOM     11  C   UNL     1       3.758  -8.402   4.006  0.00  0.00    +0.002 A 
ATOM     12  C   UNL     1       5.107  -8.627   3.820  0.00  0.00    +0.024 A 
ATOM     13  C   UNL     1       5.874  -7.719   3.099  0.00  0.00    +0.043 A 
ATOM     14  N   UNL     1       7.225  -7.705   2.771  0.00  0.00    -0.280 N 
ATOM     15  C   UNL     1       7.544  -6.621   2.044  0.00  0.00    +0.269 C 
ATOM     16  O   UNL     1       8.649  -6.348   1.613  0.00  0.00    -0.268 OA
ATOM     17  H   UNL     1       7.857  -8.394   3.031  0.00  0.00    +0.155 HD
ENDBRANCH   4   6
ENDBRANCH   1   2
BRANCH   1  18
ATOM     18  C   UNL     1       3.604  -0.873  -0.305  0.00  0.00    +0.124 C 
BRANCH  18  22
ATOM     19  C   UNL     1      -0.048   1.330  -0.064  0.00  0.00    +0.000 A 
ATOM     20  C   UNL     1       1.134   1.982  -0.360  0.00  0.00    +0.000 A 
ATOM     21  C   UNL     1       2.316   1.270  -0.438  0.00  0.00    +0.007 A 
ATOM     22  C   UNL     1       2.315  -0.095  -0.219  0.00  0.00    -0.011 A 
ATOM     23  C   UNL     1       1.133  -0.747   0.078  0.00  0.00    +0.007 A 
ATOM     24  C   UNL     1      -0.049  -0.035   0.154  0.00  0.00    +0.000 A 
ENDBRANCH  18  22
BRANCH  18  25
ATOM     25  C   UNL     1       3.807  -1.354  -1.718  0.00  0.00    -0.011 A 
ATOM     26  C   UNL     1       3.304  -2.580  -2.110  0.00  0.00    +0.007 A 
ATOM     27  C   UNL     1       3.490  -3.021  -3.407  0.00  0.00    +0.000 A 
ATOM     28  C   UNL     1       4.180  -2.236  -4.312  0.00  0.00    +0.000 A 
ATOM     29  C   UNL     1       4.682  -1.009  -3.920  0.00  0.00    +0.000 A 
ATOM     30  C   UNL     1       4.492  -0.566  -2.625  0.00  0.00    +0.007 A 
ENDBRANCH  18  25
BRANCH  18  31
ATOM     31  O   UNL     1       4.694  -0.030   0.073  0.00  0.00    -0.379 OA
ATOM     32  H   UNL     1       4.630   0.316   0.974  0.00  0.00    +0.211 HD
ENDBRANCH  18  31
ENDBRANCH   1  18
TORSDOF 6
