REMARK  Name = ZINC42445698
REMARK  8 active torsions:
REMARK  status: ('A' for Active; 'I' for Inactive)
REMARK    1  A    between atoms: C_1  and  C_2
REMARK    2  A    between atoms: C_2  and  N_3
REMARK    3  A    between atoms: N_3  and  C_4
REMARK    4  A    between atoms: C_4  and  C_5
REMARK    5  A    between atoms: C_5  and  C_7
REMARK    6  A    between atoms: C_5  and  C_8
REMARK    7  A    between atoms: N_9  and  O_10
REMARK    8  A    between atoms: C_12  and  C_14
REMARK                            x       y       z     vdW  Elec       q    Type
REMARK                         _______ _______ _______ _____ _____    ______ ____
ROOT
ATOM      1  N   UNL     1       0.616  -0.483   1.224  0.00  0.00    -0.297 N 
ATOM      2  C   UNL     1       1.959  -0.488   1.107  0.00  0.00    +0.247 C 
ATOM      3  O   UNL     1       2.474  -0.375   0.012  0.00  0.00    -0.270 OA
ENDROOT
BRANCH   2   4
ATOM      4  C   UNL     1       2.805  -0.633   2.310  0.00  0.00    +0.037 A 
ATOM      5  C   UNL     1       2.425  -1.502   3.334  0.00  0.00    +0.014 A 
ATOM      6  C   UNL     1       3.219  -1.633   4.454  0.00  0.00    +0.016 A 
ATOM      7  C   UNL     1       4.391  -0.904   4.564  0.00  0.00    +0.018 A 
ATOM      8  C   UNL     1       4.774  -0.040   3.552  0.00  0.00    +0.016 A 
ATOM      9  C   UNL     1       3.991   0.095   2.424  0.00  0.00    +0.014 A 
ATOM     10 BR   UNL     1       5.474  -1.089   6.104  0.00  0.00    -0.050 Br
ENDBRANCH   2   4
BRANCH   1  12
ATOM     11  C   UNL     1      -0.360   1.177  -0.284  0.00  0.00    +0.024 C 
ATOM     12  C   UNL     1      -0.222  -0.313   0.035  0.00  0.00    +0.105 C 
ENDBRANCH   1  12
BRANCH   1  13
ATOM     13  C   UNL     1      -0.005  -0.646   2.541  0.00  0.00    +0.119 C 
BRANCH  13  14
ATOM     14  C   UNL     1      -0.467  -2.094   2.711  0.00  0.00    +0.070 C 
ATOM     15  C   UNL     1      -1.609  -2.383   1.735  0.00  0.00    +0.017 C 
BRANCH  14  16
ATOM     16  C   UNL     1      -0.948  -2.305   4.124  0.00  0.00    +0.136 C 
ATOM     17  N   UNL     1      -2.205  -2.196   4.401  0.00  0.00    -0.076 NA
ATOM     18  N   UNL     1      -0.047  -2.615   5.119  0.00  0.00    -0.344 N 
ATOM     19  H   UNL     1       0.896  -2.697   4.910  0.00  0.00    +0.144 HD
ATOM     20  H   UNL     1      -0.357  -2.751   6.028  0.00  0.00    +0.144 HD
BRANCH  17  21
ATOM     21  O   UNL     1      -2.657  -2.394   5.729  0.00  0.00    -0.408 OA
ATOM     22  H   UNL     1      -3.612  -2.292   5.838  0.00  0.00    +0.328 HD
ENDBRANCH  17  21
ENDBRANCH  14  16
ENDBRANCH  13  14
ENDBRANCH   1  13
TORSDOF 6
