REMARK  Name = ZINC42078926
REMARK  8 active torsions:
REMARK  status: ('A' for Active; 'I' for Inactive)
REMARK    1  A    between atoms: CD1_1  and  CG_2
REMARK    2  A    between atoms: CG_2  and  CD2_3
REMARK    3  A    between atoms: CG_2  and  CB_4
REMARK    4  A    between atoms: CB_4  and  CA_5
REMARK    5  A    between atoms: CA_5  and  C_7
REMARK    6  A    between atoms: CA_5  and  N_9
REMARK    7  A    between atoms: C_7  and  O_8
REMARK    8  A    between atoms: N_9  and  C_10
REMARK                            x       y       z     vdW  Elec       q    Type
REMARK                         _______ _______ _______ _____ _____    ______ ____
ROOT
ATOM      1  C   UNK A   0      -1.288   1.376   3.708  0.00  0.00    +0.050 C 
ATOM      2  C   UNK A   0      -1.385   2.860   3.977  0.00  0.00    -0.028 A 
ATOM      3  C   UNK A   0      -0.476   3.791   4.428  0.00  0.00    +0.042 A 
ATOM      4  C   UNK A   0      -0.860   5.114   4.582  0.00  0.00    +0.125 A 
ATOM      5  C   UNK A   0      -2.158   5.493   4.281  0.00  0.00    +0.055 A 
ATOM      6  C   UNK A   0      -3.069   4.560   3.829  0.00  0.00    +0.042 A 
ATOM      7  C   UNK A   0      -2.689   3.228   3.672  0.00  0.00    +0.050 A 
ATOM      8  N   UNK A   0      -3.415   2.117   3.237  0.00  0.00    -0.285 N 
ATOM      9  C   UNK A   0      -2.672   0.993   3.230  0.00  0.00    +0.208 C 
ATOM     10  O   UNK A   0      -3.041  -0.115   2.902  0.00  0.00    -0.277 OA
ATOM     11 BR   UNK A   0      -4.838   5.091   3.422  0.00  0.00    -0.048 Br
ATOM     12  F   UNK A   0       0.028   6.030   5.025  0.00  0.00    -0.205 F 
ATOM     13  H   UNK A   0      -4.348   2.150   2.973  0.00  0.00    +0.155 HD
ENDROOT
BRANCH   1  14
ATOM     14  N   LEU A   1      -0.290   1.107   2.663  0.00  0.00    +0.393 N 
ATOM     15  H1  LEU A   1       0.600   1.490   2.942  0.00  0.00    -0.084 HD
ATOM     16  H2  LEU A   1      -0.585   1.535   1.798  0.00  0.00    -0.084 HD
BRANCH  14  17
ATOM     17  CA  LEU A   1      -0.161  -0.344   2.472  0.00  0.00    -0.044 C 
BRANCH  17  18
ATOM     18  CB  LEU A   1       0.777  -0.621   1.295  0.00  0.00    -0.011 C 
BRANCH  18  20
ATOM     19  CD1 LEU A   1       1.133  -0.258  -1.151  0.00  0.00    +0.007 C 
ATOM     20  CG  LEU A   1       0.137  -0.113   0.002  0.00  0.00    -0.019 C 
ATOM     21  CD2 LEU A   1      -1.118  -0.933  -0.302  0.00  0.00    +0.007 C 
ENDBRANCH  18  20
ENDBRANCH  17  18
BRANCH  17  22
ATOM     22  C   LEU A   1       0.413  -0.976   3.742  0.00  0.00    +0.140 C 
BRANCH  22  23
ATOM     23  O   LEU A   1       1.745  -0.502   3.950  0.00  0.00    -0.397 OA
ATOM     24  H   LEU A   1       2.171  -0.862   4.740  0.00  0.00    +0.209 HD
ENDBRANCH  22  23
ENDBRANCH  17  22
ENDBRANCH  14  17
ENDBRANCH   1  14
TORSDOF 6
