REMARK  Name = ZINC38799963
REMARK  6 active torsions:
REMARK  status: ('A' for Active; 'I' for Inactive)
REMARK    1  A    between atoms: C_1  and  C_2
REMARK    2  A    between atoms: C_6  and  N_8
REMARK    3  A    between atoms: C_9  and  C_11
REMARK    4  A    between atoms: N_23  and  N_27
REMARK    5  A    between atoms: C_24  and  N_26
REMARK    6  A    between atoms: C_28  and  C_29
REMARK                            x       y       z     vdW  Elec       q    Type
REMARK                         _______ _______ _______ _____ _____    ______ ____
ROOT
ATOM      1  C   UNL     1       0.096  -5.085   3.540  0.00  0.00    +0.132 C 
ATOM      2  C   UNL     1       1.314  -4.803   4.393  0.00  0.00    +0.095 A 
ATOM      3  C   UNL     1       2.060  -5.987   4.498  0.00  0.00    +0.162 A 
ATOM      4  N   UNL     1       3.185  -5.994   5.204  0.00  0.00    -0.227 NA
ATOM      5  C   UNL     1       3.602  -4.879   5.810  0.00  0.00    +0.091 A 
ATOM      6  C   UNL     1       4.791  -4.864   6.561  0.00  0.00    +0.030 A 
ATOM      7  C   UNL     1       5.192  -3.713   7.167  0.00  0.00    +0.002 A 
ATOM      8  C   UNL     1       4.442  -2.544   7.055  0.00  0.00    +0.002 A 
ATOM      9  C   UNL     1       3.286  -2.521   6.336  0.00  0.00    +0.030 A 
ATOM     10  C   UNL     1       2.840  -3.690   5.696  0.00  0.00    +0.090 A 
ATOM     11  N   UNL     1       1.708  -3.699   4.982  0.00  0.00    -0.246 NA
ATOM     12  N   UNL     1       1.462  -7.027   3.801  0.00  0.00    -0.219 N 
ATOM     13  C   UNL     1       0.223  -6.570   3.164  0.00  0.00    +0.058 C 
ENDROOT
BRANCH   1  15
ATOM     14  N   UNL     1      -1.050  -3.840   1.736  0.00  0.00    -0.285 N 
ATOM     15  C   UNL     1       0.111  -4.225   2.302  0.00  0.00    +0.226 C 
ATOM     16  O   UNL     1       1.167  -3.881   1.816  0.00  0.00    -0.275 OA
ATOM     17  H   UNL     1      -1.893  -4.058   2.162  0.00  0.00    +0.155 HD
BRANCH  14  23
ATOM     18  C   UNL     1      -3.110  -2.839  -2.615  0.00  0.00    +0.044 C 
ATOM     19  C   UNL     1      -2.024  -2.620  -1.593  0.00  0.00    -0.049 A 
ATOM     20  C   UNL     1      -1.013  -1.710  -1.845  0.00  0.00    +0.003 A 
ATOM     21  C   UNL     1      -0.015  -1.506  -0.910  0.00  0.00    +0.002 A 
ATOM     22  C   UNL     1      -0.024  -2.210   0.278  0.00  0.00    +0.023 A 
ATOM     23  C   UNL     1      -1.037  -3.124   0.533  0.00  0.00    +0.034 A 
ATOM     24  C   UNL     1      -2.042  -3.324  -0.405  0.00  0.00    +0.026 A 
ENDBRANCH  14  23
ENDBRANCH   1  15
BRANCH  13  25
ATOM     25  N   UNL     1       0.315  -6.719   1.705  0.00  0.00    +0.392 N 
ATOM     26  H   UNL     1       1.169  -6.293   1.377  0.00  0.00    -0.087 HD
ATOM     27  H   UNL     1       0.314  -7.699   1.467  0.00  0.00    -0.087 HD
ATOM     28  H   UNL     1      -0.475  -6.266   1.270  0.00  0.00    -0.087 HD
ENDBRANCH  13  25
BRANCH  12  29
ATOM     29  N   UNL     1       1.930  -8.227   3.726  0.00  0.00    -0.188 NA
ATOM     30  C   UNL     1       1.229  -9.168   3.138  0.00  0.00    +0.136 C 
BRANCH  30  31
ATOM     31  C   UNL     1       1.690 -10.488   3.141  0.00  0.00    +0.000 C 
ATOM     32  C   UNL     1       1.074 -11.599   2.562  0.00  0.00    +0.004 A 
ATOM     33  C   UNL     1      -0.126 -11.752   1.835  0.00  0.00    +0.010 A 
ATOM     34  C   UNL     1      -0.486 -12.980   1.381  0.00  0.00    +0.001 A 
ATOM     35  C   UNL     1       0.305 -14.107   1.615  0.00  0.00    +0.002 A 
ATOM     36  C   UNL     1       1.469 -14.033   2.305  0.00  0.00    +0.026 A 
ATOM     37  C   UNL     1       1.911 -12.783   2.811  0.00  0.00    +0.043 A 
ATOM     38  N   UNL     1       2.985 -12.452   3.501  0.00  0.00    -0.380 N 
ATOM     39  C   UNL     1       2.963 -11.011   3.768  0.00  0.00    +0.150 C 
ATOM     40  H   UNL     1       3.682 -13.065   3.783  0.00  0.00    +0.160 HD
ENDBRANCH  30  31
ENDBRANCH  12  29
TORSDOF 5
