REMARK  Name = ZINC20606398
REMARK  5 active torsions:
REMARK  status: ('A' for Active; 'I' for Inactive)
REMARK    1  A    between atoms: C_1  and  C_2
REMARK    2  A    between atoms: C_5  and  C_8
REMARK    3  A    between atoms: N_17  and  C_20
REMARK    4  A    between atoms: N_23  and  C_26
REMARK    5  A    between atoms: C_24  and  C_25
REMARK                            x       y       z     vdW  Elec       q    Type
REMARK                         _______ _______ _______ _____ _____    ______ ____
ROOT
ATOM      1  C   UNL     1       2.355   0.214   0.619  0.00  0.00    +0.164 C 
ATOM      2  N   UNL     1       1.164  -0.551   1.056  0.00  0.00    -0.284 N 
ATOM      3  C   UNL     1       0.000  -0.271   0.189  0.00  0.00    +0.173 C 
ATOM      4  C   UNL     1      -0.175   1.270   0.097  0.00  0.00    +0.103 C 
ATOM      5  S   UNL     1       1.601   1.748  -0.071  0.00  0.00    -0.131 S 
ATOM      6  C   UNL     1      -1.167  -0.884   0.927  0.00  0.00    +0.247 C 
ATOM      7  O   UNL     1      -2.343  -0.792   0.647  0.00  0.00    -0.273 OA
ATOM      8  N   UNL     1      -0.604  -1.554   1.972  0.00  0.00    -0.217 N 
ATOM      9  C   UNL     1       0.726  -1.399   2.004  0.00  0.00    +0.148 C 
ATOM     10  S   UNL     1       1.751  -2.189   3.124  0.00  0.00    -0.018 S 
ENDROOT
BRANCH   1  15
ATOM     11  C   UNL     1       5.266  -2.663  -3.460  0.00  0.00    +0.044 C 
ATOM     12  C   UNL     1       4.507  -1.912  -2.397  0.00  0.00    -0.050 A 
ATOM     13  C   UNL     1       3.179  -1.585  -2.596  0.00  0.00    +0.004 A 
ATOM     14  C   UNL     1       2.483  -0.897  -1.620  0.00  0.00    +0.006 A 
ATOM     15  C   UNL     1       3.115  -0.536  -0.445  0.00  0.00    -0.017 A 
ATOM     16  C   UNL     1       4.444  -0.858  -0.248  0.00  0.00    +0.006 A 
ATOM     17  C   UNL     1       5.139  -1.550  -1.222  0.00  0.00    +0.004 A 
ENDBRANCH   1  15
BRANCH   8  18
ATOM     18  C   UNL     1      -1.334  -2.321   2.901  0.00  0.00    +0.083 A 
ATOM     19  C   UNL     1      -1.884  -1.858   4.105  0.00  0.00    +0.158 A 
ATOM     20  N   UNL     1      -2.486  -2.861   4.692  0.00  0.00    -0.178 NA
ATOM     21  N   UNL     1      -2.341  -3.996   3.885  0.00  0.00    -0.270 N 
ATOM     22  C   UNL     1      -1.635  -3.640   2.788  0.00  0.00    +0.058 A 
ATOM     23  C   UNL     1      -1.249  -4.545   1.646  0.00  0.00    +0.067 C 
ATOM     24  C   UNL     1      -2.866  -5.332   4.175  0.00  0.00    +0.172 C 
ENDBRANCH   8  18
TORSDOF 2
