REMARK  Name = ZINC64191137
REMARK  5 active torsions:
REMARK  status: ('A' for Active; 'I' for Inactive)
REMARK    1  A    between atoms: C_1  and  C_2
REMARK    2  A    between atoms: C_4  and  C_16
REMARK    3  A    between atoms: N_8  and  C_9
REMARK    4  A    between atoms: N_18  and  N_19
REMARK    5  A    between atoms: C_20  and  C_22
REMARK                            x       y       z     vdW  Elec       q    Type
REMARK                         _______ _______ _______ _____ _____    ______ ____
ROOT
ATOM      1  C   UNL     1       0.460  -0.297  -2.556  0.00  0.00    +0.259 C 
ATOM      2  O   UNL     1       1.168  -0.768  -3.428  0.00  0.00    -0.269 OA
ATOM      3  N   UNL     1      -0.623   0.434  -2.889  0.00  0.00    -0.230 N 
ATOM      4  H   UNL     1      -1.187   0.809  -2.194  0.00  0.00    +0.173 HD
ENDROOT
BRANCH   1   7
ATOM      5  C   UNL     1      -0.019   1.526   0.010  0.00  0.00    +0.035 C 
ATOM      6  C   UNL     1       0.002  -0.004   0.002  0.00  0.00    +0.127 C 
ATOM      7  C   UNL     1       0.774  -0.516  -1.195  0.00  0.00    +0.052 C 
ATOM      8  H   UNL     1       2.498  -1.693   1.179  0.00  0.00    +0.169 HD
ATOM      9  C   UNL     1       1.816  -1.222  -0.716  0.00  0.00    +0.098 C 
ATOM     10  N   UNL     1       1.830  -1.239   0.642  0.00  0.00    -0.270 N 
ATOM     11  N   UNL     1       0.747  -0.515   1.165  0.00  0.00    -0.246 N 
BRANCH  11  12
ATOM     12  C   UNL     1       0.438  -0.318   2.513  0.00  0.00    +0.048 A 
ATOM     13  C   UNL     1      -0.680   0.426   2.869  0.00  0.00    +0.026 A 
ATOM     14  C   UNL     1      -0.983   0.620   4.203  0.00  0.00    +0.022 A 
ATOM     15  C   UNL     1      -0.174   0.073   5.184  0.00  0.00    +0.041 A 
ATOM     16  C   UNL     1       0.940  -0.668   4.832  0.00  0.00    +0.022 A 
ATOM     17  C   UNL     1       1.245  -0.869   3.500  0.00  0.00    +0.026 A 
ATOM     18 CL   UNL     1      -0.558   0.319   6.859  0.00  0.00    -0.084 Cl
ENDBRANCH  11  12
ENDBRANCH   1   7
BRANCH   3  19
ATOM     19  N   UNL     1      -0.934   0.651  -4.237  0.00  0.00    -0.230 N 
ATOM     20  C   UNL     1      -2.016   1.382  -4.570  0.00  0.00    +0.258 C 
ATOM     21  O   UNL     1      -2.724   1.852  -3.699  0.00  0.00    -0.269 OA
ATOM     22  H   UNL     1      -0.370   0.276  -4.932  0.00  0.00    +0.173 HD
BRANCH  20  23
ATOM     23  C   UNL     1      -2.342   1.609  -5.982  0.00  0.00    +0.044 C 
ATOM     24  C   UNL     1      -3.401   2.332  -6.485  0.00  0.00    +0.008 A 
ATOM     25  C   UNL     1      -4.460   3.047  -5.870  0.00  0.00    +0.010 A 
ATOM     26  C   UNL     1      -5.384   3.679  -6.625  0.00  0.00    +0.001 A 
ATOM     27  C   UNL     1      -5.349   3.662  -8.029  0.00  0.00    +0.002 A 
ATOM     28  C   UNL     1      -4.384   3.011  -8.713  0.00  0.00    +0.026 A 
ATOM     29  C   UNL     1      -3.337   2.296  -7.967  0.00  0.00    +0.043 A 
ATOM     30  N   UNL     1      -2.308   1.599  -8.362  0.00  0.00    -0.380 N 
ATOM     31  C   UNL     1      -1.581   1.105  -7.188  0.00  0.00    +0.154 C 
ATOM     32  H   UNL     1      -2.061   1.436  -9.286  0.00  0.00    +0.160 HD
ENDBRANCH  20  23
ENDBRANCH   3  19
TORSDOF 4
