REMARK  Name = ZINC62048648
REMARK  14 active torsions:
REMARK  status: ('A' for Active; 'I' for Inactive)
REMARK    1  A    between atoms: C_1  and  C_2
REMARK    2  A    between atoms: C_2  and  C_3
REMARK    3  A    between atoms: C_2  and  C_4
REMARK    4  A    between atoms: C_2  and  C_5
REMARK    5  A    between atoms: C_5  and  C_6
REMARK    6  A    between atoms: C_6  and  C_7
REMARK    7  A    between atoms: C_6  and  C_8
REMARK    8  A    between atoms: C_6  and  N_9
REMARK    9  A    between atoms: C_10  and  C_12
REMARK   10  A    between atoms: C_12  and  C_13
REMARK   11  A    between atoms: C_16  and  C_18
REMARK   12  A    between atoms: C_22  and  C_24
REMARK   13  A    between atoms: C_24  and  N_25
REMARK   14  A    between atoms: N_28  and  C_31
REMARK                            x       y       z     vdW  Elec       q    Type
REMARK                         _______ _______ _______ _____ _____    ______ ____
ROOT
ATOM      1  C   UNL     1       6.801  -0.064  -4.117  0.00  0.00    +0.058 A 
ATOM      2  C   UNL     1       7.796  -0.965  -4.333  0.00  0.00    +0.071 A 
ATOM      3  S   UNL     1       9.234   0.052  -4.023  0.00  0.00    -0.075 S 
ATOM      4  C   UNL     1       8.355   1.562  -3.640  0.00  0.00    +0.109 A 
ATOM      5  N   UNL     1       7.097   1.170  -3.784  0.00  0.00    -0.243 NA
ENDROOT
BRANCH   4   6
ATOM      6  C   UNL     1       8.889   2.890  -3.270  0.00  0.00    +0.007 A 
ATOM      7  C   UNL     1       8.016   3.946  -3.002  0.00  0.00    +0.010 A 
ATOM      8  C   UNL     1       8.521   5.182  -2.657  0.00  0.00    +0.001 A 
ATOM      9  C   UNL     1       9.888   5.377  -2.575  0.00  0.00    +0.005 A 
ATOM     10  C   UNL     1      10.758   4.335  -2.840  0.00  0.00    -0.033 A 
ATOM     11  C   UNL     1      10.267   3.091  -3.180  0.00  0.00    +0.015 A 
BRANCH  10  12
ATOM     12  C   UNL     1      12.246   4.556  -2.749  0.00  0.00    +0.119 C 
BRANCH  12  13
ATOM     13  N   UNL     1      12.702   4.266  -1.383  0.00  0.00    -0.302 NA
ATOM     14  C   UNL     1      12.151   5.237  -0.427  0.00  0.00    +0.066 C 
ATOM     15  C   UNL     1      12.601   4.866   0.988  0.00  0.00    -0.064 C 
ATOM     16  N   UNL     1      14.068   4.868   1.052  0.00  0.00    +0.379 N 
ATOM     17  C   UNL     1      14.603   3.877   0.110  0.00  0.00    -0.064 C 
ATOM     18  C   UNL     1      14.170   4.240  -1.313  0.00  0.00    +0.066 C 
ATOM     19  C   UNL     1      14.499   4.530   2.415  0.00  0.00    -0.096 C 
ATOM     20  H   UNL     1      14.413   5.785   0.809  0.00  0.00    -0.082 HD
ENDBRANCH  12  13
ENDBRANCH  10  12
ENDBRANCH   4   6
BRANCH   1  21
ATOM     21  C   UNL     1       5.360  -0.480  -4.266  0.00  0.00    +0.151 C 
BRANCH  21  23
ATOM     22  N   UNL     1       3.298  -0.448  -2.900  0.00  0.00    -0.310 N 
ATOM     23  C   UNL     1       4.611  -0.161  -2.998  0.00  0.00    +0.219 C 
ATOM     24  O   UNL     1       5.190   0.354  -2.065  0.00  0.00    -0.275 OA
ATOM     25  H   UNL     1       2.834  -0.860  -3.647  0.00  0.00    +0.149 HD
BRANCH  22  26
ATOM     26  C   UNL     1       2.570  -0.137  -1.668  0.00  0.00    +0.029 C 
ATOM     27  C   UNL     1       2.773   1.337  -1.312  0.00  0.00    +0.031 C 
ATOM     28  C   UNL     1       3.097  -1.014  -0.530  0.00  0.00    +0.031 C 
BRANCH  26  29
ATOM     29  C   UNL     1       1.078  -0.411  -1.873  0.00  0.00    +0.031 C 
BRANCH  29  31
ATOM     30  C   UNL     1       1.014  -0.865  -4.329  0.00  0.00    +0.010 C 
ATOM     31  C   UNL     1       0.642   0.136  -3.234  0.00  0.00    -0.036 C 
ATOM     32  C   UNL     1       1.349   1.467  -3.498  0.00  0.00    +0.010 C 
ATOM     33  C   UNL     1      -0.872   0.354  -3.234  0.00  0.00    +0.010 C 
ENDBRANCH  29  31
ENDBRANCH  26  29
ENDBRANCH  22  26
ENDBRANCH  21  23
ENDBRANCH   1  21
TORSDOF 8
