REMARK  Name = ZINC14070157
REMARK  10 active torsions:
REMARK  status: ('A' for Active; 'I' for Inactive)
REMARK    1  A    between atoms: C_1  and  C_2
REMARK    2  A    between atoms: C_2  and  C_4
REMARK    3  A    between atoms: C_2  and  N_60
REMARK    4  A    between atoms: N_6  and  C_7
REMARK    5  A    between atoms: C_8  and  C_15
REMARK    6  A    between atoms: C_21  and  C_23
REMARK    7  A    between atoms: C_26  and  O_31
REMARK    8  A    between atoms: C_28  and  O_29
REMARK    9  A    between atoms: O_29  and  C_30
REMARK   10  A    between atoms: O_31  and  C_32
REMARK                            x       y       z     vdW  Elec       q    Type
REMARK                         _______ _______ _______ _____ _____    ______ ____
ROOT
ATOM      1  C   UNL     1      -2.155   1.495  -1.185  0.00  0.00    -0.004 C 
ATOM      2  C   UNL     1      -0.713   2.005  -1.173  0.00  0.00    +0.017 C 
ENDROOT
BRANCH   2   7
ATOM      3  C   UNL     1       1.417   1.866  -0.001  0.00  0.00    -0.077 C 
ATOM      4  C   UNL     1       2.100   0.848   0.937  0.00  0.00    -0.020 C 
ATOM      5  C   UNL     1       1.169  -0.382   0.939  0.00  0.00    -0.012 C 
ATOM      6  C   UNL     1       0.002  -0.004   0.002  0.00  0.00    -0.033 C 
ATOM      7  N   UNL     1       0.013   1.463   0.019  0.00  0.00    +0.392 N 
ATOM      8  H   UNL     1      -0.439   1.808   0.874  0.00  0.00    -0.080 HD
BRANCH   6   9
ATOM      9  C   UNL     1      -1.298  -0.550   0.535  0.00  0.00    -0.019 A 
ATOM     10  C   UNL     1      -2.115   0.248   1.312  0.00  0.00    +0.009 A 
ATOM     11  C   UNL     1      -3.307  -0.250   1.802  0.00  0.00    +0.046 A 
ATOM     12  C   UNL     1      -3.687  -1.553   1.514  0.00  0.00    +0.124 A 
ATOM     13  C   UNL     1      -2.869  -2.356   0.734  0.00  0.00    +0.091 A 
ATOM     14  C   UNL     1      -1.675  -1.852   0.239  0.00  0.00    +0.125 A 
BRANCH  14  15
ATOM     15  O   UNL     1      -0.874  -2.635  -0.530  0.00  0.00    -0.495 OA
ATOM     16  C   UNL     1      -1.325  -3.965  -0.793  0.00  0.00    +0.277 C 
ENDBRANCH  14  15
BRANCH  12  17
ATOM     17  O   UNL     1      -4.860  -2.042   1.995  0.00  0.00    -0.495 OA
ATOM     18  C   UNL     1      -5.653  -1.159   2.791  0.00  0.00    +0.277 C 
ENDBRANCH  12  17
ENDBRANCH   6   9
ENDBRANCH   2   7
BRANCH   2  19
ATOM     19  C   UNL     1      -0.713   3.511  -1.130  0.00  0.00    +0.204 C 
ATOM     20  O   UNL     1      -0.186   4.092  -0.205  0.00  0.00    -0.277 OA
ATOM     21  N   UNL     1      -1.299   4.214  -2.120  0.00  0.00    -0.281 N 
ATOM     22  H   UNL     1      -1.720   3.750  -2.861  0.00  0.00    +0.155 HD
BRANCH  21  23
ATOM     23  C   UNL     1      -1.299   5.600  -2.081  0.00  0.00    +0.084 A 
ATOM     24  C   UNL     1      -1.843   6.486  -2.994  0.00  0.00    +0.068 A 
ATOM     25  C   UNL     1      -1.705   7.915  -2.715  0.00  0.00    -0.023 A 
ATOM     26  C   UNL     1      -1.052   8.215  -1.578  0.00  0.00    -0.004 A 
ATOM     27  S   UNL     1      -0.626   6.641  -0.874  0.00  0.00    -0.077 S 
ATOM     28  C   UNL     1      -0.955   9.700  -1.358  0.00  0.00    +0.043 C 
ATOM     29  C   UNL     1      -2.016  10.305  -2.304  0.00  0.00    +0.010 C 
ATOM     30  C   UNL     1      -2.116   9.222  -3.397  0.00  0.00    +0.037 C 
BRANCH  24  31
ATOM     31  C   UNL     1      -2.534   6.010  -4.197  0.00  0.00    +0.244 C 
ATOM     32  O   UNL     1      -3.732   5.798  -4.166  0.00  0.00    -0.270 OA
ATOM     33  N   UNL     1      -1.842   5.808  -5.335  0.00  0.00    -0.325 N 
ATOM     34  H   UNL     1      -0.887   5.977  -5.359  0.00  0.00    +0.145 HD
ATOM     35  H   UNL     1      -2.299   5.493  -6.131  0.00  0.00    +0.145 HD
ENDBRANCH  24  31
ENDBRANCH  21  23
ENDBRANCH   2  19
TORSDOF 7
