REMARK  Name = ZINC41650136
REMARK  4 active torsions:
REMARK  status: ('A' for Active; 'I' for Inactive)
REMARK    1  A    between atoms: C_1  and  C_2
REMARK    2  A    between atoms: C_11  and  C_12
REMARK    3  A    between atoms: N_23  and  C_26
REMARK    4  A    between atoms: C_26  and  C_27
REMARK                            x       y       z     vdW  Elec       q    Type
REMARK                         _______ _______ _______ _____ _____    ______ ____
ROOT
ATOM      1  C   UNL     1       0.368   1.463  -0.008  0.00  0.00    +0.045 C 
ATOM      2  C   UNL     1       0.060  -0.012  -0.001  0.00  0.00    -0.033 A 
ATOM      3  C   UNL     1      -0.161  -0.670  -1.177  0.00  0.00    +0.050 A 
ATOM      4  C   UNL     1      -0.446  -2.035  -1.178  0.00  0.00    +0.131 A 
ATOM      5  C   UNL     1      -0.506  -2.739   0.013  0.00  0.00    +0.051 A 
ATOM      6  C   UNL     1      -0.286  -2.083   1.220  0.00  0.00    +0.148 A 
ATOM      7  C   UNL     1       0.005  -0.710   1.206  0.00  0.00    +0.071 A 
ATOM      8  C   UNL     1       0.195  -0.310   2.612  0.00  0.00    +0.232 C 
ATOM      9  O   UNL     1       0.459   0.799   3.043  0.00  0.00    -0.283 OA
ATOM     10  C   UNL     1      -0.005  -1.549   3.377  0.00  0.00    +0.176 C 
ATOM     11  C   UNL     1       0.070  -1.680   4.726  0.00  0.00    +0.058 C 
ATOM     12  O   UNL     1      -0.291  -2.534   2.493  0.00  0.00    -0.451 OA
ATOM     13  C   UNL     1      -0.804  -4.216   0.025  0.00  0.00    +0.130 C 
ATOM     14  N   UNL     1      -1.396  -4.610  -1.261  0.00  0.00    -0.261 NA
ATOM     15  C   UNL     1      -0.586  -4.088  -2.374  0.00  0.00    +0.319 C 
ATOM     16  O   UNL     1      -0.664  -2.661  -2.365  0.00  0.00    -0.476 OA
ENDROOT
BRANCH  11  17
ATOM     17  C   UNL     1      -0.017  -3.010   5.341  0.00  0.00    -0.018 A 
ATOM     18  C   UNL     1      -0.114  -3.136   6.732  0.00  0.00    +0.012 A 
ATOM     19  C   UNL     1      -0.195  -4.385   7.306  0.00  0.00    +0.050 A 
ATOM     20  C   UNL     1      -0.181  -5.523   6.509  0.00  0.00    +0.166 A 
ATOM     21  C   UNL     1      -0.085  -5.406   5.121  0.00  0.00    +0.167 A 
ATOM     22  C   UNL     1      -0.009  -4.157   4.538  0.00  0.00    +0.057 A 
ATOM     23  O   UNL     1      -0.091  -6.658   4.577  0.00  0.00    -0.453 OA
ATOM     24  C   UNL     1       0.220  -7.550   5.663  0.00  0.00    +0.466 C 
ATOM     25  O   UNL     1      -0.248  -6.848   6.829  0.00  0.00    -0.453 OA
ENDBRANCH  11  17
BRANCH  14  26
ATOM     26  C   UNL     1      -1.537  -6.069  -1.351  0.00  0.00    +0.130 C 
BRANCH  26  27
ATOM     27  C   UNL     1      -2.363  -6.420  -2.562  0.00  0.00    +0.004 A 
ATOM     28  C   UNL     1      -1.956  -6.673  -3.830  0.00  0.00    +0.012 A 
ATOM     29  C   UNL     1      -2.902  -6.978  -4.790  0.00  0.00    +0.008 A 
ATOM     30  C   UNL     1      -4.210  -7.016  -4.435  0.00  0.00    +0.045 A 
ATOM     31  S   UNL     1      -4.133  -6.619  -2.696  0.00  0.00    -0.100 S 
ENDBRANCH  26  27
ENDBRANCH  14  26
TORSDOF 3
