REMARK  Name = ZINC39198978
REMARK  13 active torsions:
REMARK  status: ('A' for Active; 'I' for Inactive)
REMARK    1  A    between atoms: C_4  and  C_7
REMARK    2  A    between atoms: C_7  and  N_8
REMARK    3  A    between atoms: N_8  and  C_9
REMARK    4  A    between atoms: N_8  and  C_14
REMARK    5  A    between atoms: C_9  and  C_10
REMARK    6  A    between atoms: C_10  and  C_11
REMARK    7  A    between atoms: C_11  and  C_12
REMARK    8  A    between atoms: C_12  and  O_13
REMARK    9  A    between atoms: C_14  and  C_15
REMARK   10  A    between atoms: N_17  and  C_18
REMARK   11  A    between atoms: C_21  and  C_25
REMARK   12  A    between atoms: C_25  and  C_27
REMARK   13  A    between atoms: C_25  and  C_29
REMARK                            x       y       z     vdW  Elec       q    Type
REMARK                         _______ _______ _______ _____ _____    ______ ____
ROOT
ATOM      1  C   UNL     1       4.235   0.786   0.202  0.00  0.00    +0.201 C 
ATOM      2  O   UNL     1       3.962   1.965   0.116  0.00  0.00    -0.278 OA
ATOM      3  N   UNL     1       5.517   0.383   0.101  0.00  0.00    -0.287 N 
ATOM      4  H   UNL     1       5.728  -0.564   0.091  0.00  0.00    +0.155 HD
ENDROOT
BRANCH   3   5
ATOM      5  C   UNL     1       6.544   1.329   0.012  0.00  0.00    +0.035 A 
ATOM      6  C   UNL     1       7.679   1.055  -0.739  0.00  0.00    +0.024 A 
ATOM      7  C   UNL     1       8.691   1.991  -0.827  0.00  0.00    +0.008 A 
ATOM      8  C   UNL     1       8.575   3.201  -0.166  0.00  0.00    -0.008 A 
ATOM      9  C   UNL     1       7.445   3.477   0.583  0.00  0.00    +0.047 A 
ATOM     10  C   UNL     1       6.427   2.546   0.669  0.00  0.00    +0.043 A 
ATOM     11 CL   UNL     1       7.304   4.997   1.411  0.00  0.00    -0.083 Cl
BRANCH   8  12
ATOM     12  C   UNL     1       9.682   4.219  -0.263  0.00  0.00    +0.153 C 
BRANCH  12  13
ATOM     13  C   UNL     1       9.805   4.693  -1.688  0.00  0.00    -0.026 A 
ATOM     14  C   UNL     1      10.278   3.836  -2.663  0.00  0.00    +0.005 A 
ATOM     15  C   UNL     1      10.391   4.271  -3.970  0.00  0.00    +0.000 A 
ATOM     16  C   UNL     1      10.031   5.563  -4.303  0.00  0.00    +0.000 A 
ATOM     17  C   UNL     1       9.557   6.421  -3.327  0.00  0.00    +0.000 A 
ATOM     18  C   UNL     1       9.440   5.984  -2.021  0.00  0.00    +0.005 A 
ENDBRANCH  12  13
BRANCH  12  19
ATOM     19  C   UNL     1      10.951   3.607   0.162  0.00  0.00    +0.075 C 
ATOM     20  N   UNL     1      11.931   3.134   0.490  0.00  0.00    -0.196 NA
ENDBRANCH  12  19
ENDBRANCH   8  12
ENDBRANCH   3   5
BRANCH   1  21
ATOM     21  C   UNL     1       3.141  -0.227   0.421  0.00  0.00    +0.019 C 
BRANCH  21  22
ATOM     22  N   UNL     1       1.845   0.461   0.495  0.00  0.00    +0.388 N 
ATOM     23  H   UNL     1       1.883   1.173   1.209  0.00  0.00    -0.081 HD
BRANCH  22  24
ATOM     24  C   UNL     1       1.545   1.082  -0.802  0.00  0.00    -0.042 C 
BRANCH  24  28
ATOM     25  C   UNL     1       1.417  -1.928  -3.830  0.00  0.00    +0.000 A 
ATOM     26  C   UNL     1       0.263  -1.577  -3.154  0.00  0.00    +0.000 A 
ATOM     27  C   UNL     1       0.305  -0.604  -2.174  0.00  0.00    +0.002 A 
ATOM     28  C   UNL     1       1.500   0.019  -1.869  0.00  0.00    -0.064 A 
ATOM     29  C   UNL     1       2.655  -0.332  -2.544  0.00  0.00    +0.002 A 
ATOM     30  C   UNL     1       2.613  -1.305  -3.525  0.00  0.00    +0.000 A 
ENDBRANCH  24  28
ENDBRANCH  22  24
BRANCH  22  31
ATOM     31  C   UNL     1       0.794  -0.510   0.828  0.00  0.00    -0.078 C 
BRANCH  31  32
ATOM     32  C   UNL     1      -0.528   0.226   1.051  0.00  0.00    -0.016 C 
BRANCH  32  33
ATOM     33  C   UNL     1      -1.636  -0.790   1.335  0.00  0.00    +0.026 C 
BRANCH  33  34
ATOM     34  C   UNL     1      -2.958  -0.054   1.559  0.00  0.00    +0.156 C 
BRANCH  34  35
ATOM     35  O   UNL     1      -3.993  -1.004   1.824  0.00  0.00    -0.395 OA
ATOM     36  H   UNL     1      -4.862  -0.606   1.976  0.00  0.00    +0.209 HD
ENDBRANCH  34  35
ENDBRANCH  33  34
ENDBRANCH  32  33
ENDBRANCH  31  32
ENDBRANCH  22  31
ENDBRANCH  21  22
ENDBRANCH   1  21
TORSDOF 13
