REMARK  Name = ZINC08532362
REMARK  11 active torsions:
REMARK  status: ('A' for Active; 'I' for Inactive)
REMARK    1  A    between atoms: C_1  and  C_2
REMARK    2  A    between atoms: C_2  and  C_4
REMARK    3  A    between atoms: C_2  and  N_19
REMARK    4  A    between atoms: N_6  and  C_7
REMARK    5  A    between atoms: C_7  and  C_8
REMARK    6  A    between atoms: C_8  and  C_9
REMARK    7  A    between atoms: C_12  and  S_15
REMARK    8  A    between atoms: S_15  and  N_18
REMARK    9  A    between atoms: N_19  and  C_20
REMARK   10  A    between atoms: N_19  and  C_21
REMARK   11  A    between atoms: C_21  and  C_22
REMARK                            x       y       z     vdW  Elec       q    Type
REMARK                         _______ _______ _______ _____ _____    ______ ____
ROOT
ATOM      1  C   UNL     1       0.568  -0.547   1.434  0.00  0.00    +0.199 C 
ATOM      2  O   UNL     1      -0.106  -1.166   2.230  0.00  0.00    -0.278 OA
ATOM      3  N   UNL     1       1.864  -0.291   1.704  0.00  0.00    -0.316 N 
ATOM      4  H   UNL     1       2.403   0.204   1.067  0.00  0.00    +0.149 HD
ENDROOT
BRANCH   1   6
ATOM      5  C   UNL     1      -0.561   1.361   0.325  0.00  0.00    -0.004 C 
ATOM      6  C   UNL     1      -0.042  -0.066   0.143  0.00  0.00    +0.016 C 
BRANCH   6   7
ATOM      7  N   UNL     1      -1.156  -0.948  -0.231  0.00  0.00    +0.388 N 
ATOM      8  C   UNL     1      -1.773  -0.459  -1.471  0.00  0.00    -0.095 C 
ATOM      9  H   UNL     1      -1.843  -0.954   0.508  0.00  0.00    -0.081 HD
BRANCH   7  10
ATOM     10  C   UNL     1      -0.651  -2.312  -0.440  0.00  0.00    -0.042 C 
BRANCH  10  11
ATOM     11  C   UNL     1      -1.810  -3.245  -0.681  0.00  0.00    -0.064 A 
ATOM     12  C   UNL     1      -2.421  -3.877   0.386  0.00  0.00    +0.004 A 
ATOM     13  C   UNL     1      -3.485  -4.732   0.167  0.00  0.00    +0.038 A 
ATOM     14  C   UNL     1      -3.938  -4.956  -1.122  0.00  0.00    +0.123 A 
ATOM     15  C   UNL     1      -3.325  -4.323  -2.190  0.00  0.00    +0.038 A 
ATOM     16  C   UNL     1      -2.265  -3.464  -1.968  0.00  0.00    +0.004 A 
ATOM     17  F   UNL     1      -4.976  -5.792  -1.338  0.00  0.00    -0.205 F 
ENDBRANCH  10  11
ENDBRANCH   7  10
ENDBRANCH   6   7
ENDBRANCH   1   6
BRANCH   3  18
ATOM     18  C   UNL     1       2.457  -0.758   2.959  0.00  0.00    +0.109 C 
BRANCH  18  19
ATOM     19  C   UNL     1       3.927  -0.338   3.015  0.00  0.00    +0.054 C 
BRANCH  19  20
ATOM     20  C   UNL     1       4.538  -0.819   4.306  0.00  0.00    -0.046 A 
ATOM     21  C   UNL     1       4.499  -0.016   5.431  0.00  0.00    +0.005 A 
ATOM     22  C   UNL     1       5.059  -0.458   6.615  0.00  0.00    +0.029 A 
ATOM     23  C   UNL     1       5.657  -1.702   6.675  0.00  0.00    +0.105 A 
ATOM     24  C   UNL     1       5.696  -2.506   5.551  0.00  0.00    +0.029 A 
ATOM     25  C   UNL     1       5.132  -2.066   4.368  0.00  0.00    +0.005 A 
BRANCH  23  26
ATOM     26  S   UNL     1       6.372  -2.264   8.184  0.00  0.00    +0.056 S 
ATOM     27  O   UNL     1       7.350  -3.235   7.834  0.00  0.00    -0.153 OA
ATOM     28  O   UNL     1       6.688  -1.104   8.941  0.00  0.00    -0.153 OA
BRANCH  26  29
ATOM     29  N   UNL     1       5.187  -3.066   9.019  0.00  0.00    -0.204 NA
ATOM     30  H   UNL     1       4.298  -3.146   8.641  0.00  0.00    +0.144 HD
ATOM     31  H   UNL     1       5.383  -3.455   9.885  0.00  0.00    +0.144 HD
ENDBRANCH  26  29
ENDBRANCH  23  26
ENDBRANCH  19  20
ENDBRANCH  18  19
ENDBRANCH   3  18
TORSDOF 9
