REMARK  Name = ZINC13511316
REMARK  9 active torsions:
REMARK  status: ('A' for Active; 'I' for Inactive)
REMARK    1  A    between atoms: C_2  and  C_3
REMARK    2  A    between atoms: C_3  and  N_4
REMARK    3  A    between atoms: C_8  and  C_15
REMARK    4  A    between atoms: C_9  and  N_11
REMARK    5  A    between atoms: N_11  and  C_12
REMARK    6  A    between atoms: C_12  and  C_13
REMARK    7  A    between atoms: C_13  and  N_14
REMARK    8  A    between atoms: N_19  and  C_21
REMARK    9  A    between atoms: C_21  and  C_22
REMARK                            x       y       z     vdW  Elec       q    Type
REMARK                         _______ _______ _______ _____ _____    ______ ____
ROOT
ATOM      1  N   UNL     1       4.033   0.946  -3.809  0.00  0.00    -0.325 N 
ATOM      2  C   UNL     1       3.822   2.193  -4.373  0.00  0.00    +0.126 A 
ATOM      3  C   UNL     1       3.306   3.225  -3.582  0.00  0.00    +0.011 A 
ATOM      4  C   UNL     1       3.102   4.452  -4.138  0.00  0.00    -0.018 A 
ATOM      5  C   UNL     1       3.415   4.640  -5.495  0.00  0.00    +0.095 A 
ATOM      6  C   UNL     1       3.929   3.560  -6.232  0.00  0.00    +0.139 A 
ATOM      7  N   UNL     1       4.113   2.386  -5.650  0.00  0.00    -0.216 NA
ATOM      8  C   UNL     1       2.555   5.608  -3.346  0.00  0.00    +0.052 C 
ATOM      9  C   UNL     1       1.910   5.098  -2.056  0.00  0.00    +0.090 C 
ATOM     10  N   UNL     1       2.860   4.195  -1.386  0.00  0.00    -0.294 NA
ATOM     11  C   UNL     1       2.986   2.942  -2.139  0.00  0.00    +0.123 C 
ATOM     12  H   UNL     1       3.796   0.774  -2.749  0.00  0.00    +0.148 HD
ENDROOT
BRANCH   6  13
ATOM     13  N   UNL     1       4.242   3.724  -7.570  0.00  0.00    -0.330 N 
ATOM     14  H   UNL     1       4.088   4.699  -8.056  0.00  0.00    +0.147 HD
BRANCH  13  15
ATOM     15  C   UNL     1       4.778   2.599  -8.340  0.00  0.00    +0.083 C 
BRANCH  15  16
ATOM     16  C   UNL     1       5.037   3.044  -9.781  0.00  0.00    -0.068 C 
BRANCH  16  17
ATOM     17  N   UNL     1       5.574   1.916 -10.553  0.00  0.00    +0.379 N 
ATOM     18  H   UNL     1       5.761   2.236 -11.589  0.00  0.00    -0.090 HD
ATOM     19  H   UNL     1       4.848   1.090 -10.550  0.00  0.00    -0.090 HD
ATOM     20  H   UNL     1       6.517   1.577 -10.099  0.00  0.00    -0.090 HD
ENDBRANCH  16  17
ENDBRANCH  15  16
ENDBRANCH  13  15
ENDBRANCH   6  13
BRANCH   5  21
ATOM     21  C   UNL     1       3.212   5.914  -6.118  0.00  0.00    +0.103 C 
ATOM     22  N   UNL     1       3.051   6.924  -6.612  0.00  0.00    -0.191 NA
ENDBRANCH   5  21
BRANCH   1  23
ATOM     23  C   UNL     1       4.573  -0.145  -4.624  0.00  0.00    +0.130 C 
BRANCH  23  25
ATOM     24  C   UNL     1       4.134  -2.502  -4.160  0.00  0.00    +0.005 C 
ATOM     25  C   UNL     1       4.706  -1.386  -3.780  0.00  0.00    -0.016 C 
ENDBRANCH  23  25
ENDBRANCH   1  23
BRANCH  10  26
ATOM     26  C   UNL     1       2.451   3.937   0.001  0.00  0.00    +0.120 C 
BRANCH  26  27
ATOM     27  C   UNL     1       1.156   3.165   0.008  0.00  0.00    -0.033 A 
ATOM     28  C   UNL     1       1.175   1.783   0.000  0.00  0.00    +0.005 A 
ATOM     29  C   UNL     1      -0.013   1.076   0.008  0.00  0.00    +0.000 A 
ATOM     30  C   UNL     1      -1.219   1.751   0.017  0.00  0.00    +0.000 A 
ATOM     31  C   UNL     1      -1.238   3.133   0.029  0.00  0.00    +0.000 A 
ATOM     32  C   UNL     1      -0.050   3.840   0.023  0.00  0.00    +0.005 A 
ENDBRANCH  26  27
ENDBRANCH  10  26
TORSDOF 9
