REMARK  Name = ZINC36316248
REMARK  13 active torsions:
REMARK  status: ('A' for Active; 'I' for Inactive)
REMARK    1  A    between atoms: C_1  and  C_2
REMARK    2  A    between atoms: C_2  and  C_3
REMARK    3  A    between atoms: C_4  and  C_21
REMARK    4  A    between atoms: C_5  and  O_14
REMARK    5  A    between atoms: N_6  and  C_8
REMARK    6  A    between atoms: O_14  and  C_15
REMARK    7  A    between atoms: C_21  and  N_22
REMARK    8  A    between atoms: N_22  and  C_23
REMARK    9  A    between atoms: N_22  and  C_30
REMARK   10  A    between atoms: C_23  and  C_24
REMARK   11  A    between atoms: C_30  and  C_31
REMARK   12  A    between atoms: C_31  and  C_33
REMARK   13  A    between atoms: C_31  and  O_34
REMARK                            x       y       z     vdW  Elec       q    Type
REMARK                         _______ _______ _______ _____ _____    ______ ____
ROOT
ATOM      1  C   UNL     1       0.888   0.394  -1.085  0.00  0.00    +0.068 A 
ATOM      2  C   UNL     1       0.019   0.153  -2.154  0.00  0.00    +0.021 A 
ATOM      3  C   UNL     1       0.772  -0.036  -3.270  0.00  0.00    +0.225 A 
ATOM      4  N   UNL     1       2.078   0.084  -2.907  0.00  0.00    -0.200 N 
ATOM      5  N   UNL     1       2.117   0.359  -1.534  0.00  0.00    -0.168 NA
ENDROOT
BRANCH   4   6
ATOM      6  C   UNL     1       3.186  -0.040  -3.756  0.00  0.00    +0.069 A 
ATOM      7  C   UNL     1       3.227  -1.054  -4.703  0.00  0.00    +0.028 A 
ATOM      8  C   UNL     1       4.320  -1.174  -5.539  0.00  0.00    +0.002 A 
ATOM      9  C   UNL     1       5.373  -0.284  -5.433  0.00  0.00    +0.000 A 
ATOM     10  C   UNL     1       5.335   0.728  -4.491  0.00  0.00    +0.002 A 
ATOM     11  C   UNL     1       4.242   0.856  -3.657  0.00  0.00    +0.028 A 
ENDBRANCH   4   6
BRANCH   1  13
ATOM     12  C   UNL     1       0.195   2.149   0.524  0.00  0.00    +0.010 C 
ATOM     13  C   UNL     1       0.479   0.657   0.341  0.00  0.00    +0.054 C 
ENDBRANCH   1  13
BRANCH   3  14
ATOM     14  O   UNL     1       0.307  -0.297  -4.518  0.00  0.00    -0.438 OA
BRANCH  14  15
ATOM     15  C   UNL     1       0.018  -1.587  -4.833  0.00  0.00    +0.130 A 
ATOM     16  C   UNL     1       0.104  -2.576  -3.864  0.00  0.00    +0.046 A 
ATOM     17  C   UNL     1      -0.190  -3.886  -4.188  0.00  0.00    +0.004 A 
ATOM     18  C   UNL     1      -0.570  -4.213  -5.476  0.00  0.00    +0.000 A 
ATOM     19  C   UNL     1      -0.657  -3.229  -6.444  0.00  0.00    +0.004 A 
ATOM     20  C   UNL     1      -0.369  -1.916  -6.125  0.00  0.00    +0.046 A 
ENDBRANCH  14  15
ENDBRANCH   3  14
BRANCH   2  21
ATOM     21  C   UNL     1      -1.485   0.110  -2.081  0.00  0.00    -0.035 C 
BRANCH  21  22
ATOM     22  N   UNL     1      -2.026   1.454  -2.327  0.00  0.00    +0.387 N 
ATOM     23  H   UNL     1      -1.653   2.096  -1.644  0.00  0.00    -0.081 HD
BRANCH  22  24
ATOM     24  C   UNL     1      -1.645   1.896  -3.675  0.00  0.00    -0.042 C 
BRANCH  24  25
ATOM     25  C   UNL     1      -2.094   3.319  -3.882  0.00  0.00    -0.064 A 
ATOM     26  C   UNL     1      -3.350   3.580  -4.397  0.00  0.00    +0.002 A 
ATOM     27  C   UNL     1      -3.761   4.886  -4.587  0.00  0.00    +0.000 A 
ATOM     28  C   UNL     1      -2.917   5.931  -4.262  0.00  0.00    +0.000 A 
ATOM     29  C   UNL     1      -1.661   5.670  -3.747  0.00  0.00    +0.000 A 
ATOM     30  C   UNL     1      -1.251   4.364  -3.553  0.00  0.00    +0.002 A 
ENDBRANCH  24  25
ENDBRANCH  22  24
BRANCH  22  31
ATOM     31  C   UNL     1      -3.491   1.419  -2.219  0.00  0.00    -0.047 C 
BRANCH  31  32
ATOM     32  C   UNL     1      -3.888   1.135  -0.769  0.00  0.00    +0.095 C 
ATOM     33  C   UNL     1      -5.399   1.316  -0.610  0.00  0.00    +0.035 C 
BRANCH  32  34
ATOM     34  O   UNL     1      -3.531  -0.206  -0.430  0.00  0.00    -0.394 OA
ATOM     35  H   UNL     1      -3.820  -0.480   0.451  0.00  0.00    +0.210 HD
ENDBRANCH  32  34
ENDBRANCH  31  32
ENDBRANCH  22  31
ENDBRANCH  21  22
ENDBRANCH   2  21
TORSDOF 11
