REMARK  Name = ZINC59170378
REMARK  7 active torsions:
REMARK  status: ('A' for Active; 'I' for Inactive)
REMARK    1  A    between atoms: C_1  and  O_2
REMARK    2  A    between atoms: O_2  and  C_3
REMARK    3  A    between atoms: N_11  and  C_12
REMARK    4  A    between atoms: C_15  and  S_18
REMARK    5  A    between atoms: S_18  and  N_21
REMARK    6  A    between atoms: C_22  and  C_24
REMARK    7  A    between atoms: N_26  and  C_27
REMARK                            x       y       z     vdW  Elec       q    Type
REMARK                         _______ _______ _______ _____ _____    ______ ____
ROOT
ATOM      1  C   UNL     1      -0.874  -0.666  -0.013  0.00  0.00    +0.163 A 
ATOM      2  C   UNL     1      -1.788   0.083  -0.736  0.00  0.00    +0.049 A 
ATOM      3  C   UNL     1      -2.692  -0.536  -1.587  0.00  0.00    +0.004 A 
ATOM      4  C   UNL     1      -2.696  -1.906  -1.724  0.00  0.00    +0.012 A 
ATOM      5  C   UNL     1      -1.780  -2.679  -0.998  0.00  0.00    +0.022 A 
ATOM      6  C   UNL     1      -0.857  -2.051  -0.142  0.00  0.00    +0.179 A 
ATOM      7  O   UNL     1       0.038  -2.798   0.550  0.00  0.00    -0.435 OA
ATOM      8  C   UNL     1      -0.321  -4.073   0.845  0.00  0.00    +0.212 A 
ATOM      9  N   UNL     1      -0.049  -4.600   2.019  0.00  0.00    -0.325 N 
ATOM     10  C   UNL     1      -1.025  -4.852  -0.194  0.00  0.00    +0.098 A 
ATOM     11  C   UNL     1      -1.769  -4.138  -1.121  0.00  0.00    +0.030 A 
ATOM     12  H   UNL     1      -0.405  -5.471   2.254  0.00  0.00    +0.169 HD
ENDROOT
BRANCH   9  13
ATOM     13  C   UNL     1       0.735  -3.919   2.909  0.00  0.00    +0.042 A 
ATOM     14  C   UNL     1       1.909  -3.296   2.477  0.00  0.00    +0.027 A 
ATOM     15  C   UNL     1       2.694  -2.611   3.380  0.00  0.00    +0.030 A 
ATOM     16  C   UNL     1       2.322  -2.539   4.711  0.00  0.00    +0.105 A 
ATOM     17  C   UNL     1       1.161  -3.154   5.146  0.00  0.00    +0.030 A 
ATOM     18  C   UNL     1       0.362  -3.837   4.253  0.00  0.00    +0.027 A 
BRANCH  16  19
ATOM     19  S   UNL     1       3.332  -1.661   5.857  0.00  0.00    +0.056 S 
ATOM     20  O   UNL     1       3.053  -2.202   7.142  0.00  0.00    -0.153 OA
ATOM     21  O   UNL     1       4.643  -1.639   5.310  0.00  0.00    -0.153 OA
BRANCH  19  22
ATOM     22  N   UNL     1       2.801  -0.093   5.878  0.00  0.00    -0.204 NA
ATOM     23  H   UNL     1       2.058   0.174   5.314  0.00  0.00    +0.144 HD
ATOM     24  H   UNL     1       3.233   0.558   6.452  0.00  0.00    +0.144 HD
ENDBRANCH  19  22
ENDBRANCH  16  19
ENDBRANCH   9  13
BRANCH  10  25
ATOM     25  C   UNL     1      -0.948  -6.322  -0.236  0.00  0.00    +0.253 C 
ATOM     26  O   UNL     1      -1.642  -6.945  -1.017  0.00  0.00    -0.270 OA
ATOM     27  N   UNL     1      -0.109  -6.977   0.591  0.00  0.00    -0.281 N 
ATOM     28  H   UNL     1       0.404  -6.485   1.250  0.00  0.00    +0.155 HD
BRANCH  27  29
ATOM     29  C   UNL     1       0.021  -8.366   0.498  0.00  0.00    +0.034 A 
ATOM     30  C   UNL     1      -1.081  -9.148   0.176  0.00  0.00    +0.023 A 
ATOM     31  C   UNL     1      -0.949 -10.520   0.084  0.00  0.00    +0.002 A 
ATOM     32  C   UNL     1       0.278 -11.115   0.313  0.00  0.00    +0.000 A 
ATOM     33  C   UNL     1       1.377 -10.339   0.634  0.00  0.00    +0.002 A 
ATOM     34  C   UNL     1       1.253  -8.967   0.722  0.00  0.00    +0.023 A 
ENDBRANCH  27  29
ENDBRANCH  10  25
BRANCH   1  36
ATOM     35  C   UNL     1      -0.068   1.377   0.900  0.00  0.00    +0.277 C 
ATOM     36  O   UNL     1       0.008  -0.048   0.817  0.00  0.00    -0.491 OA
ENDBRANCH   1  36
TORSDOF 6
