REMARK  Name = ZINC42458025
REMARK  10 active torsions:
REMARK  status: ('A' for Active; 'I' for Inactive)
REMARK    1  A    between atoms: C_1  and  C_2
REMARK    2  A    between atoms: C_2  and  C_4
REMARK    3  A    between atoms: C_2  and  C_17
REMARK    4  A    between atoms: C_4  and  N_5
REMARK    5  A    between atoms: N_5  and  C_6
REMARK    6  A    between atoms: N_5  and  C_7
REMARK    7  A    between atoms: C_7  and  C_8
REMARK    8  A    between atoms: C_13  and  O_14
REMARK    9  A    between atoms: O_14  and  C_15
REMARK   10  A    between atoms: C_17  and  N_19
REMARK                            x       y       z     vdW  Elec       q    Type
REMARK                         _______ _______ _______ _____ _____    ______ ____
ROOT
ATOM      1  N   UNL     1       2.151  -0.103   1.171  0.00  0.00    +0.381 N 
ATOM      2  C   UNL     1       2.798  -0.769   0.033  0.00  0.00    -0.096 C 
ATOM      3  H   UNL     1       2.206   0.898   1.051  0.00  0.00    -0.082 HD
ENDROOT
BRANCH   1   4
ATOM      4  C   UNL     1       0.742  -0.511   1.242  0.00  0.00    -0.069 C 
BRANCH   4   6
ATOM      5  C   UNL     1      -0.019   1.526   0.010  0.00  0.00    +0.012 C 
ATOM      6  C   UNL     1       0.002  -0.004   0.002  0.00  0.00    +0.021 C 
BRANCH   6   7
ATOM      7  C   UNL     1      -1.412  -0.526   0.013  0.00  0.00    +0.047 C 
ATOM      8  S   UNL     1      -1.986  -1.254   1.316  0.00  0.00    -0.040 S 
BRANCH   7   9
ATOM      9  N   UNL     1      -2.193  -0.379  -1.076  0.00  0.00    -0.355 N 
ATOM     10  H   UNL     1      -1.845   0.063  -1.866  0.00  0.00    +0.143 HD
ATOM     11  H   UNL     1      -3.103  -0.714  -1.069  0.00  0.00    +0.143 HD
ENDBRANCH   7   9
ENDBRANCH   6   7
ENDBRANCH   4   6
ENDBRANCH   1   4
BRANCH   1  12
ATOM     12  C   UNL     1       2.834  -0.484   2.415  0.00  0.00    -0.040 C 
BRANCH  12  13
ATOM     13  C   UNL     1       4.246   0.042   2.394  0.00  0.00    -0.021 A 
ATOM     14  C   UNL     1       5.292  -0.797   2.060  0.00  0.00    +0.020 A 
ATOM     15  C   UNL     1       6.588  -0.315   2.041  0.00  0.00    +0.018 A 
ATOM     16  C   UNL     1       6.840   1.009   2.357  0.00  0.00    +0.019 A 
ATOM     17  C   UNL     1       5.798   1.851   2.692  0.00  0.00    +0.047 A 
ATOM     18  C   UNL     1       4.496   1.370   2.706  0.00  0.00    +0.121 A 
ATOM     19 BR   UNL     1       8.017  -1.465   1.584  0.00  0.00    -0.050 Br
BRANCH  18  20
ATOM     20  O   UNL     1       3.469   2.198   3.030  0.00  0.00    -0.495 OA
ATOM     21  C   UNL     1       3.800   3.553   3.340  0.00  0.00    +0.277 C 
ENDBRANCH  18  20
ENDBRANCH  12  13
ENDBRANCH   1  12
TORSDOF 7
