REMARK  Name = ZINC43759904
REMARK  4 active torsions:
REMARK  status: ('A' for Active; 'I' for Inactive)
REMARK    1  A    between atoms: C_1  and  O_2
REMARK    2  A    between atoms: O_2  and  C_3
REMARK    3  A    between atoms: C_3  and  C_5
REMARK    4  A    between atoms: C_31  and  O_33
REMARK                            x       y       z     vdW  Elec       q    Type
REMARK                         _______ _______ _______ _____ _____    ______ ____
ROOT
ATOM      1  C   UNL     1      -1.244  -2.135   0.003  0.00  0.00    +0.129 C 
ATOM      2  C   UNL     1      -2.707  -2.588   0.009  0.00  0.00    +0.006 C 
ATOM      3  C   UNL     1      -3.381  -2.055  -1.258  0.00  0.00    -0.005 C 
ATOM      4  C   UNL     1      -4.500  -2.997  -1.700  0.00  0.00    -0.020 C 
ATOM      5  C   UNL     1      -5.524  -2.202  -2.475  0.00  0.00    +0.006 A 
ATOM      6  C   UNL     1      -6.857  -2.314  -2.276  0.00  0.00    -0.022 A 
ATOM      7  C   UNL     1      -7.508  -1.403  -3.188  0.00  0.00    +0.003 A 
ATOM      8  C   UNL     1      -8.850  -1.090  -3.426  0.00  0.00    +0.010 A 
ATOM      9  C   UNL     1      -9.108  -0.151  -4.394  0.00  0.00    +0.001 A 
ATOM     10  C   UNL     1      -8.094   0.466  -5.109  0.00  0.00    +0.002 A 
ATOM     11  C   UNL     1      -6.758   0.177  -4.894  0.00  0.00    +0.026 A 
ATOM     12  C   UNL     1      -6.466  -0.772  -3.917  0.00  0.00    +0.047 A 
ATOM     13  N   UNL     1      -5.283  -1.281  -3.459  0.00  0.00    -0.359 N 
ATOM     14  H   UNL     1      -4.405  -1.028  -3.783  0.00  0.00    +0.166 HD
ATOM     15  C   UNL     1      -7.458  -3.258  -1.265  0.00  0.00    +0.019 C 
ATOM     16  C   UNL     1      -6.382  -4.289  -0.901  0.00  0.00    -0.073 C 
ATOM     17  N   UNL     1      -5.135  -3.606  -0.529  0.00  0.00    +0.386 N 
ATOM     18  C   UNL     1      -4.235  -4.570   0.105  0.00  0.00    -0.073 C 
ATOM     19  C   UNL     1      -2.781  -4.113   0.034  0.00  0.00    -0.010 C 
ATOM     20  C   UNL     1      -2.037  -4.652   1.260  0.00  0.00    +0.061 C 
ATOM     21  C   UNL     1      -0.577  -4.201   1.225  0.00  0.00    +0.047 C 
ATOM     22  C   UNL     1      -0.527  -2.677   1.239  0.00  0.00    +0.130 C 
ATOM     23 BR   UNL     1      -2.110  -6.616   1.257  0.00  0.00    -0.088 Br
ATOM     24  H   UNL     1      -5.348  -2.882   0.141  0.00  0.00    -0.081 HD
ENDROOT
BRANCH   1  25
ATOM     25  C   UNL     1      -1.185  -0.630   0.010  0.00  0.00    +0.313 C 
ATOM     26  O   UNL     1      -2.208   0.015   0.023  0.00  0.00    -0.250 OA
BRANCH  25  28
ATOM     27  C   UNL     1      -0.017   1.425   0.010  0.00  0.00    +0.280 C 
ATOM     28  O   UNL     1       0.002  -0.004   0.002  0.00  0.00    -0.468 OA
ENDBRANCH  25  28
ENDBRANCH   1  25
BRANCH  22  29
ATOM     29  O   UNL     1       0.835  -2.244   1.230  0.00  0.00    -0.391 OA
ATOM     30  H   UNL     1       1.350  -2.552   1.988  0.00  0.00    +0.210 HD
ENDBRANCH  22  29
TORSDOF 3
