REMARK  Name = ZINC57315856
REMARK  9 active torsions:
REMARK  status: ('A' for Active; 'I' for Inactive)
REMARK    1  A    between atoms: C_1  and  C_2
REMARK    2  A    between atoms: C_5  and  N_27
REMARK    3  A    between atoms: C_7  and  N_8
REMARK    4  A    between atoms: N_8  and  C_9
REMARK    5  A    between atoms: C_9  and  N_11
REMARK    6  A    between atoms: C_12  and  C_14
REMARK    7  A    between atoms: C_17  and  C_19
REMARK    8  A    between atoms: C_22  and  C_26
REMARK    9  A    between atoms: C_28  and  C_30
REMARK                            x       y       z     vdW  Elec       q    Type
REMARK                         _______ _______ _______ _____ _____    ______ ____
ROOT
ATOM      1  C   UNL     1       0.198  -0.661   3.591  0.00  0.00    +0.141 C 
ATOM      2  S   UNL     1       0.459  -2.353   3.583  0.00  0.00    -0.018 S 
ENDROOT
BRANCH   1   3
ATOM      3  N   UNL     1       0.115   0.002   4.762  0.00  0.00    -0.261 N 
ATOM      4  C   UNL     1       0.237  -0.666   5.925  0.00  0.00    +0.285 C 
ATOM      5  O   UNL     1       0.423  -1.869   5.919  0.00  0.00    -0.266 OA
ATOM      6  H   UNL     1      -0.033   0.961   4.766  0.00  0.00    +0.157 HD
BRANCH   4   7
ATOM      7  C   UNL     1       0.147   0.054   7.197  0.00  0.00    +0.190 A 
ATOM      8  C   UNL     1       0.260  -0.503   8.453  0.00  0.00    +0.055 A 
ATOM      9  C   UNL     1       0.111   0.540   9.371  0.00  0.00    +0.050 A 
ATOM     10  C   UNL     1      -0.084   1.685   8.652  0.00  0.00    +0.136 A 
ATOM     11  O   UNL     1      -0.055   1.381   7.343  0.00  0.00    -0.450 OA
BRANCH  10  12
ATOM     12  C   UNL     1      -0.288   3.033   9.218  0.00  0.00    +0.019 A 
ATOM     13  C   UNL     1      -0.287   3.221  10.602  0.00  0.00    +0.012 A 
ATOM     14  C   UNL     1      -0.478   4.483  11.124  0.00  0.00    +0.005 A 
ATOM     15  C   UNL     1      -0.671   5.562  10.281  0.00  0.00    -0.032 A 
ATOM     16  C   UNL     1      -0.674   5.385   8.908  0.00  0.00    +0.045 A 
ATOM     17  C   UNL     1      -0.478   4.127   8.371  0.00  0.00    +0.031 A 
ATOM     18 CL   UNL     1      -0.918   6.746   7.858  0.00  0.00    -0.083 Cl
ATOM     19  C   UNL     1      -0.880   6.938  10.860  0.00  0.00    +0.045 C 
ENDBRANCH  10  12
ENDBRANCH   4   7
ENDBRANCH   1   3
BRANCH   1  20
ATOM     20  N   UNL     1       0.075   0.008   2.428  0.00  0.00    -0.296 N 
ATOM     21  H   UNL     1       0.003   0.975   2.429  0.00  0.00    +0.154 HD
BRANCH  20  28
ATOM     22  C   UNL     1      -1.796   0.818   0.445  0.00  0.00    +0.045 C 
ATOM     23  C   UNL     1      -0.846  -0.331   0.221  0.00  0.00    -0.029 A 
ATOM     24  C   UNL     1      -0.866  -1.019  -0.977  0.00  0.00    +0.007 A 
ATOM     25  C   UNL     1       0.003  -2.073  -1.186  0.00  0.00    +0.024 A 
ATOM     26  C   UNL     1       0.900  -2.443  -0.192  0.00  0.00    +0.036 A 
ATOM     27  C   UNL     1       0.923  -1.754   1.012  0.00  0.00    +0.046 A 
ATOM     28  C   UNL     1       0.052  -0.693   1.217  0.00  0.00    +0.037 A 
BRANCH  26  29
ATOM     29  N   UNL     1       1.778  -3.510  -0.404  0.00  0.00    -0.279 N 
ATOM     30  C   UNL     1       1.387  -4.569  -1.140  0.00  0.00    +0.284 C 
ATOM     31  O   UNL     1       0.240  -4.641  -1.541  0.00  0.00    -0.266 OA
ATOM     32  H   UNL     1       2.670  -3.488  -0.022  0.00  0.00    +0.155 HD
BRANCH  30  33
ATOM     33  C   UNL     1       2.343  -5.634  -1.459  0.00  0.00    +0.189 A 
ATOM     34  C   UNL     1       2.081  -6.754  -2.196  0.00  0.00    +0.054 A 
ATOM     35  C   UNL     1       3.275  -7.491  -2.247  0.00  0.00    +0.042 A 
ATOM     36  C   UNL     1       4.201  -6.798  -1.548  0.00  0.00    +0.196 A 
ATOM     37  O   UNL     1       3.637  -5.677  -1.080  0.00  0.00    -0.458 OA
ENDBRANCH  30  33
ENDBRANCH  26  29
ENDBRANCH  20  28
ENDBRANCH   1  20
TORSDOF 7
