REMARK  Name = ZINC03282447
REMARK  6 active torsions:
REMARK  status: ('A' for Active; 'I' for Inactive)
REMARK    1  A    between atoms: C_1  and  C_2
REMARK    2  A    between atoms: C_2  and  C_4
REMARK    3  A    between atoms: C_2  and  N_55
REMARK    4  A    between atoms: N_6  and  C_7
REMARK    5  A    between atoms: N_17  and  S_20
REMARK    6  A    between atoms: S_20  and  C_23
REMARK                            x       y       z     vdW  Elec       q    Type
REMARK                         _______ _______ _______ _____ _____    ______ ____
ROOT
ATOM      1  C   UNL     1      -2.356   4.626  -2.075  0.00  0.00    -0.060 C 
ATOM      2  C   UNL     1      -0.830   4.545  -1.956  0.00  0.00    +0.091 C 
ATOM      3  N   UNL     1      -0.476   3.250  -1.355  0.00  0.00    -0.180 NA
ATOM      4  C   UNL     1      -1.042   2.029  -1.949  0.00  0.00    +0.091 C 
ATOM      5  C   UNL     1      -2.564   2.210  -2.064  0.00  0.00    -0.060 C 
ATOM      6  N   UNL     1      -2.837   3.447  -2.828  0.00  0.00    +0.389 N 
ATOM      7  H   UNL     1      -2.340   3.400  -3.726  0.00  0.00    -0.081 HD
ENDROOT
BRANCH   3   8
ATOM      8  S   UNL     1       0.537   3.168  -0.047  0.00  0.00    +0.061 S 
ATOM      9  O   UNL     1       1.111   1.869  -0.059  0.00  0.00    -0.153 OA
ATOM     10  O   UNL     1       1.325   4.350  -0.070  0.00  0.00    -0.153 OA
BRANCH   8  11
ATOM     11  C   UNL     1      -0.468   3.262   1.397  0.00  0.00    +0.106 A 
ATOM     12  C   UNL     1      -0.750   4.506   1.958  0.00  0.00    +0.029 A 
ATOM     13  C   UNL     1      -1.528   4.614   3.070  0.00  0.00    +0.010 A 
ATOM     14  C   UNL     1      -2.045   3.454   3.671  0.00  0.00    -0.018 A 
ATOM     15  C   UNL     1      -2.846   3.525   4.824  0.00  0.00    +0.008 A 
ATOM     16  C   UNL     1      -3.330   2.380   5.379  0.00  0.00    +0.001 A 
ATOM     17  C   UNL     1      -3.043   1.135   4.822  0.00  0.00    +0.001 A 
ATOM     18  C   UNL     1      -2.271   1.028   3.706  0.00  0.00    +0.008 A 
ATOM     19  C   UNL     1      -1.753   2.188   3.104  0.00  0.00    -0.016 A 
ATOM     20  C   UNL     1      -0.952   2.117   1.952  0.00  0.00    +0.037 A 
ENDBRANCH   8  11
ENDBRANCH   3   8
BRANCH   6  22
ATOM     21  C   UNL     1      -4.802   2.258  -3.678  0.00  0.00    -0.004 C 
ATOM     22  C   UNL     1      -4.286   3.571  -3.087  0.00  0.00    +0.017 C 
BRANCH  22  23
ATOM     23  C   UNL     1      -5.028   3.873  -1.811  0.00  0.00    +0.203 C 
ATOM     24  O   UNL     1      -4.556   3.546  -0.742  0.00  0.00    -0.277 OA
ATOM     25  N   UNL     1      -6.217   4.506  -1.856  0.00  0.00    -0.286 N 
ATOM     26  H   UNL     1      -6.632   4.697  -2.712  0.00  0.00    +0.155 HD
BRANCH  25  27
ATOM     27  C   UNL     1      -6.852   4.889  -0.669  0.00  0.00    +0.053 A 
ATOM     28  C   UNL     1      -6.653   4.157   0.494  0.00  0.00    +0.025 A 
ATOM     29  C   UNL     1      -7.281   4.537   1.664  0.00  0.00    +0.003 A 
ATOM     30  C   UNL     1      -8.107   5.645   1.680  0.00  0.00    +0.021 A 
ATOM     31  C   UNL     1      -8.309   6.378   0.523  0.00  0.00    +0.061 A 
ATOM     32  C   UNL     1      -7.679   6.006  -0.651  0.00  0.00    +0.080 A 
ATOM     33 CL   UNL     1      -7.926   6.928  -2.100  0.00  0.00    -0.080 Cl
ATOM     34 CL   UNL     1      -9.347   7.769   0.548  0.00  0.00    -0.082 Cl
ENDBRANCH  25  27
ENDBRANCH  22  23
ENDBRANCH   6  22
TORSDOF 5
