REMARK  Name = ZINC62613459
REMARK  10 active torsions:
REMARK  status: ('A' for Active; 'I' for Inactive)
REMARK    1  A    between atoms: C_1  and  C_2
REMARK    2  A    between atoms: C_5  and  C_8
REMARK    3  A    between atoms: C_8  and  C_10
REMARK    4  A    between atoms: C_8  and  N_15
REMARK    5  A    between atoms: C_16  and  C_18
REMARK    6  A    between atoms: C_18  and  N_19
REMARK    7  A    between atoms: C_23  and  C_26
REMARK    8  A    between atoms: C_26  and  N_27
REMARK    9  A    between atoms: N_30  and  C_31
REMARK   10  A    between atoms: C_34  and  C_37
REMARK                            x       y       z     vdW  Elec       q    Type
REMARK                         _______ _______ _______ _____ _____    ______ ____
ROOT
ATOM      1  N   UNL     1       2.936  -7.819   1.655  0.00  0.00    +0.386 N 
ATOM      2  C   UNL     1       1.812  -8.763   1.643  0.00  0.00    -0.078 C 
ATOM      3  C   UNL     1       2.304 -10.142   1.200  0.00  0.00    -0.018 C 
ATOM      4  C   UNL     1       3.376 -10.634   2.177  0.00  0.00    +0.001 C 
ATOM      5  C   UNL     1       4.509  -9.605   2.237  0.00  0.00    -0.011 C 
ATOM      6  C   UNL     1       3.935  -8.246   2.642  0.00  0.00    -0.073 C 
ATOM      7  H   UNL     1       3.359  -7.792   0.740  0.00  0.00    -0.081 HD
ENDROOT
BRANCH   1   8
ATOM      8  C   UNL     1       2.445  -6.479   2.006  0.00  0.00    +0.019 C 
BRANCH   8  10
ATOM      9  N   UNL     1       0.936  -4.775   1.038  0.00  0.00    -0.306 N 
ATOM     10  C   UNL     1       1.512  -5.988   0.929  0.00  0.00    +0.197 C 
ATOM     11  O   UNL     1       1.279  -6.686  -0.036  0.00  0.00    -0.278 OA
ATOM     12  H   UNL     1       1.123  -4.217   1.809  0.00  0.00    +0.150 HD
BRANCH   9  13
ATOM     13  C   UNL     1       0.029  -4.297  -0.009  0.00  0.00    +0.140 C 
BRANCH  13  18
ATOM     14  C   UNL     1      -0.056   1.481   0.000  0.00  0.00    +0.044 C 
ATOM     15  C   UNL     1      -0.033  -0.026  -0.002  0.00  0.00    -0.050 A 
ATOM     16  C   UNL     1      -0.036  -0.716  -1.200  0.00  0.00    +0.004 A 
ATOM     17  C   UNL     1      -0.016  -2.098  -1.202  0.00  0.00    +0.006 A 
ATOM     18  C   UNL     1       0.008  -2.791  -0.006  0.00  0.00    -0.022 A 
ATOM     19  C   UNL     1       0.012  -2.101   1.192  0.00  0.00    +0.006 A 
ATOM     20  C   UNL     1      -0.004  -0.719   1.194  0.00  0.00    +0.004 A 
ENDBRANCH  13  18
BRANCH  13  21
ATOM     21  C   UNL     1      -1.360  -4.820   0.254  0.00  0.00    +0.014 A 
ATOM     22  C   UNL     1      -2.274  -5.293  -0.628  0.00  0.00    +0.013 A 
ATOM     23  C   UNL     1      -3.499  -5.725  -0.155  0.00  0.00    +0.008 A 
ATOM     24  C   UNL     1      -3.750  -5.662   1.175  0.00  0.00    +0.045 A 
ATOM     25  S   UNL     1      -2.225  -4.983   1.807  0.00  0.00    -0.099 S 
ENDBRANCH  13  21
ENDBRANCH   9  13
ENDBRANCH   8  10
ENDBRANCH   1   8
BRANCH   5  26
ATOM     26  C   UNL     1       5.548 -10.050   3.268  0.00  0.00    +0.107 C 
BRANCH  26  27
ATOM     27  N   UNL     1       6.179 -11.294   2.820  0.00  0.00    -0.299 N 
ATOM     28  C   UNL     1       7.132 -11.876   3.574  0.00  0.00    +0.304 C 
ATOM     29  O   UNL     1       7.469 -11.368   4.626  0.00  0.00    -0.253 OA
ATOM     30  N   UNL     1       7.712 -13.021   3.163  0.00  0.00    -0.269 N 
ATOM     31  H   UNL     1       5.910 -11.700   1.981  0.00  0.00    +0.150 HD
ATOM     32  H   UNL     1       7.397 -13.462   2.358  0.00  0.00    +0.156 HD
BRANCH  30  33
ATOM     33  C   UNL     1       8.768 -13.573   3.896  0.00  0.00    +0.035 A 
ATOM     34  C   UNL     1       9.808 -14.219   3.239  0.00  0.00    +0.023 A 
ATOM     35  C   UNL     1      10.849 -14.763   3.966  0.00  0.00    +0.005 A 
ATOM     36  C   UNL     1      10.858 -14.664   5.345  0.00  0.00    -0.050 A 
ATOM     37  C   UNL     1       9.824 -14.021   6.001  0.00  0.00    +0.005 A 
ATOM     38  C   UNL     1       8.783 -13.471   5.280  0.00  0.00    +0.023 A 
ATOM     39  C   UNL     1      11.995 -15.258   6.134  0.00  0.00    +0.044 C 
ENDBRANCH  30  33
ENDBRANCH  26  27
ENDBRANCH   5  26
TORSDOF 8
