REMARK  Name = ZINC59099484
REMARK  16 active torsions:
REMARK  status: ('A' for Active; 'I' for Inactive)
REMARK    1  A    between atoms: C_1  and  C_2
REMARK    2  A    between atoms: C_4  and  C_33
REMARK    3  A    between atoms: C_5  and  N_9
REMARK    4  A    between atoms: C_6  and  C_8
REMARK    5  A    between atoms: N_9  and  C_10
REMARK    6  A    between atoms: C_10  and  N_12
REMARK    7  A    between atoms: N_12  and  C_13
REMARK    8  A    between atoms: N_12  and  C_23
REMARK    9  A    between atoms: C_13  and  C_14
REMARK   10  A    between atoms: C_17  and  N_20
REMARK   11  A    between atoms: N_20  and  C_21
REMARK   12  A    between atoms: N_20  and  C_22
REMARK   13  A    between atoms: C_25  and  C_31
REMARK   14  A    between atoms: C_25  and  C_32
REMARK   15  A    between atoms: C_27  and  C_29
REMARK   16  A    between atoms: C_27  and  C_30
REMARK                            x       y       z     vdW  Elec       q    Type
REMARK                         _______ _______ _______ _____ _____    ______ ____
ROOT
ATOM      1  N   UNL     1      -0.611  -7.598   1.112  0.00  0.00    -0.305 N 
ENDROOT
BRANCH   1   2
ATOM      2  C   UNL     1      -1.517  -8.323   0.213  0.00  0.00    +0.073 C 
ATOM      3  C   UNL     1      -2.629  -7.380  -0.248  0.00  0.00    +0.009 C 
ATOM      4  C   UNL     1      -3.575  -8.118  -1.195  0.00  0.00    -0.072 C 
ATOM      5  N   UNL     1      -2.867  -8.732  -2.308  0.00  0.00    +0.386 N 
ATOM      6  C   UNL     1      -1.663  -9.491  -2.008  0.00  0.00    -0.072 C 
ATOM      7  C   UNL     1      -0.740  -8.787  -1.018  0.00  0.00    +0.009 C 
ATOM      8  C   UNL     1      -1.993 -10.899  -1.504  0.00  0.00    -0.010 C 
ATOM      9  C   UNL     1      -0.877  -9.658  -3.330  0.00  0.00    -0.010 C 
ATOM     10  C   UNL     1      -4.547  -7.068  -1.782  0.00  0.00    -0.010 C 
ATOM     11  C   UNL     1      -4.416  -9.131  -0.419  0.00  0.00    -0.010 C 
ATOM     12  H   UNL     1      -3.519  -9.344  -2.805  0.00  0.00    -0.084 HD
ATOM     13  H   UNL     1      -2.625  -7.998  -2.979  0.00  0.00    -0.084 HD
ENDBRANCH   1   2
BRANCH   1  14
ATOM     14  C   UNL     1       0.235  -6.673   0.614  0.00  0.00    +0.138 C 
ATOM     15  S   UNL     1       1.345  -5.882   1.650  0.00  0.00    -0.018 S 
BRANCH  14  16
ATOM     16  N   UNL     1       0.206  -6.372  -0.699  0.00  0.00    -0.296 N 
ATOM     17  H   UNL     1       0.847  -6.778  -1.304  0.00  0.00    +0.154 HD
BRANCH  16  22
ATOM     18  C   UNL     1      -3.657  -2.726  -2.690  0.00  0.00    +0.044 C 
ATOM     19  C   UNL     1      -2.631  -3.695  -2.161  0.00  0.00    -0.050 A 
ATOM     20  C   UNL     1      -2.435  -3.816  -0.797  0.00  0.00    +0.008 A 
ATOM     21  C   UNL     1      -1.495  -4.703  -0.310  0.00  0.00    -0.029 A 
ATOM     22  C   UNL     1      -0.747  -5.473  -1.190  0.00  0.00    +0.038 A 
ATOM     23  C   UNL     1      -0.946  -5.349  -2.559  0.00  0.00    -0.029 A 
ATOM     24  C   UNL     1      -1.891  -4.465  -3.040  0.00  0.00    +0.008 A 
ATOM     25  C   UNL     1      -0.136  -6.183  -3.518  0.00  0.00    +0.045 C 
ATOM     26  C   UNL     1      -1.282  -4.834   1.176  0.00  0.00    +0.045 C 
ENDBRANCH  16  22
ENDBRANCH  14  16
ENDBRANCH   1  14
BRANCH   1  27
ATOM     27  C   UNL     1      -0.625  -7.878   2.550  0.00  0.00    +0.142 C 
BRANCH  27  28
ATOM     28  C   UNL     1      -1.618  -6.971   3.229  0.00  0.00    -0.030 A 
ATOM     29  C   UNL     1      -1.213  -5.736   3.702  0.00  0.00    +0.007 A 
ATOM     30  C   UNL     1      -2.121  -4.902   4.325  0.00  0.00    +0.023 A 
ATOM     31  C   UNL     1      -3.442  -5.304   4.475  0.00  0.00    +0.029 A 
ATOM     32  C   UNL     1      -3.845  -6.545   3.998  0.00  0.00    +0.023 A 
ATOM     33  C   UNL     1      -2.934  -7.372   3.371  0.00  0.00    +0.007 A 
BRANCH  31  34
ATOM     34  N   UNL     1      -4.362  -4.463   5.104  0.00  0.00    -0.336 N 
ATOM     35  C   UNL     1      -3.935  -3.155   5.607  0.00  0.00    +0.129 C 
ATOM     36  C   UNL     1      -5.755  -4.889   5.262  0.00  0.00    +0.129 C 
ENDBRANCH  31  34
ENDBRANCH  27  28
ENDBRANCH   1  27
TORSDOF 7
