REMARK  Name = ZINC04261154
REMARK  10 active torsions:
REMARK  status: ('A' for Active; 'I' for Inactive)
REMARK    1  A    between atoms: C_1  and  C_2
REMARK    2  A    between atoms: C_5  and  N_8
REMARK    3  A    between atoms: C_9  and  C_11
REMARK    4  A    between atoms: C_16  and  N_17
REMARK    5  A    between atoms: C_18  and  C_20
REMARK    6  A    between atoms: N_22  and  N_23
REMARK    7  A    between atoms: C_24  and  C_25
REMARK    8  A    between atoms: C_29  and  C_32
REMARK    9  A    between atoms: C_30  and  O_31
REMARK   10  A    between atoms: C_32  and  C_33
REMARK                            x       y       z     vdW  Elec       q    Type
REMARK                         _______ _______ _______ _____ _____    ______ ____
ROOT
ATOM      1  N   UNL     1       0.196  -6.416   3.568  0.00  0.00    -0.277 N 
ATOM      2  C   UNL     1       0.112  -7.072   4.742  0.00  0.00    +0.305 C 
ATOM      3  O   UNL     1       0.215  -8.281   4.771  0.00  0.00    -0.265 OA
ATOM      4  H   UNL     1       0.197  -5.446   3.553  0.00  0.00    +0.155 HD
ENDROOT
BRANCH   1  10
ATOM      5  C   UNL     1       0.875  -6.550   1.247  0.00  0.00    +0.058 A 
ATOM      6  C   UNL     1       0.959  -7.280   0.059  0.00  0.00    +0.015 A 
ATOM      7  C   UNL     1       0.454  -8.561   0.002  0.00  0.00    +0.001 A 
ATOM      8  C   UNL     1      -0.137  -9.130   1.119  0.00  0.00    +0.002 A 
ATOM      9  C   UNL     1      -0.228  -8.421   2.299  0.00  0.00    +0.024 A 
ATOM     10  C   UNL     1       0.281  -7.131   2.377  0.00  0.00    +0.046 A 
BRANCH   5  12
ATOM     11  N   UNL     1       1.887  -4.585   0.201  0.00  0.00    -0.281 N 
ATOM     12  C   UNL     1       1.415  -5.178   1.314  0.00  0.00    +0.250 C 
ATOM     13  O   UNL     1       1.432  -4.583   2.375  0.00  0.00    -0.270 OA
ATOM     14  H   UNL     1       1.798  -5.025  -0.659  0.00  0.00    +0.155 HD
BRANCH  11  19
ATOM     15  C   UNL     1       4.398   0.491   0.541  0.00  0.00    +0.044 C 
ATOM     16  C   UNL     1       3.731  -0.858   0.451  0.00  0.00    -0.050 A 
ATOM     17  C   UNL     1       3.126  -1.250  -0.729  0.00  0.00    +0.005 A 
ATOM     18  C   UNL     1       2.514  -2.485  -0.816  0.00  0.00    +0.023 A 
ATOM     19  C   UNL     1       2.507  -3.333   0.284  0.00  0.00    +0.034 A 
ATOM     20  C   UNL     1       3.116  -2.936   1.468  0.00  0.00    +0.023 A 
ATOM     21  C   UNL     1       3.731  -1.702   1.546  0.00  0.00    +0.005 A 
ENDBRANCH  11  19
ENDBRANCH   5  12
ENDBRANCH   1  10
BRANCH   2  22
ATOM     22  C   UNL     1      -0.106  -6.311   6.006  0.00  0.00    +0.318 C 
ATOM     23  O   UNL     1      -0.209  -5.102   5.977  0.00  0.00    -0.263 OA
ATOM     24  N   UNL     1      -0.190  -6.967   7.181  0.00  0.00    -0.199 N 
ATOM     25  H   UNL     1      -0.108  -7.933   7.204  0.00  0.00    +0.178 HD
BRANCH  24  26
ATOM     26  N   UNL     1      -0.395  -6.253   8.368  0.00  0.00    -0.187 NA
ATOM     27  C   UNL     1      -0.476  -6.885   9.501  0.00  0.00    +0.142 C 
BRANCH  27  28
ATOM     28  C   UNL     1      -0.692  -6.134  10.750  0.00  0.00    +0.036 A 
ATOM     29  C   UNL     1      -0.774  -6.809  11.970  0.00  0.00    +0.013 A 
ATOM     30  C   UNL     1      -0.976  -6.100  13.135  0.00  0.00    +0.001 A 
ATOM     31  C   UNL     1      -1.099  -4.721  13.101  0.00  0.00    +0.007 A 
ATOM     32  C   UNL     1      -1.020  -4.041  11.900  0.00  0.00    -0.002 A 
ATOM     33  C   UNL     1      -0.811  -4.737  10.721  0.00  0.00    +0.129 A 
BRANCH  33  34
ATOM     34  O   UNL     1      -0.728  -4.070   9.541  0.00  0.00    -0.506 OA
ATOM     35  H   UNL     1      -1.577  -3.953   9.094  0.00  0.00    +0.292 HD
ENDBRANCH  33  34
BRANCH  32  36
ATOM     36  C   UNL     1      -1.156  -2.541  11.875  0.00  0.00    +0.065 C 
BRANCH  36  37
ATOM     37  C   UNL     1      -2.586  -2.171  11.578  0.00  0.00    -0.030 C 
ATOM     38  C   UNL     1      -3.241  -1.381  12.393  0.00  0.00    +0.004 C 
ENDBRANCH  36  37
ENDBRANCH  32  36
ENDBRANCH  27  28
ENDBRANCH  24  26
ENDBRANCH   2  22
TORSDOF 9
