REMARK  Name = ZINC63271424
REMARK  7 active torsions:
REMARK  status: ('A' for Active; 'I' for Inactive)
REMARK    1  A    between atoms: C_1  and  C_2
REMARK    2  A    between atoms: N_4  and  C_5
REMARK    3  A    between atoms: C_9  and  N_11
REMARK    4  A    between atoms: C_12  and  C_14
REMARK    5  A    between atoms: C_14  and  C_15
REMARK    6  A    between atoms: C_15  and  C_16
REMARK    7  A    between atoms: C_16  and  N_17
REMARK                            x       y       z     vdW  Elec       q    Type
REMARK                         _______ _______ _______ _____ _____    ______ ____
ROOT
ATOM      1  C   UNL     1      -0.492  -9.388  -5.644  0.00  0.00    +0.106 C 
ENDROOT
BRANCH   1   2
ATOM      2  N   UNL     1      -0.658 -10.812  -5.343  0.00  0.00    -0.299 N 
ATOM      3  C   UNL     1      -0.756 -11.706  -6.347  0.00  0.00    +0.302 C 
ATOM      4  O   UNL     1      -0.611 -11.344  -7.499  0.00  0.00    -0.253 OA
ATOM      5  N   UNL     1      -1.013 -13.000  -6.075  0.00  0.00    -0.283 N 
ATOM      6  C   UNL     1      -1.310 -13.406  -4.697  0.00  0.00    +0.114 C 
ATOM      7  C   UNL     1      -2.689 -14.088  -4.649  0.00  0.00    +0.052 C 
ATOM      8  C   UNL     1      -2.734 -15.055  -5.807  0.00  0.00    -0.036 C 
ATOM      9  C   UNL     1      -3.034 -16.347  -5.860  0.00  0.00    -0.001 A 
ATOM     10  C   UNL     1      -3.536 -17.279  -4.838  0.00  0.00    +0.010 A 
ATOM     11  C   UNL     1      -3.720 -18.565  -5.238  0.00  0.00    +0.001 A 
ATOM     12  C   UNL     1      -3.458 -19.012  -6.537  0.00  0.00    +0.002 A 
ATOM     13  C   UNL     1      -3.002 -18.222  -7.542  0.00  0.00    +0.026 A 
ATOM     14  C   UNL     1      -2.778 -16.846  -7.246  0.00  0.00    +0.043 A 
ATOM     15  N   UNL     1      -2.374 -15.876  -8.011  0.00  0.00    -0.376 N 
ATOM     16  C   UNL     1      -2.382 -14.638  -7.230  0.00  0.00    +0.124 C 
ATOM     17  C   UNL     1      -1.000 -13.990  -7.163  0.00  0.00    +0.138 C 
ATOM     18  H   UNL     1      -0.698 -11.112  -4.422  0.00  0.00    +0.150 HD
ATOM     19  H   UNL     1      -2.111 -15.958  -8.941  0.00  0.00    +0.160 HD
ENDBRANCH   1   2
BRANCH   1  20
ATOM     20  C   UNL     1      -0.408  -8.597  -4.337  0.00  0.00    +0.028 C 
BRANCH  20  21
ATOM     21  C   UNL     1      -0.235  -7.110  -4.650  0.00  0.00    +0.097 C 
BRANCH  21  23
ATOM     22  N   UNL     1       0.002  -4.992  -3.394  0.00  0.00    -0.285 N 
ATOM     23  C   UNL     1      -0.152  -6.331  -3.363  0.00  0.00    +0.217 C 
ATOM     24  O   UNL     1      -0.225  -6.909  -2.299  0.00  0.00    -0.275 OA
ATOM     25  H   UNL     1       0.127  -4.538  -4.241  0.00  0.00    +0.155 HD
BRANCH  22  30
ATOM     26  C   UNL     1      -0.593  -2.262  -0.998  0.00  0.00    +0.035 A 
ATOM     27  C   UNL     1      -0.056  -2.811   0.161  0.00  0.00    +0.023 A 
ATOM     28  C   UNL     1       0.496  -4.077   0.135  0.00  0.00    +0.004 A 
ATOM     29  C   UNL     1       0.516  -4.801  -1.042  0.00  0.00    +0.023 A 
ATOM     30  C   UNL     1      -0.019  -4.258  -2.203  0.00  0.00    +0.035 A 
ATOM     31  C   UNL     1      -0.579  -2.989  -2.179  0.00  0.00    +0.046 A 
BRANCH  26  35
ATOM     32  C   UNL     1      -2.894   0.650  -1.625  0.00  0.00    +0.109 C 
ATOM     33  C   UNL     1      -2.228  -0.698  -1.731  0.00  0.00    +0.214 C 
ATOM     34  O   UNL     1      -2.661  -1.528  -2.502  0.00  0.00    -0.276 OA
ATOM     35  N   UNL     1      -1.152  -0.980  -0.971  0.00  0.00    -0.286 N 
ATOM     36  H   UNL     1      -0.765  -0.293  -0.405  0.00  0.00    +0.155 HD
ENDBRANCH  26  35
ENDBRANCH  22  30
ENDBRANCH  21  23
ENDBRANCH  20  21
ENDBRANCH   1  20
TORSDOF 6
