REMARK  Name = ZINC35486974
REMARK  10 active torsions:
REMARK  status: ('A' for Active; 'I' for Inactive)
REMARK    1  A    between atoms: C_1  and  C_2
REMARK    2  A    between atoms: C_2  and  C_3
REMARK    3  A    between atoms: C_2  and  C_4
REMARK    4  A    between atoms: C_7  and  C_10
REMARK    5  A    between atoms: N_25  and  C_26
REMARK    6  A    between atoms: C_26  and  C_27
REMARK    7  A    between atoms: C_27  and  C_28
REMARK    8  A    between atoms: C_28  and  N_29
REMARK    9  A    between atoms: N_29  and  C_30
REMARK   10  A    between atoms: N_29  and  C_31
REMARK                            x       y       z     vdW  Elec       q    Type
REMARK                         _______ _______ _______ _____ _____    ______ ____
ROOT
ATOM      1  C   UNL     1      -5.419  -2.005   0.043  0.00  0.00    +0.144 C 
ATOM      2  C   UNL     1      -5.435  -3.438   0.464  0.00  0.00    +0.072 A 
ATOM      3  C   UNL     1      -4.997  -4.086   1.704  0.00  0.00    +0.199 A 
ATOM      4  O   UNL     1      -4.680  -3.467   2.705  0.00  0.00    -0.287 OA
ATOM      5  C   UNL     1      -4.974  -5.568   1.624  0.00  0.00    +0.065 A 
ATOM      6  C   UNL     1      -4.395  -6.322   2.645  0.00  0.00    +0.030 A 
ATOM      7  C   UNL     1      -4.378  -7.696   2.552  0.00  0.00    +0.019 A 
ATOM      8  C   UNL     1      -4.936  -8.325   1.446  0.00  0.00    +0.019 A 
ATOM      9  C   UNL     1      -5.512  -7.592   0.434  0.00  0.00    +0.048 A 
ATOM     10  C   UNL     1      -5.544  -6.199   0.506  0.00  0.00    +0.140 A 
ATOM     11  O   UNL     1      -6.125  -5.503  -0.498  0.00  0.00    -0.450 OA
ATOM     12  C   UNL     1      -5.965  -4.167  -0.563  0.00  0.00    +0.199 A 
ATOM     13  C   UNL     1      -6.295  -3.244  -1.663  0.00  0.00    +0.283 C 
ATOM     14  O   UNL     1      -6.781  -3.575  -2.726  0.00  0.00    -0.267 OA
ATOM     15  N   UNL     1      -5.981  -1.977  -1.317  0.00  0.00    -0.284 N 
ATOM     16 BR   UNL     1      -3.595  -8.727   3.930  0.00  0.00    -0.050 Br
ENDROOT
BRANCH   1  20
ATOM     17  C   UNL     1      -1.412  -0.526   0.013  0.00  0.00    -0.045 A 
ATOM     18  C   UNL     1      -2.259  -0.204   1.056  0.00  0.00    +0.004 A 
ATOM     19  C   UNL     1      -3.556  -0.683   1.066  0.00  0.00    +0.006 A 
ATOM     20  C   UNL     1      -4.006  -1.482   0.032  0.00  0.00    -0.022 A 
ATOM     21  C   UNL     1      -3.159  -1.803  -1.012  0.00  0.00    +0.006 A 
ATOM     22  C   UNL     1      -1.863  -1.321  -1.024  0.00  0.00    +0.004 A 
BRANCH  17  24
ATOM     23  C   UNL     1      -0.019   1.526   0.010  0.00  0.00    +0.012 C 
ATOM     24  C   UNL     1       0.002  -0.004   0.002  0.00  0.00    +0.013 C 
ATOM     25  C   UNL     1       0.742  -0.511   1.242  0.00  0.00    +0.012 C 
ENDBRANCH  17  24
ENDBRANCH   1  20
BRANCH  15  26
ATOM     26  C   UNL     1      -6.167  -0.785  -2.148  0.00  0.00    +0.107 C 
BRANCH  26  27
ATOM     27  C   UNL     1      -4.910  -0.547  -2.987  0.00  0.00    +0.000 C 
BRANCH  27  28
ATOM     28  C   UNL     1      -5.104   0.698  -3.854  0.00  0.00    -0.078 C 
BRANCH  28  29
ATOM     29  N   UNL     1      -3.897   0.926  -4.660  0.00  0.00    +0.376 N 
ATOM     30  C   UNL     1      -3.723  -0.183  -5.607  0.00  0.00    -0.097 C 
ATOM     31  C   UNL     1      -4.036   2.186  -5.403  0.00  0.00    -0.097 C 
ATOM     32  H   UNL     1      -3.093   0.980  -4.053  0.00  0.00    -0.083 HD
ENDBRANCH  28  29
ENDBRANCH  27  28
ENDBRANCH  26  27
ENDBRANCH  15  26
TORSDOF 6
