REMARK  Name = ZINC43284748
REMARK  9 active torsions:
REMARK  status: ('A' for Active; 'I' for Inactive)
REMARK    1  A    between atoms: C_1  and  C_2
REMARK    2  A    between atoms: C_2  and  C_3
REMARK    3  A    between atoms: C_3  and  C_5
REMARK    4  A    between atoms: C_3  and  N_23
REMARK    5  A    between atoms: C_5  and  C_7
REMARK    6  A    between atoms: C_5  and  N_13
REMARK    7  A    between atoms: C_18  and  C_20
REMARK    8  A    between atoms: C_20  and  C_21
REMARK    9  A    between atoms: C_21  and  O_22
REMARK                            x       y       z     vdW  Elec       q    Type
REMARK                         _______ _______ _______ _____ _____    ______ ____
ROOT
ATOM      1  C   UNL     1      -1.199  -1.886   0.220  0.00  0.00    +0.079 C 
ENDROOT
BRANCH   1   2
ATOM      2  C   UNL     1      -2.514  -2.481  -0.214  0.00  0.00    +0.006 A 
ATOM      3  C   UNL     1      -2.969  -2.722  -1.468  0.00  0.00    +0.028 A 
ATOM      4  C   UNL     1      -4.223  -3.281  -1.630  0.00  0.00    +0.025 A 
ATOM      5  C   UNL     1      -4.961  -3.571  -0.530  0.00  0.00    +0.060 A 
ATOM      6  S   UNL     1      -3.873  -3.057   0.789  0.00  0.00    -0.099 S 
ATOM      7 BR   UNL     1      -4.900  -3.635  -3.360  0.00  0.00    -0.050 Br
ENDBRANCH   1   2
BRANCH   1   8
ATOM      8  N   UNL     1      -0.593  -2.739   1.251  0.00  0.00    -0.294 NA
ATOM      9  C   UNL     1      -1.377  -2.702   2.493  0.00  0.00    +0.085 C 
ATOM     10  C   UNL     1      -0.642  -3.482   3.585  0.00  0.00    +0.015 C 
ATOM     11  C   UNL     1      -0.445  -4.929   3.128  0.00  0.00    +0.003 C 
ATOM     12  C   UNL     1       0.332  -4.938   1.808  0.00  0.00    +0.019 C 
ATOM     13  C   UNL     1      -0.431  -4.116   0.767  0.00  0.00    +0.059 C 
BRANCH  13  14
ATOM     14  C   UNL     1       0.352  -4.105  -0.547  0.00  0.00    +0.046 C 
BRANCH  14  15
ATOM     15  C   UNL     1       0.449  -5.531  -1.095  0.00  0.00    +0.157 C 
BRANCH  15  16
ATOM     16  O   UNL     1       1.073  -5.506  -2.380  0.00  0.00    -0.395 OA
ATOM     17  H   UNL     1       1.168  -6.377  -2.788  0.00  0.00    +0.209 HD
ENDBRANCH  15  16
ENDBRANCH  14  15
ENDBRANCH  13  14
ENDBRANCH   1   8
BRANCH   1  18
ATOM     18  C   UNL     1      -1.436  -0.487   0.791  0.00  0.00    -0.053 C 
BRANCH  18  19
ATOM     19  N   UNL     1      -2.042   0.366  -0.240  0.00  0.00    +0.381 N 
ATOM     20  H   UNL     1      -1.422   0.427  -1.034  0.00  0.00    -0.090 HD
ATOM     21  H   UNL     1      -2.922  -0.032  -0.531  0.00  0.00    -0.090 HD
ATOM     22  H   UNL     1      -2.198   1.289   0.136  0.00  0.00    -0.090 HD
ENDBRANCH  18  19
BRANCH  18  24
ATOM     23  C   UNL     1      -0.350   1.463   1.915  0.00  0.00    +0.002 C 
ATOM     24  C   UNL     1      -0.101   0.117   1.232  0.00  0.00    -0.018 C 
ENDBRANCH  18  24
ENDBRANCH   1  18
TORSDOF 8
