REMARK  Name = ZINC47613647
REMARK  7 active torsions:
REMARK  status: ('A' for Active; 'I' for Inactive)
REMARK    1  A    between atoms: C_1  and  C_2
REMARK    2  A    between atoms: C_5  and  C_8
REMARK    3  A    between atoms: C_8  and  N_9
REMARK    4  A    between atoms: N_9  and  C_10
REMARK    5  A    between atoms: N_9  and  C_17
REMARK    6  A    between atoms: C_10  and  C_11
REMARK    7  A    between atoms: C_17  and  C_18
REMARK                            x       y       z     vdW  Elec       q    Type
REMARK                         _______ _______ _______ _____ _____    ______ ____
ROOT
ATOM      1  N   UNL     1       1.254  -4.618  -0.140  0.00  0.00    +0.394 N 
ATOM      2  H   UNL     1       1.555  -4.252   0.751  0.00  0.00    -0.080 HD
ENDROOT
BRANCH   1   3
ATOM      3  C   UNL     1      -0.121  -4.177  -0.411  0.00  0.00    -0.042 C 
BRANCH   3   8
ATOM      4  C   UNL     1      -3.528  -5.645   4.019  0.00  0.00    +0.044 C 
ATOM      5  C   UNL     1      -2.640  -5.263   2.864  0.00  0.00    -0.050 A 
ATOM      6  C   UNL     1      -1.879  -4.110   2.929  0.00  0.00    +0.003 A 
ATOM      7  C   UNL     1      -1.064  -3.759   1.869  0.00  0.00    +0.002 A 
ATOM      8  C   UNL     1      -1.009  -4.560   0.745  0.00  0.00    -0.064 A 
ATOM      9  C   UNL     1      -1.769  -5.713   0.679  0.00  0.00    +0.002 A 
ATOM     10  C   UNL     1      -2.581  -6.067   1.741  0.00  0.00    +0.003 A 
ENDBRANCH   3   8
ENDBRANCH   1   3
BRANCH   1  11
ATOM     11  C   UNL     1       1.299  -6.086  -0.107  0.00  0.00    +0.020 C 
BRANCH  11  12
ATOM     12  C   UNL     1       2.680  -6.537   0.291  0.00  0.00    +0.204 C 
ATOM     13  O   UNL     1       3.542  -5.717   0.525  0.00  0.00    -0.277 OA
ATOM     14  N   UNL     1       2.958  -7.852   0.388  0.00  0.00    -0.242 N 
ATOM     15  C   UNL     1       4.194  -8.255   0.745  0.00  0.00    +0.303 C 
ATOM     16  O   UNL     1       5.058  -7.433   0.979  0.00  0.00    -0.253 OA
ATOM     17  N   UNL     1       4.472  -9.571   0.842  0.00  0.00    -0.313 N 
ATOM     18  H   UNL     1       2.269  -8.509   0.201  0.00  0.00    +0.159 HD
ATOM     19  H   UNL     1       3.783 -10.227   0.655  0.00  0.00    +0.146 HD
ATOM     20  H   UNL     1       5.361  -9.861   1.098  0.00  0.00    +0.146 HD
ENDBRANCH  11  12
ENDBRANCH   1  11
BRANCH   1  21
ATOM     21  C   UNL     1       2.144  -4.124  -1.199  0.00  0.00    +0.020 C 
BRANCH  21  22
ATOM     22  C   UNL     1       2.225  -2.621  -1.126  0.00  0.00    +0.204 C 
ATOM     23  O   UNL     1       1.697  -2.029  -0.210  0.00  0.00    -0.277 OA
ATOM     24  N   UNL     1       2.885  -1.935  -2.081  0.00  0.00    -0.242 N 
ATOM     25  C   UNL     1       2.957  -0.591  -2.016  0.00  0.00    +0.303 C 
ATOM     26  O   UNL     1       2.428   0.003  -1.097  0.00  0.00    -0.253 OA
ATOM     27  N   UNL     1       3.617   0.095  -2.970  0.00  0.00    -0.313 N 
ATOM     28  H   UNL     1       3.307  -2.409  -2.814  0.00  0.00    +0.159 HD
ATOM     29  H   UNL     1       4.040  -0.378  -3.704  0.00  0.00    +0.146 HD
ATOM     30  H   UNL     1       3.669   1.063  -2.923  0.00  0.00    +0.146 HD
ENDBRANCH  21  22
ENDBRANCH   1  21
TORSDOF 6
