REMARK  Name = ZINC20902210
REMARK  5 active torsions:
REMARK  status: ('A' for Active; 'I' for Inactive)
REMARK    1  A    between atoms: C_1  and  C_2
REMARK    2  A    between atoms: C_2  and  C_26
REMARK    3  A    between atoms: C_5  and  S_13
REMARK    4  A    between atoms: N_9  and  C_12
REMARK    5  A    between atoms: S_13  and  N_16
REMARK                            x       y       z     vdW  Elec       q    Type
REMARK                         _______ _______ _______ _____ _____    ______ ____
ROOT
ATOM      1  C   UNL     1      -2.086   1.852  -1.236  0.00  0.00    +0.025 C 
ATOM      2  C   UNL     1      -1.244   2.091   0.018  0.00  0.00    +0.068 C 
ATOM      3  C   UNL     1      -0.688   3.497   0.026  0.00  0.00    -0.010 A 
ATOM      4  C   UNL     1      -1.282   4.739   0.038  0.00  0.00    +0.035 A 
ATOM      5  C   UNL     1      -0.497   5.879   0.037  0.00  0.00    +0.106 A 
ATOM      6  C   UNL     1       0.881   5.765   0.024  0.00  0.00    +0.030 A 
ATOM      7  C   UNL     1       1.478   4.522   0.011  0.00  0.00    +0.026 A 
ATOM      8  C   UNL     1       0.695   3.369   0.013  0.00  0.00    +0.040 A 
ATOM      9  N   UNL     1       1.056   2.022   0.003  0.00  0.00    -0.273 N 
ATOM     10  C   UNL     1      -0.014   1.209   0.009  0.00  0.00    +0.230 C 
ATOM     11  O   UNL     1       0.002  -0.004   0.002  0.00  0.00    -0.274 OA
ATOM     12  C   UNL     1       2.442   1.547  -0.012  0.00  0.00    +0.138 C 
ATOM     13  C   UNL     1      -2.075   1.840   1.279  0.00  0.00    +0.025 C 
ENDROOT
BRANCH   5  14
ATOM     14  S   UNL     1      -1.252   7.471   0.051  0.00  0.00    +0.061 S 
ATOM     15  O   UNL     1      -0.306   8.374  -0.503  0.00  0.00    -0.153 OA
ATOM     16  O   UNL     1      -2.557   7.306  -0.489  0.00  0.00    -0.153 OA
BRANCH  14  17
ATOM     17  N   UNL     1      -1.448   7.905   1.637  0.00  0.00    -0.172 NA
ATOM     18  C   UNL     1      -2.678   7.572   2.376  0.00  0.00    +0.114 C 
ATOM     19  C   UNL     1      -2.294   6.609   3.505  0.00  0.00    +0.052 C 
ATOM     20  C   UNL     1      -1.092   7.116   4.256  0.00  0.00    -0.042 A 
ATOM     21  C   UNL     1      -0.869   6.611   5.532  0.00  0.00    +0.004 A 
ATOM     22  C   UNL     1       0.221   7.024   6.269  0.00  0.00    +0.000 A 
ATOM     23  C   UNL     1       1.101   7.948   5.738  0.00  0.00    +0.000 A 
ATOM     24  C   UNL     1       0.880   8.454   4.474  0.00  0.00    +0.005 A 
ATOM     25  C   UNL     1      -0.219   8.042   3.731  0.00  0.00    -0.028 A 
ATOM     26  C   UNL     1      -0.407   8.642   2.361  0.00  0.00    +0.144 C 
ENDBRANCH  14  17
ENDBRANCH   5  14
TORSDOF 2
