REMARK  Name = ZINC13034215
REMARK  10 active torsions:
REMARK  status: ('A' for Active; 'I' for Inactive)
REMARK    1  A    between atoms: C_1  and  C_2
REMARK    2  A    between atoms: C_2  and  N_3
REMARK    3  A    between atoms: N_3  and  C_4
REMARK    4  A    between atoms: C_12  and  C_14
REMARK    5  A    between atoms: C_14  and  S_15
REMARK    6  A    between atoms: S_15  and  C_16
REMARK    7  A    between atoms: C_19  and  C_24
REMARK    8  A    between atoms: N_20  and  C_21
REMARK    9  A    between atoms: C_21  and  C_22
REMARK   10  A    between atoms: C_27  and  C_30
REMARK                            x       y       z     vdW  Elec       q    Type
REMARK                         _______ _______ _______ _____ _____    ______ ____
ROOT
ATOM      1  C   UNL     1      -3.672  -2.743   1.208  0.00  0.00    +0.193 A 
ATOM      2  N   UNL     1      -3.116  -3.010   0.047  0.00  0.00    -0.122 NA
ATOM      3  N   UNL     1      -3.467  -4.180  -0.351  0.00  0.00    -0.128 NA
ATOM      4  C   UNL     1      -4.267  -4.732   0.530  0.00  0.00    +0.165 A 
ATOM      5  N   UNL     1      -4.419  -3.831   1.559  0.00  0.00    -0.291 N 
ENDROOT
BRANCH   4   6
ATOM      6  C   UNL     1      -4.884  -6.073   0.439  0.00  0.00    +0.019 A 
ATOM      7  C   UNL     1      -4.360  -7.027  -0.434  0.00  0.00    +0.012 A 
ATOM      8  C   UNL     1      -4.937  -8.278  -0.510  0.00  0.00    +0.004 A 
ATOM      9  C   UNL     1      -6.040  -8.583   0.267  0.00  0.00    -0.050 A 
ATOM     10  C   UNL     1      -6.568  -7.639   1.130  0.00  0.00    +0.004 A 
ATOM     11  C   UNL     1      -5.997  -6.387   1.220  0.00  0.00    +0.012 A 
ATOM     12  C   UNL     1      -6.669  -9.949   0.173  0.00  0.00    +0.044 C 
ENDBRANCH   4   6
BRANCH   1  13
ATOM     13  S   UNL     1      -3.483  -1.260   2.141  0.00  0.00    -0.077 S 
BRANCH  13  14
ATOM     14  C   UNL     1      -2.373  -0.340   1.047  0.00  0.00    +0.173 C 
BRANCH  14  16
ATOM     15  N   UNL     1      -1.251   1.865   1.017  0.00  0.00    -0.296 N 
ATOM     16  C   UNL     1      -2.064   1.003   1.659  0.00  0.00    +0.226 C 
ATOM     17  O   UNL     1      -2.547   1.307   2.729  0.00  0.00    -0.275 OA
BRANCH  15  18
ATOM     18  C   UNL     1      -0.951   3.170   1.611  0.00  0.00    +0.098 C 
ATOM     19  C   UNL     1      -0.302   2.974   2.992  0.00  0.00    +0.046 C 
ATOM     20  C   UNL     1      -0.276   4.319   3.758  0.00  0.00    +0.168 C 
ATOM     21  S   UNL     1      -1.727   5.208   3.062  0.00  0.00    -0.029 S 
ATOM     22  O   UNL     1      -1.275   6.380   2.395  0.00  0.00    -0.174 OA
ATOM     23  O   UNL     1      -2.728   5.317   4.064  0.00  0.00    -0.174 OA
ATOM     24  C   UNL     1      -2.268   3.974   1.805  0.00  0.00    +0.188 C 
ENDBRANCH  15  18
BRANCH  15  26
ATOM     25  C   UNL     1      -1.605   1.940  -1.402  0.00  0.00    +0.024 C 
ATOM     26  C   UNL     1      -0.668   1.497  -0.276  0.00  0.00    +0.105 C 
ENDBRANCH  15  26
ENDBRANCH  14  16
ENDBRANCH  13  14
ENDBRANCH   1  13
BRANCH   5  27
ATOM     27  C   UNL     1      -5.217  -4.002   2.775  0.00  0.00    +0.250 C 
BRANCH  27  28
ATOM     28  C   UNL     1      -6.608  -3.472   2.542  0.00  0.00    +0.375 C 
ATOM     29  O   UNL     1      -6.903  -3.000   1.469  0.00  0.00    -0.244 OA
ATOM     30  O   UNL     1      -7.520  -3.524   3.525  0.00  0.00    -0.244 OA
ENDBRANCH  27  28
ENDBRANCH   5  27
TORSDOF 8
