REMARK  Name = ZINC59170444
REMARK  8 active torsions:
REMARK  status: ('A' for Active; 'I' for Inactive)
REMARK    1  A    between atoms: C_1  and  C_2
REMARK    2  A    between atoms: C_5  and  S_8
REMARK    3  A    between atoms: S_8  and  N_11
REMARK    4  A    between atoms: N_11  and  N_12
REMARK    5  A    between atoms: C_14  and  C_24
REMARK    6  A    between atoms: C_19  and  O_23
REMARK    7  A    between atoms: N_26  and  C_27
REMARK    8  A    between atoms: C_31  and  C_33
REMARK                            x       y       z     vdW  Elec       q    Type
REMARK                         _______ _______ _______ _____ _____    ______ ____
ROOT
ATOM      1  N   UNL     1       2.974  -5.277   1.250  0.00  0.00    -0.260 N 
ATOM      2  C   UNL     1       4.239  -5.481   1.014  0.00  0.00    +0.225 A 
ATOM      3  C   UNL     1       4.695  -6.021  -0.288  0.00  0.00    +0.099 A 
ATOM      4  C   UNL     1       5.972  -5.701  -0.689  0.00  0.00    +0.030 A 
ATOM      5  C   UNL     1       6.772  -4.855   0.202  0.00  0.00    +0.018 A 
ATOM      6  C   UNL     1       7.962  -4.271  -0.248  0.00  0.00    +0.015 A 
ATOM      7  C   UNL     1       8.693  -3.483   0.595  0.00  0.00    +0.046 A 
ATOM      8  C   UNL     1       8.263  -3.257   1.900  0.00  0.00    +0.120 A 
ATOM      9  C   UNL     1       7.086  -3.830   2.362  0.00  0.00    +0.092 A 
ATOM     10  C   UNL     1       6.335  -4.631   1.521  0.00  0.00    +0.141 A 
ATOM     11  O   UNL     1       5.185  -5.199   1.955  0.00  0.00    -0.437 OA
ATOM     12  H   UNL     1       2.674  -5.081   2.152  0.00  0.00    +0.189 HD
ENDROOT
BRANCH   3  13
ATOM     13  C   UNL     1       3.821  -6.864  -1.117  0.00  0.00    +0.253 C 
ATOM     14  O   UNL     1       3.647  -8.032  -0.826  0.00  0.00    -0.270 OA
ATOM     15  N   UNL     1       3.211  -6.341  -2.200  0.00  0.00    -0.281 N 
ATOM     16  H   UNL     1       3.287  -5.393  -2.390  0.00  0.00    +0.155 HD
BRANCH  15  17
ATOM     17  C   UNL     1       2.467  -7.167  -3.050  0.00  0.00    +0.034 A 
ATOM     18  C   UNL     1       1.835  -8.296  -2.545  0.00  0.00    +0.023 A 
ATOM     19  C   UNL     1       1.102  -9.109  -3.387  0.00  0.00    +0.002 A 
ATOM     20  C   UNL     1       0.997  -8.800  -4.731  0.00  0.00    +0.003 A 
ATOM     21  C   UNL     1       1.625  -7.676  -5.236  0.00  0.00    -0.049 A 
ATOM     22  C   UNL     1       2.354  -6.856  -4.399  0.00  0.00    +0.026 A 
ATOM     23  C   UNL     1       1.508  -7.344  -6.701  0.00  0.00    +0.044 C 
ENDBRANCH  15  17
ENDBRANCH   3  13
BRANCH   1  24
ATOM     24  N   UNL     1       2.046  -5.340   0.202  0.00  0.00    -0.157 N 
ATOM     25  H   UNL     1       2.352  -5.331  -0.718  0.00  0.00    +0.194 HD
BRANCH  24  26
ATOM     26  S   UNL     1       0.426  -5.432   0.535  0.00  0.00    +0.085 S 
ATOM     27  O   UNL     1       0.253  -6.535   1.413  0.00  0.00    -0.149 OA
ATOM     28  O   UNL     1      -0.250  -5.337  -0.711  0.00  0.00    -0.149 OA
BRANCH  26  33
ATOM     29  C   UNL     1      -1.036  -0.489   3.671  0.00  0.00    +0.044 C 
ATOM     30  C   UNL     1      -0.671  -1.724   2.888  0.00  0.00    -0.050 A 
ATOM     31  C   UNL     1      -0.744  -1.713   1.507  0.00  0.00    +0.005 A 
ATOM     32  C   UNL     1      -0.409  -2.845   0.789  0.00  0.00    +0.029 A 
ATOM     33  C   UNL     1       0.000  -3.988   1.450  0.00  0.00    +0.110 A 
ATOM     34  C   UNL     1       0.075  -3.998   2.831  0.00  0.00    +0.029 A 
ATOM     35  C   UNL     1      -0.257  -2.865   3.549  0.00  0.00    +0.005 A 
ENDBRANCH  26  33
ENDBRANCH  24  26
ENDBRANCH   1  24
BRANCH   8  36
ATOM     36  O   UNL     1       8.999  -2.471   2.726  0.00  0.00    -0.507 OA
ATOM     37  H   UNL     1       8.761  -1.534   2.693  0.00  0.00    +0.292 HD
ENDBRANCH   8  36
TORSDOF 6
