REMARK  Name = ZINC35312621
REMARK  9 active torsions:
REMARK  status: ('A' for Active; 'I' for Inactive)
REMARK    1  A    between atoms: C_1  and  C_2
REMARK    2  A    between atoms: C_2  and  C_3
REMARK    3  A    between atoms: C_12  and  C_25
REMARK    4  A    between atoms: C_12  and  C_26
REMARK    5  A    between atoms: N_13  and  C_16
REMARK    6  A    between atoms: C_16  and  C_17
REMARK    7  A    between atoms: N_22  and  C_23
REMARK    8  A    between atoms: C_23  and  C_24
REMARK    9  A    between atoms: N_28  and  C_29
REMARK                            x       y       z     vdW  Elec       q    Type
REMARK                         _______ _______ _______ _____ _____    ______ ____
ROOT
ATOM      1  C   UNL     1       3.009  -1.081   1.070  0.00  0.00    -0.008 A 
ATOM      2  C   UNL     1       4.034  -1.406   0.254  0.00  0.00    +0.037 A 
ATOM      3  C   UNL     1       3.840  -1.463  -1.134  0.00  0.00    +0.057 A 
ATOM      4  C   UNL     1       2.541  -1.168  -1.578  0.00  0.00    +0.038 A 
ATOM      5  S   UNL     1       1.662  -0.833  -0.074  0.00  0.00    -0.092 S 
ATOM      6  C   UNL     1       2.490  -1.266  -2.963  0.00  0.00    +0.048 A 
ATOM      7  C   UNL     1       3.734  -1.624  -3.387  0.00  0.00    +0.106 A 
ATOM      8  N   UNL     1       4.568  -1.730  -2.279  0.00  0.00    -0.333 N 
ATOM      9  C   UNL     1       5.988  -2.068  -2.408  0.00  0.00    +0.157 C 
ATOM     10  C   UNL     1       6.182  -2.939  -3.650  0.00  0.00    +0.128 C 
ATOM     11  N   UNL     1       5.491  -2.408  -4.820  0.00  0.00    -0.282 N 
ATOM     12  C   UNL     1       4.252  -1.869  -4.739  0.00  0.00    +0.264 C 
ATOM     13  O   UNL     1       3.602  -1.603  -5.734  0.00  0.00    -0.268 OA
ATOM     14  C   UNL     1       5.651  -4.343  -3.357  0.00  0.00    +0.043 C 
ENDROOT
BRANCH  10  15
ATOM     15  C   UNL     1       7.655  -3.031  -3.954  0.00  0.00    +0.238 C 
ATOM     16  O   UNL     1       8.156  -4.107  -4.203  0.00  0.00    -0.273 OA
ATOM     17  N   UNL     1       8.415  -1.918  -3.951  0.00  0.00    -0.311 N 
ATOM     18  H   UNL     1       8.031  -1.069  -3.682  0.00  0.00    +0.149 HD
BRANCH  17  19
ATOM     19  C   UNL     1       9.822  -1.991  -4.353  0.00  0.00    +0.073 C 
ATOM     20  C   UNL     1      10.660  -2.475  -3.152  0.00  0.00    +0.022 C 
ATOM     21  C   UNL     1      11.959  -3.031  -3.670  0.00  0.00    +0.002 C 
ATOM     22  C   UNL     1      13.090  -1.984  -3.670  0.00  0.00    +0.000 C 
ATOM     23  C   UNL     1      12.620  -0.599  -4.153  0.00  0.00    +0.000 C 
ATOM     24  C   UNL     1      11.700  -0.684  -5.340  0.00  0.00    +0.002 C 
ATOM     25  C   UNL     1      10.243  -0.683  -4.832  0.00  0.00    +0.022 C 
ENDBRANCH  17  19
ENDBRANCH  10  15
BRANCH   1  27
ATOM     26  C   UNL     1       3.350   0.471   2.973  0.00  0.00    +0.009 C 
ATOM     27  C   UNL     1       3.003  -0.964   2.572  0.00  0.00    +0.039 C 
ENDBRANCH   1  27
BRANCH  11  28
ATOM     28  C   UNL     1       6.159  -2.461  -6.122  0.00  0.00    +0.094 C 
BRANCH  28  29
ATOM     29  C   UNL     1       6.857  -1.126  -6.392  0.00  0.00    -0.051 C 
ATOM     30  C   UNL     1       5.805  -0.018  -6.607  0.00  0.00    -0.016 C 
ATOM     31  C   UNL     1       6.429   0.842  -7.737  0.00  0.00    -0.020 C 
ATOM     32  C   UNL     1       7.128  -0.236  -8.602  0.00  0.00    -0.078 C 
ATOM     33  N   UNL     1       7.657  -1.219  -7.627  0.00  0.00    +0.382 N 
ATOM     34  H   UNL     1       8.623  -1.010  -7.422  0.00  0.00    -0.081 HD
BRANCH  33  35
ATOM     35  C   UNL     1       7.553  -2.575  -8.183  0.00  0.00    -0.082 C 
ATOM     36  C   UNL     1       8.453  -2.691  -9.414  0.00  0.00    -0.017 C 
ENDBRANCH  33  35
ENDBRANCH  28  29
ENDBRANCH  11  28
TORSDOF 6
