REMARK  Name = ZINC36994413
REMARK  10 active torsions:
REMARK  status: ('A' for Active; 'I' for Inactive)
REMARK    1  A    between atoms: C_1  and  C_2
REMARK    2  A    between atoms: C_2  and  C_4
REMARK    3  A    between atoms: C_2  and  N_12
REMARK    4  A    between atoms: C_7  and  S_10
REMARK    5  A    between atoms: S_10  and  C_11
REMARK    6  A    between atoms: N_12  and  C_13
REMARK    7  A    between atoms: C_13  and  C_15
REMARK    8  A    between atoms: C_13  and  C_16
REMARK    9  A    between atoms: C_19  and  O_23
REMARK   10  A    between atoms: C_21  and  O_22
REMARK                            x       y       z     vdW  Elec       q    Type
REMARK                         _______ _______ _______ _____ _____    ______ ____
ROOT
ATOM      1  N   UNL     1       0.695  -0.383   1.255  0.00  0.00    +0.388 N 
ATOM      2  H   UNL     1       0.232  -0.042   2.083  0.00  0.00    -0.084 HD
ATOM      3  H   UNL     1       0.716  -1.392   1.273  0.00  0.00    -0.084 HD
ENDROOT
BRANCH   1   5
ATOM      4  C   UNL     1      -1.502  -0.354   0.173  0.00  0.00    -0.009 C 
ATOM      5  C   UNL     1      -0.036   0.070   0.064  0.00  0.00    -0.043 C 
BRANCH   5   6
ATOM      6  C   UNL     1       0.575  -0.550  -1.167  0.00  0.00    -0.062 A 
ATOM      7  C   UNL     1       0.988  -1.870  -1.142  0.00  0.00    +0.003 A 
ATOM      8  C   UNL     1       1.548  -2.441  -2.267  0.00  0.00    +0.015 A 
ATOM      9  C   UNL     1       1.698  -1.688  -3.426  0.00  0.00    +0.008 A 
ATOM     10  C   UNL     1       1.281  -0.362  -3.447  0.00  0.00    +0.015 A 
ATOM     11  C   UNL     1       0.716   0.201  -2.320  0.00  0.00    +0.003 A 
BRANCH   9  12
ATOM     12  S   UNL     1       2.413  -2.412  -4.864  0.00  0.00    -0.129 S 
ATOM     13  C   UNL     1       2.395  -1.071  -6.085  0.00  0.00    +0.090 C 
ENDBRANCH   9  12
ENDBRANCH   5   6
ENDBRANCH   1   5
BRANCH   1  14
ATOM     14  C   UNL     1       2.069   0.135   1.212  0.00  0.00    -0.040 C 
ATOM     15  C   UNL     1       2.043   1.659   1.342  0.00  0.00    -0.009 C 
BRANCH  14  16
ATOM     16  C   UNL     1       2.862  -0.452   2.351  0.00  0.00    -0.020 A 
ATOM     17  C   UNL     1       2.208  -0.989   3.444  0.00  0.00    +0.009 A 
ATOM     18  C   UNL     1       2.933  -1.528   4.489  0.00  0.00    +0.046 A 
ATOM     19  C   UNL     1       4.321  -1.532   4.444  0.00  0.00    +0.120 A 
ATOM     20  C   UNL     1       4.979  -0.995   3.349  0.00  0.00    +0.091 A 
ATOM     21  C   UNL     1       4.249  -0.459   2.298  0.00  0.00    +0.122 A 
BRANCH  21  22
ATOM     22  O   UNL     1       4.891   0.064   1.221  0.00  0.00    -0.506 OA
ATOM     23  H   UNL     1       5.096   1.005   1.303  0.00  0.00    +0.292 HD
ENDBRANCH  21  22
BRANCH  19  24
ATOM     24  O   UNL     1       5.033  -2.062   5.472  0.00  0.00    -0.507 OA
ATOM     25  H   UNL     1       5.224  -3.005   5.373  0.00  0.00    +0.292 HD
ENDBRANCH  19  24
ENDBRANCH  14  16
ENDBRANCH   1  14
TORSDOF 7
