REMARK  Name = ZINC65520473
REMARK  10 active torsions:
REMARK  status: ('A' for Active; 'I' for Inactive)
REMARK    1  A    between atoms: C_1  and  C_2
REMARK    2  A    between atoms: C_2  and  C_3
REMARK    3  A    between atoms: C_2  and  N_4
REMARK    4  A    between atoms: C_7  and  C_9
REMARK    5  A    between atoms: C_9  and  N_10
REMARK    6  A    between atoms: N_13  and  N_14
REMARK    7  A    between atoms: C_15  and  C_17
REMARK    8  A    between atoms: C_17  and  C_18
REMARK    9  A    between atoms: C_18  and  S_19
REMARK   10  A    between atoms: S_19  and  C_20
REMARK                            x       y       z     vdW  Elec       q    Type
REMARK                         _______ _______ _______ _____ _____    ______ ____
ROOT
ATOM      1  N   UNL     1       1.718  -3.643   4.477  0.00  0.00    -0.298 N 
ATOM      2  C   UNL     1       2.705  -4.346   5.069  0.00  0.00    +0.316 C 
ATOM      3  O   UNL     1       3.724  -4.597   4.456  0.00  0.00    -0.251 OA
ATOM      4  N   UNL     1       2.561  -4.769   6.340  0.00  0.00    -0.218 N 
ATOM      5  H   UNL     1       0.905  -3.443   4.966  0.00  0.00    +0.150 HD
ATOM      6  H   UNL     1       3.271  -5.275   6.766  0.00  0.00    +0.174 HD
ENDROOT
BRANCH   4   7
ATOM      7  N   UNL     1       1.387  -4.480   7.046  0.00  0.00    -0.233 N 
ATOM      8  C   UNL     1       1.243  -4.904   8.318  0.00  0.00    +0.230 C 
ATOM      9  O   UNL     1       2.131  -5.535   8.850  0.00  0.00    -0.274 OA
ATOM     10  H   UNL     1       0.676  -3.974   6.621  0.00  0.00    +0.173 HD
BRANCH   8  11
ATOM     11  C   UNL     1      -0.021  -4.592   9.078  0.00  0.00    +0.108 C 
BRANCH  11  12
ATOM     12  C   UNL     1       0.072  -5.182  10.486  0.00  0.00    +0.083 C 
BRANCH  12  13
ATOM     13  S   UNL     1      -1.448  -4.807  11.401  0.00  0.00    -0.125 S 
BRANCH  13  14
ATOM     14  C   UNL     1      -1.189  -5.544  12.980  0.00  0.00    +0.008 A 
ATOM     15  C   UNL     1      -0.000  -6.211  13.250  0.00  0.00    +0.017 A 
ATOM     16  C   UNL     1       0.201  -6.787  14.489  0.00  0.00    +0.039 A 
ATOM     17  C   UNL     1      -0.780  -6.700  15.462  0.00  0.00    +0.123 A 
ATOM     18  C   UNL     1      -1.965  -6.035  15.196  0.00  0.00    +0.039 A 
ATOM     19  C   UNL     1      -2.169  -5.453  13.960  0.00  0.00    +0.017 A 
ATOM     20  F   UNL     1      -0.581  -7.265  16.673  0.00  0.00    -0.205 F 
ENDBRANCH  13  14
ENDBRANCH  12  13
ENDBRANCH  11  12
ENDBRANCH   8  11
ENDBRANCH   4   7
BRANCH   1  21
ATOM     21  C   UNL     1       1.874  -3.183   3.095  0.00  0.00    +0.107 C 
BRANCH  21  25
ATOM     22  N   UNL     1       0.713  -0.491   1.192  0.00  0.00    +0.381 N 
ATOM     23  C   UNL     1      -0.018  -0.094   2.423  0.00  0.00    -0.078 C 
ATOM     24  C   UNL     1       0.491  -1.107   3.479  0.00  0.00    -0.015 C 
ATOM     25  C   UNL     1       0.621  -2.416   2.668  0.00  0.00    -0.012 C 
ATOM     26  C   UNL     1       0.742  -1.969   1.200  0.00  0.00    -0.074 C 
ATOM     27  H   UNL     1       1.652  -0.124   1.211  0.00  0.00    -0.081 HD
BRANCH  22  29
ATOM     28  C   UNL     1      -0.019   1.526   0.010  0.00  0.00    -0.014 C 
ATOM     29  C   UNL     1       0.002  -0.004   0.002  0.00  0.00    -0.075 C 
ATOM     30  C   UNL     1       0.718  -0.497  -1.257  0.00  0.00    -0.014 C 
ENDBRANCH  22  29
ENDBRANCH  21  25
ENDBRANCH   1  21
TORSDOF 8
