REMARK  Name = ZINC67501613
REMARK  8 active torsions:
REMARK  status: ('A' for Active; 'I' for Inactive)
REMARK    1  A    between atoms: C_1  and  O_2
REMARK    2  A    between atoms: O_2  and  C_3
REMARK    3  A    between atoms: C_5  and  C_15
REMARK    4  A    between atoms: C_8  and  O_9
REMARK    5  A    between atoms: O_9  and  C_10
REMARK    6  A    between atoms: C_10  and  C_11
REMARK    7  A    between atoms: C_15  and  N_16
REMARK    8  A    between atoms: N_16  and  C_17
REMARK                            x       y       z     vdW  Elec       q    Type
REMARK                         _______ _______ _______ _____ _____    ______ ____
ROOT
ATOM      1  C   UNL     1       0.643  -0.519  -0.978  0.00  0.00    +0.163 A 
ATOM      2  C   UNL     1       1.217   0.249  -1.979  0.00  0.00    +0.051 A 
ATOM      3  C   UNL     1       1.753  -0.362  -3.098  0.00  0.00    -0.059 A 
ATOM      4  C   UNL     1       1.718  -1.738  -3.221  0.00  0.00    +0.025 A 
ATOM      5  C   UNL     1       1.147  -2.511  -2.226  0.00  0.00    +0.086 A 
ATOM      6  C   UNL     1       0.613  -1.905  -1.099  0.00  0.00    +0.181 A 
ATOM      7 CL   UNL     1       1.104  -4.239  -2.385  0.00  0.00    -0.080 Cl
ENDROOT
BRANCH   1   9
ATOM      8  C   UNL     1       0.182   1.507   0.179  0.00  0.00    +0.277 C 
ATOM      9  O   UNL     1       0.116   0.081   0.122  0.00  0.00    -0.491 OA
ENDBRANCH   1   9
BRANCH   6  10
ATOM     10  O   UNL     1       0.056  -2.663  -0.116  0.00  0.00    -0.478 OA
BRANCH  10  11
ATOM     11  C   UNL     1      -1.339  -2.949  -0.230  0.00  0.00    +0.324 C 
BRANCH  11  12
ATOM     12  C   UNL     1      -1.776  -3.793   0.940  0.00  0.00    +0.248 C 
ATOM     13  O   UNL     1      -0.971  -4.117   1.787  0.00  0.00    -0.272 OA
ATOM     14  N   UNL     1      -3.060  -4.187   1.044  0.00  0.00    -0.327 N 
ATOM     15  H   UNL     1      -3.704  -3.928   0.366  0.00  0.00    +0.145 HD
ATOM     16  H   UNL     1      -3.341  -4.731   1.797  0.00  0.00    +0.145 HD
ENDBRANCH  11  12
ENDBRANCH  10  11
ENDBRANCH   6  10
BRANCH   3  17
ATOM     17  C   UNL     1       2.377   0.475  -4.185  0.00  0.00    -0.046 C 
BRANCH  17  18
ATOM     18  N   UNL     1       3.807   0.659  -3.902  0.00  0.00    +0.386 N 
ATOM     19  H   UNL     1       3.915   1.198  -3.055  0.00  0.00    -0.085 HD
ATOM     20  H   UNL     1       4.245  -0.242  -3.785  0.00  0.00    -0.085 HD
BRANCH  18  21
ATOM     21  C   UNL     1       4.439   1.371  -5.020  0.00  0.00    -0.040 C 
ATOM     22  C   UNL     1       3.956   2.836  -5.065  0.00  0.00    -0.007 C 
ATOM     23  C   UNL     1       5.214   3.585  -5.554  0.00  0.00    +0.034 C 
ATOM     24  C   UNL     1       6.382   2.726  -5.117  0.00  0.00    -0.044 A 
ATOM     25  C   UNL     1       5.937   1.451  -4.812  0.00  0.00    -0.058 A 
ATOM     26  C   UNL     1       6.836   0.487  -4.388  0.00  0.00    +0.004 A 
ATOM     27  C   UNL     1       8.178   0.793  -4.270  0.00  0.00    +0.020 A 
ATOM     28  C   UNL     1       8.626   2.066  -4.576  0.00  0.00    +0.041 A 
ATOM     29  C   UNL     1       7.726   3.033  -4.997  0.00  0.00    +0.023 A 
ATOM     30 CL   UNL     1      10.311   2.453  -4.428  0.00  0.00    -0.084 Cl
ENDBRANCH  18  21
ENDBRANCH  17  18
ENDBRANCH   3  17
TORSDOF 7
