REMARK  Name = ZINC43261719
REMARK  7 active torsions:
REMARK  status: ('A' for Active; 'I' for Inactive)
REMARK    1  A    between atoms: C_1  and  C_2
REMARK    2  A    between atoms: C_5  and  C_8
REMARK    3  A    between atoms: C_13  and  C_16
REMARK    4  A    between atoms: N_18  and  C_19
REMARK    5  A    between atoms: C_19  and  C_20
REMARK    6  A    between atoms: C_29  and  C_30
REMARK    7  A    between atoms: C_29  and  C_31
REMARK                            x       y       z     vdW  Elec       q    Type
REMARK                         _______ _______ _______ _____ _____    ______ ____
ROOT
ATOM      1  C   UNL     1      -0.693  -5.222   0.040  0.00  0.00    -0.030 C 
ATOM      2  C   UNL     1      -1.675  -6.311   0.489  0.00  0.00    +0.058 C 
ATOM      3  S   UNL     1      -0.786  -7.898   0.537  0.00  0.00    -0.163 S 
ATOM      4  C   UNL     1       0.706  -7.490   1.497  0.00  0.00    +0.062 C 
ATOM      5  C   UNL     1       1.332  -6.225   0.897  0.00  0.00    +0.027 C 
ATOM      6  N   UNL     1       0.395  -5.105   1.013  0.00  0.00    +0.392 N 
ATOM      7  H   UNL     1       0.892  -4.242   0.851  0.00  0.00    -0.084 HD
ATOM      8  H   UNL     1       0.006  -5.092   1.944  0.00  0.00    -0.084 HD
ENDROOT
BRANCH   1  13
ATOM      9  C   UNL     1      -3.474  -0.172  -0.351  0.00  0.00    +0.044 C 
ATOM     10  C   UNL     1      -2.749  -1.489  -0.249  0.00  0.00    -0.050 A 
ATOM     11  C   UNL     1      -2.501  -2.232  -1.388  0.00  0.00    +0.003 A 
ATOM     12  C   UNL     1      -1.836  -3.440  -1.295  0.00  0.00    +0.002 A 
ATOM     13  C   UNL     1      -1.417  -3.905  -0.062  0.00  0.00    -0.061 A 
ATOM     14  C   UNL     1      -1.664  -3.162   1.077  0.00  0.00    +0.002 A 
ATOM     15  C   UNL     1      -2.326  -1.952   0.983  0.00  0.00    +0.003 A 
ENDBRANCH   1  13
BRANCH   5  16
ATOM     16  C   UNL     1       1.649  -6.464  -0.556  0.00  0.00    +0.200 C 
ATOM     17  O   UNL     1       1.514  -5.568  -1.362  0.00  0.00    -0.278 OA
ATOM     18  N   UNL     1       2.083  -7.674  -0.961  0.00  0.00    -0.316 N 
ATOM     19  H   UNL     1       2.191  -8.391  -0.317  0.00  0.00    +0.149 HD
BRANCH  18  20
ATOM     20  C   UNL     1       2.392  -7.907  -2.374  0.00  0.00    +0.108 C 
BRANCH  20  21
ATOM     21  C   UNL     1       2.860  -9.353  -2.564  0.00  0.00    +0.010 C 
ATOM     22  C   UNL     1       4.143  -9.610  -1.785  0.00  0.00    +0.005 C 
ATOM     23  C   UNL     1       5.055 -10.627  -2.457  0.00  0.00    +0.004 C 
ATOM     24  C   UNL     1       4.771 -10.778  -3.951  0.00  0.00    -0.005 C 
ATOM     25  C   UNL     1       3.307 -11.197  -4.207  0.00  0.00    +0.008 C 
ATOM     26  C   UNL     1       3.009  -9.684  -4.048  0.00  0.00    -0.000 C 
ATOM     27  C   UNL     1       4.399  -9.460  -4.647  0.00  0.00    -0.029 C 
ATOM     28  C   UNL     1       4.422  -9.565  -6.185  0.00  0.00    +0.011 C 
ATOM     29  C   UNL     1       5.169  -8.231  -4.174  0.00  0.00    +0.011 C 
ENDBRANCH  20  21
ENDBRANCH  18  20
ENDBRANCH   5  16
TORSDOF 4
