REMARK  Name = ZINC47684076
REMARK  16 active torsions:
REMARK  status: ('A' for Active; 'I' for Inactive)
REMARK    1  A    between atoms: C_1  and  C_2
REMARK    2  A    between atoms: C_2  and  C_3
REMARK    3  A    between atoms: C_3  and  C_4
REMARK    4  A    between atoms: C_3  and  N_5
REMARK    5  A    between atoms: C_6  and  C_8
REMARK    6  A    between atoms: C_11  and  C_14
REMARK    7  A    between atoms: C_14  and  N_15
REMARK    8  A    between atoms: N_18  and  C_19
REMARK    9  A    between atoms: C_19  and  C_20
REMARK   10  A    between atoms: C_20  and  N_21
REMARK   11  A    between atoms: N_21  and  C_22
REMARK   12  A    between atoms: N_21  and  C_25
REMARK   13  A    between atoms: C_22  and  C_23
REMARK   14  A    between atoms: C_22  and  C_24
REMARK   15  A    between atoms: C_25  and  C_26
REMARK   16  A    between atoms: C_25  and  C_27
REMARK                            x       y       z     vdW  Elec       q    Type
REMARK                         _______ _______ _______ _____ _____    ______ ____
ROOT
ATOM      1  N   UNL     1      -1.798   2.516  -9.395  0.00  0.00    -0.295 N 
ATOM      2  C   UNL     1      -2.494   3.249 -10.287  0.00  0.00    +0.300 C 
ATOM      3  O   UNL     1      -3.004   2.711 -11.250  0.00  0.00    -0.253 OA
ATOM      4  N   UNL     1      -2.623   4.579 -10.111  0.00  0.00    -0.301 N 
ATOM      5  H   UNL     1      -1.391   2.946  -8.626  0.00  0.00    +0.151 HD
ATOM      6  H   UNL     1      -2.216   5.008  -9.342  0.00  0.00    +0.150 HD
ENDROOT
BRANCH   1   7
ATOM      7  C   UNL     1      -1.657   1.070  -9.586  0.00  0.00    +0.141 C 
BRANCH   7  11
ATOM      8  C   UNL     1       0.659  -0.572  -6.388  0.00  0.00    +0.037 A 
ATOM      9  C   UNL     1      -0.730  -0.485  -6.275  0.00  0.00    +0.013 A 
ATOM     10  C   UNL     1      -1.471   0.046  -7.311  0.00  0.00    +0.006 A 
ATOM     11  C   UNL     1      -0.841   0.492  -8.459  0.00  0.00    -0.030 A 
ATOM     12  C   UNL     1       0.535   0.409  -8.577  0.00  0.00    +0.006 A 
ATOM     13  C   UNL     1       1.289  -0.114  -7.546  0.00  0.00    +0.013 A 
BRANCH   8  15
ATOM     14  N   UNL     1       0.848  -1.580  -4.165  0.00  0.00    -0.309 N 
ATOM     15  C   UNL     1       1.459  -1.139  -5.282  0.00  0.00    +0.244 C 
ATOM     16  O   UNL     1       2.669  -1.208  -5.381  0.00  0.00    -0.270 OA
ATOM     17  H   UNL     1      -0.117  -1.524  -4.086  0.00  0.00    +0.149 HD
BRANCH  14  18
ATOM     18  C   UNL     1       1.641  -2.142  -3.069  0.00  0.00    +0.070 C 
ATOM     19  C   UNL     1       1.900  -3.626  -3.336  0.00  0.00    +0.028 C 
BRANCH  18  21
ATOM     20  C   UNL     1       0.726  -0.500  -1.423  0.00  0.00    +0.005 C 
ATOM     21  C   UNL     1       0.876  -1.987  -1.753  0.00  0.00    +0.018 C 
ENDBRANCH  18  21
ENDBRANCH  14  18
ENDBRANCH   8  15
ENDBRANCH   7  11
ENDBRANCH   1   7
BRANCH   4  22
ATOM     22  C   UNL     1      -3.380   5.376 -11.080  0.00  0.00    +0.087 C 
BRANCH  22  23
ATOM     23  C   UNL     1      -3.373   6.844 -10.649  0.00  0.00    -0.059 C 
BRANCH  23  24
ATOM     24  N   UNL     1      -4.008   7.663 -11.691  0.00  0.00    +0.384 N 
ATOM     25  H   UNL     1      -3.552   7.494 -12.575  0.00  0.00    -0.081 HD
BRANCH  24  26
ATOM     26  C   UNL     1      -5.429   7.306 -11.797  0.00  0.00    -0.074 C 
ATOM     27  C   UNL     1      -6.228   8.079 -10.746  0.00  0.00    -0.014 C 
ATOM     28  C   UNL     1      -5.941   7.663 -13.193  0.00  0.00    -0.014 C 
ENDBRANCH  24  26
BRANCH  24  29
ATOM     29  C   UNL     1      -3.884   9.084 -11.339  0.00  0.00    -0.074 C 
ATOM     30  C   UNL     1      -2.413   9.421 -11.087  0.00  0.00    -0.014 C 
ATOM     31  C   UNL     1      -4.414   9.941 -12.490  0.00  0.00    -0.014 C 
ENDBRANCH  24  29
ENDBRANCH  23  24
ENDBRANCH  22  23
ENDBRANCH   4  22
TORSDOF 10
