REMARK  Name = ZINC22010679
REMARK  7 active torsions:
REMARK  status: ('A' for Active; 'I' for Inactive)
REMARK    1  A    between atoms: C_1  and  C_2
REMARK    2  A    between atoms: C_2  and  C_4
REMARK    3  A    between atoms: C_2  and  N_18
REMARK    4  A    between atoms: N_10  and  C_11
REMARK    5  A    between atoms: N_18  and  C_19
REMARK    6  A    between atoms: N_18  and  C_20
REMARK    7  A    between atoms: C_20  and  C_21
REMARK                            x       y       z     vdW  Elec       q    Type
REMARK                         _______ _______ _______ _____ _____    ______ ____
ROOT
ATOM      1  C   UNL     1      -1.727   3.669   0.110  0.00  0.00    +0.123 A 
ATOM      2  N   UNL     1      -2.901   3.157  -0.217  0.00  0.00    -0.201 NA
ATOM      3  C   UNL     1      -3.521   3.563  -1.322  0.00  0.00    +0.217 A 
ATOM      4  N   UNL     1      -2.959   4.484  -2.097  0.00  0.00    -0.181 NA
ATOM      5  C   UNL     1      -1.779   4.996  -1.766  0.00  0.00    +0.224 A 
ATOM      6  N   UNL     1      -1.167   4.589  -0.655  0.00  0.00    -0.201 NA
ATOM      7  N   UNL     1      -1.191   5.954  -2.568  0.00  0.00    -0.284 N 
ATOM      8  N   UNL     1      -4.747   3.027  -1.662  0.00  0.00    -0.327 N 
ATOM      9  H   UNL     1      -0.259   6.443  -2.248  0.00  0.00    +0.155 HD
ATOM     10  H   UNL     1      -5.259   3.363  -2.576  0.00  0.00    +0.145 HD
ATOM     11  H   UNL     1      -5.211   2.265  -1.020  0.00  0.00    +0.145 HD
ENDROOT
BRANCH   7  12
ATOM     12  C   UNL     1      -1.779   6.301  -3.788  0.00  0.00    +0.034 A 
ATOM     13  C   UNL     1      -2.457   5.344  -4.532  0.00  0.00    +0.023 A 
ATOM     14  C   UNL     1      -3.042   5.691  -5.734  0.00  0.00    +0.002 A 
ATOM     15  C   UNL     1      -2.943   6.988  -6.203  0.00  0.00    +0.000 A 
ATOM     16  C   UNL     1      -2.264   7.943  -5.468  0.00  0.00    +0.002 A 
ATOM     17  C   UNL     1      -1.682   7.603  -4.263  0.00  0.00    +0.023 A 
ENDBRANCH   7  12
BRANCH   1  19
ATOM     18  C   UNL     1      -1.713   3.820   2.585  0.00  0.00    -0.005 C 
ATOM     19  C   UNL     1      -1.027   3.207   1.362  0.00  0.00    -0.002 C 
BRANCH  19  20
ATOM     20  N   UNL     1      -1.093   1.742   1.447  0.00  0.00    +0.387 N 
ATOM     21  C   UNL     1      -0.527   1.119   0.243  0.00  0.00    -0.095 C 
ATOM     22  H   UNL     1      -2.152   1.454   1.510  0.00  0.00    -0.081 HD
BRANCH  20  23
ATOM     23  C   UNL     1      -0.420   1.254   2.659  0.00  0.00    -0.038 C 
BRANCH  23  24
ATOM     24  C   UNL     1      -0.715  -0.212   2.841  0.00  0.00    -0.010 A 
ATOM     25  C   UNL     1      -1.816  -0.611   3.579  0.00  0.00    +0.126 A 
ATOM     26  C   UNL     1      -2.089  -1.958   3.741  0.00  0.00    +0.038 A 
ATOM     27  C   UNL     1      -1.256  -2.905   3.176  0.00  0.00    +0.004 A 
ATOM     28  C   UNL     1      -0.153  -2.508   2.444  0.00  0.00    +0.020 A 
ATOM     29  C   UNL     1       0.118  -1.161   2.276  0.00  0.00    +0.045 A 
ATOM     30 CL   UNL     1       1.503  -0.663   1.356  0.00  0.00    -0.083 Cl
ATOM     31  F   UNL     1      -2.627   0.315   4.137  0.00  0.00    -0.205 F 
ENDBRANCH  23  24
ENDBRANCH  20  23
ENDBRANCH  19  20
ENDBRANCH   1  19
TORSDOF 5
