REMARK  Name = ZINC13517354
REMARK  7 active torsions:
REMARK  status: ('A' for Active; 'I' for Inactive)
REMARK    1  A    between atoms: C_1  and  C_2
REMARK    2  A    between atoms: C_2  and  C_3
REMARK    3  A    between atoms: C_3  and  C_4
REMARK    4  A    between atoms: C_6  and  C_26
REMARK    5  A    between atoms: C_8  and  C_20
REMARK    6  A    between atoms: C_11  and  C_12
REMARK    7  A    between atoms: C_11  and  O_19
REMARK                            x       y       z     vdW  Elec       q    Type
REMARK                         _______ _______ _______ _____ _____    ______ ____
ROOT
ATOM      1  C   UNL     1      -0.221   1.543   0.095  0.00  0.00    +0.015 C 
ATOM      2  C   UNL     1      -0.398   0.064  -0.256  0.00  0.00    -0.034 C 
ATOM      3  C   UNL     1       1.871  -0.068  -1.097  0.00  0.00    -0.037 C 
ATOM      4  C   UNL     1       2.115   1.407  -0.772  0.00  0.00    +0.028 C 
ATOM      5  C   UNL     1       1.250   1.811   0.425  0.00  0.00    +0.091 C 
ATOM      6  N   UNL     1       0.446  -0.277  -1.417  0.00  0.00    +0.388 N 
ATOM      7  H   UNL     1       0.186   0.321  -2.211  0.00  0.00    -0.084 HD
ATOM      8  H   UNL     1       0.296  -1.261  -1.667  0.00  0.00    -0.084 HD
ENDROOT
BRANCH   5   9
ATOM      9  C   UNL     1       1.442   3.278   0.713  0.00  0.00    -0.016 A 
ATOM     10  C   UNL     1       0.635   4.215   0.094  0.00  0.00    +0.009 A 
ATOM     11  C   UNL     1       0.806   5.560   0.361  0.00  0.00    +0.039 A 
ATOM     12  C   UNL     1       1.794   5.970   1.241  0.00  0.00    +0.123 A 
ATOM     13  C   UNL     1       2.604   5.031   1.856  0.00  0.00    +0.039 A 
ATOM     14  C   UNL     1       2.428   3.687   1.592  0.00  0.00    +0.009 A 
ATOM     15  F   UNL     1       1.966   7.285   1.498  0.00  0.00    -0.205 F 
ENDBRANCH   5   9
BRANCH   3  16
ATOM     16  C   UNL     1       2.706  -0.465  -2.287  0.00  0.00    -0.061 A 
ATOM     17  C   UNL     1       2.280  -0.154  -3.565  0.00  0.00    +0.002 A 
ATOM     18  C   UNL     1       3.049  -0.514  -4.656  0.00  0.00    +0.000 A 
ATOM     19  C   UNL     1       4.238  -1.193  -4.470  0.00  0.00    +0.000 A 
ATOM     20  C   UNL     1       4.661  -1.509  -3.192  0.00  0.00    +0.000 A 
ATOM     21  C   UNL     1       3.895  -1.144  -2.101  0.00  0.00    +0.002 A 
ENDBRANCH   3  16
BRANCH   2  22
ATOM     22  C   UNL     1      -0.000  -0.784   0.926  0.00  0.00    -0.061 A 
ATOM     23  C   UNL     1       0.970  -1.757   0.782  0.00  0.00    +0.002 A 
ATOM     24  C   UNL     1       1.338  -2.531   1.867  0.00  0.00    +0.000 A 
ATOM     25  C   UNL     1       0.729  -2.338   3.093  0.00  0.00    +0.000 A 
ATOM     26  C   UNL     1      -0.246  -1.368   3.235  0.00  0.00    +0.000 A 
ATOM     27  C   UNL     1      -0.611  -0.591   2.151  0.00  0.00    +0.002 A 
ENDBRANCH   2  22
BRANCH   5  28
ATOM     28  O   UNL     1       1.630   1.045   1.570  0.00  0.00    -0.384 OA
ATOM     29  H   UNL     1       2.552   1.167   1.836  0.00  0.00    +0.211 HD
ENDBRANCH   5  28
BRANCH   1  30
ATOM     30  C   UNL     1      -1.088   1.887   1.308  0.00  0.00    +0.005 C 
BRANCH  30  32
ATOM     31  C   UNL     1      -3.386   1.748   2.278  0.00  0.00    +0.004 C 
ATOM     32  C   UNL     1      -2.519   1.404   1.065  0.00  0.00    -0.003 C 
ENDBRANCH  30  32
ENDBRANCH   1  30
TORSDOF 6
