REMARK  Name = ZINC35746484
REMARK  15 active torsions:
REMARK  status: ('A' for Active; 'I' for Inactive)
REMARK    1  A    between atoms: C_1  and  C_2
REMARK    2  A    between atoms: C_2  and  C_3
REMARK    3  A    between atoms: C_3  and  C_4
REMARK    4  A    between atoms: C_4  and  C_6
REMARK    5  A    between atoms: C_4  and  O_32
REMARK    6  A    between atoms: C_6  and  N_7
REMARK    7  A    between atoms: N_7  and  C_8
REMARK    8  A    between atoms: N_7  and  C_12
REMARK    9  A    between atoms: C_8  and  C_9
REMARK   10  A    between atoms: C_9  and  O_10
REMARK   11  A    between atoms: O_10  and  C_11
REMARK   12  A    between atoms: C_12  and  C_13
REMARK   13  A    between atoms: C_19  and  C_24
REMARK   14  A    between atoms: C_26  and  C_31
REMARK   15  A    between atoms: C_29  and  C_30
REMARK                            x       y       z     vdW  Elec       q    Type
REMARK                         _______ _______ _______ _____ _____    ______ ____
ROOT
ATOM      1  C   UNL     1       1.497  -6.243  -3.808  0.00  0.00    +0.094 A 
ATOM      2  N   UNL     1       2.136  -7.090  -4.655  0.00  0.00    -0.312 N 
ATOM      3  H   UNL     1       2.793  -6.737  -5.275  0.00  0.00    +0.170 HD
ATOM      4  C   UNL     1       1.876  -8.411  -4.652  0.00  0.00    +0.260 A 
ATOM      5  O   UNL     1       2.459  -9.158  -5.418  0.00  0.00    -0.267 OA
ATOM      6  C   UNL     1       0.905  -8.924  -3.734  0.00  0.00    +0.080 A 
ATOM      7  C   UNL     1       0.455 -10.297  -3.540  0.00  0.00    +0.004 A 
ATOM      8  C   UNL     1      -0.487 -10.547  -2.599  0.00  0.00    +0.056 A 
ATOM      9  S   UNL     1      -0.824  -8.936  -1.915  0.00  0.00    -0.076 S 
ATOM     10  C   UNL     1       0.296  -7.974  -2.898  0.00  0.00    +0.116 A 
ATOM     11  N   UNL     1       0.610  -6.683  -2.956  0.00  0.00    -0.229 NA
ENDROOT
BRANCH   7  12
ATOM     12  C   UNL     1       1.016 -11.399  -4.358  0.00  0.00    -0.013 A 
ATOM     13  C   UNL     1       0.200 -12.097  -5.247  0.00  0.00    +0.012 A 
ATOM     14  C   UNL     1       0.728 -13.121  -6.006  0.00  0.00    -0.050 A 
ATOM     15  C   UNL     1       2.065 -13.456  -5.885  0.00  0.00    +0.003 A 
ATOM     16  C   UNL     1       2.880 -12.768  -5.004  0.00  0.00    +0.004 A 
ATOM     17  C   UNL     1       2.364 -11.738  -4.244  0.00  0.00    -0.043 A 
ATOM     18  C   UNL     1       3.254 -10.985  -3.289  0.00  0.00    +0.044 C 
ATOM     19  C   UNL     1      -0.152 -13.876  -6.968  0.00  0.00    +0.044 C 
ENDBRANCH   7  12
BRANCH   1  20
ATOM     20  C   UNL     1       1.821  -4.772  -3.848  0.00  0.00    -0.003 C 
BRANCH  20  21
ATOM     21  N   UNL     1       1.123  -4.088  -2.751  0.00  0.00    +0.388 N 
ATOM     22  H   UNL     1       0.140  -4.309  -2.788  0.00  0.00    -0.081 HD
BRANCH  21  23
ATOM     23  C   UNL     1       1.678  -4.533  -1.465  0.00  0.00    -0.046 C 
BRANCH  23  24
ATOM     24  C   UNL     1       0.870  -3.916  -0.321  0.00  0.00    +0.098 C 
BRANCH  24  25
ATOM     25  O   UNL     1      -0.465  -4.423  -0.353  0.00  0.00    -0.394 OA
ATOM     26  H   UNL     1      -0.523  -5.384  -0.258  0.00  0.00    +0.210 HD
ENDBRANCH  24  25
BRANCH  24  27
ATOM     27  C   UNL     1       1.522  -4.278   1.015  0.00  0.00    +0.029 C 
BRANCH  27  29
ATOM     28  C   UNL     1       1.440  -3.922   3.487  0.00  0.00    +0.004 C 
ATOM     29  C   UNL     1       0.789  -3.560   2.151  0.00  0.00    -0.001 C 
ENDBRANCH  27  29
ENDBRANCH  24  27
ENDBRANCH  23  24
ENDBRANCH  21  23
BRANCH  21  30
ATOM     30  C   UNL     1       1.304  -2.636  -2.886  0.00  0.00    -0.050 C 
BRANCH  30  31
ATOM     31  C   UNL     1       0.602  -2.151  -4.156  0.00  0.00    +0.141 C 
BRANCH  31  32
ATOM     32  O   UNL     1      -0.807  -2.348  -4.026  0.00  0.00    -0.385 OA
ATOM     33  C   UNL     1      -1.570  -1.824  -5.114  0.00  0.00    +0.193 C 
ENDBRANCH  31  32
ENDBRANCH  30  31
ENDBRANCH  21  30
ENDBRANCH  20  21
ENDBRANCH   1  20
TORSDOF 11
