REMARK  Name = ZINC36847243
REMARK  9 active torsions:
REMARK  status: ('A' for Active; 'I' for Inactive)
REMARK    1  A    between atoms: N_10  and  S_13
REMARK    2  A    between atoms: S_13  and  C_16
REMARK    3  A    between atoms: C_16  and  C_17
REMARK    4  A    between atoms: C_17  and  N_18
REMARK    5  A    between atoms: N_18  and  C_19
REMARK    6  A    between atoms: C_19  and  N_21
REMARK    7  A    between atoms: N_21  and  C_22
REMARK    8  A    between atoms: C_25  and  S_28
REMARK    9  A    between atoms: S_28  and  C_29
REMARK                            x       y       z     vdW  Elec       q    Type
REMARK                         _______ _______ _______ _____ _____    ______ ____
ROOT
ATOM      1  C   UNL     1       1.234  -6.685   2.915  0.00  0.00    +0.204 C 
ENDROOT
BRANCH   1   2
ATOM      2  S   UNL     1       0.798  -6.236   1.213  0.00  0.00    +0.033 S 
ATOM      3  O   UNL     1      -0.549  -6.598   0.941  0.00  0.00    -0.158 OA
ATOM      4  O   UNL     1       1.843  -6.610   0.325  0.00  0.00    -0.158 OA
BRANCH   2  14
ATOM      5  C   UNL     1       1.700   1.324  -0.195  0.00  0.00    +0.005 A 
ATOM      6  C   UNL     1       0.487   1.979  -0.026  0.00  0.00    +0.018 A 
ATOM      7  C   UNL     1      -0.663   1.236   0.149  0.00  0.00    +0.084 A 
ATOM      8  N   UNL     1      -0.623  -0.083   0.156  0.00  0.00    -0.350 N 
ATOM      9  C   UNL     1       0.513  -0.743  -0.002  0.00  0.00    +0.099 A 
ATOM     10  C   UNL     1       1.711  -0.059  -0.183  0.00  0.00    +0.042 A 
ATOM     11  N   UNL     1       0.510  -2.133   0.012  0.00  0.00    -0.314 N 
ATOM     12  C   UNL     1       1.734  -2.887  -0.295  0.00  0.00    +0.123 C 
ATOM     13  C   UNL     1       2.029  -3.838   0.872  0.00  0.00    +0.128 C 
ATOM     14  N   UNL     1       0.802  -4.580   1.195  0.00  0.00    -0.178 NA
ATOM     15  C   UNL     1      -0.421  -3.826   1.502  0.00  0.00    +0.128 C 
ATOM     16  C   UNL     1      -0.715  -2.875   0.341  0.00  0.00    +0.123 C 
ATOM     17  H   UNL     1      -1.446  -0.581   0.280  0.00  0.00    +0.166 HD
ENDBRANCH   2  14
ENDBRANCH   1   2
BRANCH   1  18
ATOM     18  C   UNL     1       1.261  -8.209   3.050  0.00  0.00    +0.127 C 
BRANCH  18  19
ATOM     19  N   UNL     1       1.613  -8.572   4.425  0.00  0.00    -0.325 N 
ATOM     20  H   UNL     1       1.786  -7.878   5.080  0.00  0.00    +0.148 HD
BRANCH  19  21
ATOM     21  C   UNL     1       1.698  -9.870   4.779  0.00  0.00    +0.135 C 
ATOM     22  S   UNL     1       1.393 -11.094   3.621  0.00  0.00    -0.019 S 
BRANCH  21  23
ATOM     23  N   UNL     1       2.022 -10.203   6.043  0.00  0.00    -0.297 N 
ATOM     24  H   UNL     1       2.136  -9.511   6.713  0.00  0.00    +0.154 HD
BRANCH  23  25
ATOM     25  C   UNL     1       2.193 -11.550   6.391  0.00  0.00    +0.033 A 
ATOM     26  C   UNL     1       3.279 -11.934   7.166  0.00  0.00    +0.024 A 
ATOM     27  C   UNL     1       3.449 -13.261   7.508  0.00  0.00    +0.017 A 
ATOM     28  C   UNL     1       2.533 -14.212   7.077  0.00  0.00    +0.013 A 
ATOM     29  C   UNL     1       1.446 -13.827   6.301  0.00  0.00    +0.017 A 
ATOM     30  C   UNL     1       1.274 -12.500   5.964  0.00  0.00    +0.024 A 
BRANCH  28  31
ATOM     31  S   UNL     1       2.749 -15.905   7.512  0.00  0.00    -0.056 S 
BRANCH  31  32
ATOM     32  C   UNL     1       1.338 -16.742   6.738  0.00  0.00    +0.404 C 
ATOM     33  F   UNL     1       0.146 -16.214   7.247  0.00  0.00    -0.197 F 
ATOM     34  F   UNL     1       1.381 -16.544   5.353  0.00  0.00    -0.197 F 
ENDBRANCH  31  32
ENDBRANCH  28  31
ENDBRANCH  23  25
ENDBRANCH  21  23
ENDBRANCH  19  21
ENDBRANCH  18  19
ENDBRANCH   1  18
TORSDOF 9
