REMARK  Name = ZINC63294214
REMARK  8 active torsions:
REMARK  status: ('A' for Active; 'I' for Inactive)
REMARK    1  A    between atoms: C_1  and  O_2
REMARK    2  A    between atoms: O_2  and  C_3
REMARK    3  A    between atoms: C_3  and  C_4
REMARK    4  A    between atoms: C_4  and  C_5
REMARK    5  A    between atoms: C_5  and  N_6
REMARK    6  A    between atoms: C_7  and  C_9
REMARK    7  A    between atoms: C_12  and  C_16
REMARK    8  A    between atoms: C_16  and  C_17
REMARK                            x       y       z     vdW  Elec       q    Type
REMARK                         _______ _______ _______ _____ _____    ______ ____
ROOT
ATOM      1  C   UNL     1       1.790  -6.419  -3.044  0.00  0.00    +0.297 C 
ATOM      2  N   UNL     1       2.650  -6.887  -1.934  0.00  0.00    -0.265 NA
ATOM      3  C   UNL     1       1.948  -8.037  -1.324  0.00  0.00    +0.154 C 
ATOM      4  N   UNL     1       0.694  -8.201  -2.097  0.00  0.00    -0.181 NA
ATOM      5  O   UNL     1       0.460  -6.868  -2.698  0.00  0.00    -0.270 OA
ATOM      6  H   UNL     1       3.561  -7.158  -2.272  0.00  0.00    +0.126 HD
ATOM      7  H   UNL     1      -0.070  -8.466  -1.494  0.00  0.00    +0.156 HD
ENDROOT
BRANCH   1   9
ATOM      8  N   UNL     1       1.272  -4.165  -2.169  0.00  0.00    -0.312 N 
ATOM      9  C   UNL     1       1.828  -4.916  -3.140  0.00  0.00    +0.259 C 
ATOM     10  O   UNL     1       2.359  -4.382  -4.090  0.00  0.00    -0.271 OA
ATOM     11  H   UNL     1       0.847  -4.592  -1.409  0.00  0.00    +0.149 HD
BRANCH   8  12
ATOM     12  C   UNL     1       1.309  -2.703  -2.261  0.00  0.00    +0.106 C 
BRANCH  12  13
ATOM     13  C   UNL     1       0.613  -2.097  -1.041  0.00  0.00    +0.047 C 
BRANCH  13  14
ATOM     14  C   UNL     1       0.652  -0.570  -1.138  0.00  0.00    +0.161 C 
BRANCH  14  16
ATOM     15  C   UNL     1      -0.017   1.425   0.010  0.00  0.00    +0.193 C 
ATOM     16  O   UNL     1       0.002  -0.004   0.002  0.00  0.00    -0.383 OA
ENDBRANCH  14  16
ENDBRANCH  13  14
ENDBRANCH  12  13
ENDBRANCH   8  12
ENDBRANCH   1   9
BRANCH   3  17
ATOM     17  C   UNL     1       2.807  -9.299  -1.433  0.00  0.00    +0.070 C 
BRANCH  17  18
ATOM     18  C   UNL     1       2.077 -10.459  -0.807  0.00  0.00    -0.039 C 
ATOM     19  C   UNL     1       1.306 -11.372  -1.440  0.00  0.00    -0.001 A 
ATOM     20  C   UNL     1       0.929 -11.550  -2.848  0.00  0.00    +0.010 A 
ATOM     21  C   UNL     1       0.123 -12.582  -3.185  0.00  0.00    +0.001 A 
ATOM     22  C   UNL     1      -0.361 -13.483  -2.227  0.00  0.00    +0.002 A 
ATOM     23  C   UNL     1      -0.059 -13.385  -0.915  0.00  0.00    +0.026 A 
ATOM     24  C   UNL     1       0.782 -12.337  -0.448  0.00  0.00    +0.043 A 
ATOM     25  N   UNL     1       1.213 -12.033   0.752  0.00  0.00    -0.380 N 
ATOM     26  C   UNL     1       2.064 -10.842   0.656  0.00  0.00    +0.144 C 
ATOM     27  H   UNL     1       1.006 -12.517   1.567  0.00  0.00    +0.160 HD
ENDBRANCH  17  18
ENDBRANCH   3  17
TORSDOF 7
