REMARK  Name = ZINC12506561
REMARK  7 active torsions:
REMARK  status: ('A' for Active; 'I' for Inactive)
REMARK    1  A    between atoms: C_1  and  C_2
REMARK    2  A    between atoms: C_2  and  C_3
REMARK    3  A    between atoms: C_3  and  O_4
REMARK    4  A    between atoms: O_4  and  C_5
REMARK    5  A    between atoms: C_7  and  C_13
REMARK    6  A    between atoms: C_10  and  O_11
REMARK    7  A    between atoms: O_11  and  C_12
REMARK                            x       y       z     vdW  Elec       q    Type
REMARK                         _______ _______ _______ _____ _____    ______ ____
ROOT
ATOM      1  C   UNL     1       3.138  -1.543  -5.497  0.00  0.00    +0.209 C 
ATOM      2  N   UNL     1       2.879  -2.166  -6.808  0.00  0.00    -0.294 N 
ATOM      3  C   UNL     1       3.699  -3.214  -7.202  0.00  0.00    +0.159 C 
ATOM      4  N   UNL     1       5.074  -2.985  -7.141  0.00  0.00    -0.259 N 
ATOM      5  C   UNL     1       5.490  -2.168  -6.091  0.00  0.00    +0.205 A 
ATOM      6  N   UNL     1       4.592  -1.477  -5.312  0.00  0.00    -0.288 N 
ATOM      7  C   UNL     1       5.314  -0.763  -4.380  0.00  0.00    +0.076 A 
ATOM      8  C   UNL     1       4.973   0.106  -3.352  0.00  0.00    +0.077 A 
ATOM      9  C   UNL     1       5.965   0.667  -2.572  0.00  0.00    +0.164 A 
ATOM     10  C   UNL     1       7.304   0.371  -2.811  0.00  0.00    +0.164 A 
ATOM     11  C   UNL     1       7.659  -0.485  -3.832  0.00  0.00    +0.079 A 
ATOM     12  C   UNL     1       6.665  -1.062  -4.628  0.00  0.00    +0.095 A 
ATOM     13  N   UNL     1       6.702  -1.925  -5.686  0.00  0.00    -0.214 NA
ATOM     14  O   UNL     1       8.270   0.934  -2.025  0.00  0.00    -0.488 OA
ATOM     15  C   UNL     1       8.449   2.344  -2.168  0.00  0.00    +0.232 C 
ATOM     16  C   UNL     1       7.458   3.104  -1.300  0.00  0.00    +0.082 C 
ATOM     17  C   UNL     1       6.018   2.884  -1.736  0.00  0.00    +0.232 C 
ATOM     18  O   UNL     1       5.636   1.520  -1.556  0.00  0.00    -0.488 OA
ATOM     19  N   UNL     1       3.211  -4.352  -7.606  0.00  0.00    -0.375 N 
ATOM     20  H   UNL     1       2.158  -1.853  -7.377  0.00  0.00    +0.151 HD
ATOM     21  H   UNL     1       2.250  -4.484  -7.638  0.00  0.00    +0.158 HD
ATOM     22  H   UNL     1       5.695  -3.366  -7.782  0.00  0.00    +0.158 HD
ATOM     23  H   UNL     1       3.807  -5.068  -7.875  0.00  0.00    +0.158 HD
ENDROOT
BRANCH   1  26
ATOM     24  C   UNL     1       1.342  -2.530  -2.323  0.00  0.00    +0.162 A 
ATOM     25  C   UNL     1       1.908  -1.763  -3.329  0.00  0.00    +0.056 A 
ATOM     26  C   UNL     1       2.522  -2.378  -4.404  0.00  0.00    -0.003 A 
ATOM     27  C   UNL     1       2.573  -3.758  -4.479  0.00  0.00    +0.011 A 
ATOM     28  C   UNL     1       2.009  -4.529  -3.479  0.00  0.00    +0.050 A 
ATOM     29  C   UNL     1       1.397  -3.918  -2.396  0.00  0.00    +0.162 A 
BRANCH  29  30
ATOM     30  O   UNL     1       0.847  -4.675  -1.408  0.00  0.00    -0.491 OA
ATOM     31  C   UNL     1       0.942  -6.094  -1.549  0.00  0.00    +0.277 C 
ENDBRANCH  29  30
BRANCH  24  32
ATOM     32  O   UNL     1       0.738  -1.926  -1.265  0.00  0.00    -0.488 OA
BRANCH  32  33
ATOM     33  C   UNL     1       0.718  -0.497  -1.257  0.00  0.00    +0.229 C 
BRANCH  33  35
ATOM     34  C   UNL     1      -0.019   1.526   0.010  0.00  0.00    +0.007 C 
ATOM     35  C   UNL     1       0.002  -0.004   0.002  0.00  0.00    +0.038 C 
ENDBRANCH  33  35
ENDBRANCH  32  33
ENDBRANCH  24  32
ENDBRANCH   1  26
TORSDOF 5
