REMARK  Name = ZINC22927115
REMARK  8 active torsions:
REMARK  status: ('A' for Active; 'I' for Inactive)
REMARK    1  A    between atoms: C_1  and  C_2
REMARK    2  A    between atoms: C_5  and  N_8
REMARK    3  A    between atoms: C_9  and  C_11
REMARK    4  A    between atoms: C_11  and  N_12
REMARK    5  A    between atoms: N_15  and  C_18
REMARK    6  A    between atoms: C_18  and  C_19
REMARK    7  A    between atoms: C_19  and  C_20
REMARK    8  A    between atoms: C_30  and  C_34
REMARK                            x       y       z     vdW  Elec       q    Type
REMARK                         _______ _______ _______ _____ _____    ______ ____
ROOT
ATOM      1  N   UNL     1       0.433  -6.912   2.450  0.00  0.00    -0.298 NA
ATOM      2  C   UNL     1       1.689  -6.461   3.065  0.00  0.00    +0.066 C 
ATOM      3  C   UNL     1       1.738  -6.931   4.521  0.00  0.00    -0.063 C 
ATOM      4  N   UNL     1       1.650  -8.397   4.565  0.00  0.00    +0.382 N 
ATOM      5  C   UNL     1       0.380  -8.831   3.969  0.00  0.00    -0.063 C 
ATOM      6  C   UNL     1       0.319  -8.376   2.509  0.00  0.00    +0.066 C 
ATOM      7  H   UNL     1       2.418  -8.796   4.046  0.00  0.00    -0.082 HD
ENDROOT
BRANCH   1   8
ATOM      8  C   UNL     1       0.323  -6.431   1.066  0.00  0.00    +0.180 C 
BRANCH   8  10
ATOM      9  N   UNL     1       0.082  -4.264  -0.101  0.00  0.00    -0.284 N 
ATOM     10  C   UNL     1       0.197  -4.929   1.065  0.00  0.00    +0.231 C 
ATOM     11  O   UNL     1       0.200  -4.320   2.114  0.00  0.00    -0.274 OA
ATOM     12  H   UNL     1       0.017  -4.754  -0.935  0.00  0.00    +0.155 HD
BRANCH   9  17
ATOM     13  C   UNL     1      -0.023   1.408  -0.130  0.00  0.00    +0.044 C 
ATOM     14  C   UNL     1       0.005  -0.098  -0.122  0.00  0.00    -0.050 A 
ATOM     15  C   UNL     1      -0.585  -0.794   0.917  0.00  0.00    +0.005 A 
ATOM     16  C   UNL     1      -0.561  -2.175   0.927  0.00  0.00    +0.023 A 
ATOM     17  C   UNL     1       0.056  -2.865  -0.109  0.00  0.00    +0.033 A 
ATOM     18  C   UNL     1       0.646  -2.163  -1.151  0.00  0.00    +0.023 A 
ATOM     19  C   UNL     1       0.615  -0.782  -1.158  0.00  0.00    +0.005 A 
ENDBRANCH   9  17
ENDBRANCH   8  10
ENDBRANCH   1   8
BRANCH   4  20
ATOM     20  C   UNL     1       1.715  -8.849   5.961  0.00  0.00    -0.071 C 
BRANCH  20  21
ATOM     21  C   UNL     1       1.749 -10.378   6.001  0.00  0.00    +0.058 C 
BRANCH  21  22
ATOM     22  C   UNL     1       1.816 -10.842   7.433  0.00  0.00    +0.131 A 
ATOM     23  N   UNL     1       2.996 -11.012   8.003  0.00  0.00    -0.217 NA
ATOM     24  C   UNL     1       3.122 -11.416   9.257  0.00  0.00    +0.128 A 
ATOM     25  C   UNL     1       1.951 -11.677  10.021  0.00  0.00    +0.051 A 
ATOM     26  C   UNL     1       1.844 -12.127  11.410  0.00  0.00    -0.025 A 
ATOM     27  C   UNL     1       0.601 -12.302  11.902  0.00  0.00    -0.004 A 
ATOM     28  S   UNL     1      -0.489 -11.887  10.566  0.00  0.00    -0.073 S 
ATOM     29  C   UNL     1       0.731 -11.475   9.345  0.00  0.00    +0.114 A 
ATOM     30  N   UNL     1       0.695 -11.065   8.092  0.00  0.00    -0.225 NA
ATOM     31  C   UNL     1       0.225 -12.751  13.281  0.00  0.00    +0.046 C 
ATOM     32  C   UNL     1       1.462 -12.628  14.184  0.00  0.00    -0.009 C 
ATOM     33  C   UNL     1       2.658 -13.261  13.466  0.00  0.00    +0.008 C 
ATOM     34  C   UNL     1       3.071 -12.390  12.279  0.00  0.00    +0.037 C 
ATOM     35  C   UNL     1       1.207 -13.357  15.505  0.00  0.00    +0.008 C 
ATOM     36  N   UNL     1       4.376 -11.582   9.816  0.00  0.00    -0.343 N 
ATOM     37  H   UNL     1       4.488 -11.529  10.779  0.00  0.00    +0.144 HD
ATOM     38  H   UNL     1       5.143 -11.752   9.247  0.00  0.00    +0.144 HD
ENDBRANCH  21  22
ENDBRANCH  20  21
ENDBRANCH   4  20
TORSDOF 6
