REMARK  Name = ZINC11863697
REMARK  12 active torsions:
REMARK  status: ('A' for Active; 'I' for Inactive)
REMARK    1  A    between atoms: C_1  and  N_50
REMARK    2  A    between atoms: C_2  and  N_50
REMARK    3  A    between atoms: C_3  and  C_4
REMARK    4  A    between atoms: C_3  and  N_50
REMARK    5  A    between atoms: C_4  and  O_5
REMARK    6  A    between atoms: O_5  and  C_6
REMARK    7  A    between atoms: C_11  and  C_12
REMARK    8  A    between atoms: C_12  and  C_13
REMARK    9  A    between atoms: C_13  and  N_14
REMARK   10  A    between atoms: N_14  and  S_15
REMARK   11  A    between atoms: S_15  and  C_18
REMARK   12  A    between atoms: C_21  and  N_24
REMARK                            x       y       z     vdW  Elec       q    Type
REMARK                         _______ _______ _______ _____ _____    ______ ____
ROOT
ATOM      1  C   UNL     1       0.075   1.151   0.016  0.00  0.00    +0.055 C 
ENDROOT
BRANCH   1   7
ATOM      2  C   UNL     1       2.092   2.035  -1.183  0.00  0.00    +0.124 A 
ATOM      3  C   UNL     1       3.357   2.605  -1.180  0.00  0.00    +0.047 A 
ATOM      4  C   UNL     1       3.973   2.908   0.019  0.00  0.00    +0.023 A 
ATOM      5  C   UNL     1       3.330   2.644   1.215  0.00  0.00    +0.041 A 
ATOM      6  C   UNL     1       2.067   2.079   1.214  0.00  0.00    +0.027 A 
ATOM      7  C   UNL     1       1.449   1.770   0.017  0.00  0.00    -0.003 A 
ATOM      8 CL   UNL     1       4.107   3.026   2.720  0.00  0.00    -0.084 Cl
BRANCH   2   9
ATOM      9  O   UNL     1       1.484   1.735  -2.361  0.00  0.00    -0.494 OA
BRANCH   9  10
ATOM     10  C   UNL     1       2.205   2.035  -3.558  0.00  0.00    +0.210 C 
BRANCH  10  11
ATOM     11  C   UNL     1       1.367   1.631  -4.773  0.00  0.00    -0.038 C 
BRANCH  11  14
ATOM     12  C   UNL     1       0.469   3.813  -5.316  0.00  0.00    -0.096 C 
ATOM     13  C   UNL     1      -0.876   1.830  -5.663  0.00  0.00    -0.096 C 
ATOM     14  N   UNL     1       0.146   2.465  -4.805  0.00  0.00    +0.378 N 
ATOM     15  H   UNL     1      -0.224   2.550  -3.851  0.00  0.00    -0.082 HD
ENDBRANCH  11  14
ENDBRANCH  10  11
ENDBRANCH   9  10
ENDBRANCH   2   9
ENDBRANCH   1   7
BRANCH   1  16
ATOM     16  C   UNL     1       0.202  -0.371  -0.083  0.00  0.00    +0.110 C 
BRANCH  16  17
ATOM     17  N   UNL     1      -1.134  -0.973  -0.084  0.00  0.00    -0.190 NA
ATOM     18  H   UNL     1      -1.903  -0.447   0.188  0.00  0.00    +0.148 HD
BRANCH  17  19
ATOM     19  S   UNL     1      -1.331  -2.550  -0.549  0.00  0.00    +0.058 S 
ATOM     20  O   UNL     1      -2.716  -2.841  -0.418  0.00  0.00    -0.153 OA
ATOM     21  O   UNL     1      -0.634  -2.700  -1.778  0.00  0.00    -0.153 OA
BRANCH  19  22
ATOM     22  C   UNL     1      -0.491  -3.551   0.632  0.00  0.00    +0.105 A 
ATOM     23  C   UNL     1       0.838  -3.879   0.438  0.00  0.00    +0.030 A 
ATOM     24  C   UNL     1       1.501  -4.659   1.365  0.00  0.00    +0.024 A 
ATOM     25  C   UNL     1       0.828  -5.123   2.488  0.00  0.00    +0.025 A 
ATOM     26  C   UNL     1      -0.509  -4.795   2.678  0.00  0.00    +0.024 A 
ATOM     27  C   UNL     1      -1.164  -4.011   1.750  0.00  0.00    +0.030 A 
BRANCH  25  28
ATOM     28  N   UNL     1       1.494  -5.916   3.425  0.00  0.00    -0.358 N 
ATOM     29  H   UNL     1       1.023  -6.239   4.209  0.00  0.00    +0.142 HD
ATOM     30  H   UNL     1       2.427  -6.144   3.292  0.00  0.00    +0.142 HD
ENDBRANCH  25  28
ENDBRANCH  19  22
ENDBRANCH  17  19
ENDBRANCH  16  17
ENDBRANCH   1  16
TORSDOF 10
