REMARK  Name = ZINC57356147
REMARK  4 active torsions:
REMARK  status: ('A' for Active; 'I' for Inactive)
REMARK    1  A    between atoms: C_6  and  C_7
REMARK    2  A    between atoms: C_7  and  N_8
REMARK    3  A    between atoms: N_8  and  C_9
REMARK    4  A    between atoms: C_14  and  N_15
REMARK                            x       y       z     vdW  Elec       q    Type
REMARK                         _______ _______ _______ _____ _____    ______ ____
ROOT
ATOM      1  C   UNL     1      -2.910  -1.720  -1.616  0.00  0.00    +0.051 A 
ATOM      2  C   UNL     1      -3.678  -2.182  -0.557  0.00  0.00    +0.074 A 
ATOM      3  C   UNL     1      -4.852  -2.877  -0.803  0.00  0.00    +0.164 A 
ATOM      4  C   UNL     1      -5.259  -3.108  -2.112  0.00  0.00    +0.164 A 
ATOM      5  C   UNL     1      -4.488  -2.647  -3.168  0.00  0.00    +0.072 A 
ATOM      6  C   UNL     1      -3.321  -1.950  -2.922  0.00  0.00    +0.034 A 
ATOM      7  O   UNL     1      -6.414  -3.783  -2.373  0.00  0.00    -0.485 OA
ATOM      8  C   UNL     1      -6.967  -4.552  -1.300  0.00  0.00    +0.270 C 
ATOM      9  C   UNL     1      -6.950  -3.689  -0.031  0.00  0.00    +0.270 C 
ATOM     10  O   UNL     1      -5.593  -3.327   0.247  0.00  0.00    -0.485 OA
ENDROOT
BRANCH   6  11
ATOM     11  N   UNL     1      -2.550  -1.481  -3.990  0.00  0.00    -0.415 NA
ATOM     12  H   UNL     1      -1.878  -2.186  -4.255  0.00  0.00    +0.121 HD
ATOM     13  H   UNL     1      -3.150  -1.276  -4.774  0.00  0.00    +0.121 HD
ATOM     14  H   UNL     1      -2.063  -0.642  -3.711  0.00  0.00    +0.121 HD
ENDBRANCH   6  11
BRANCH   1  15
ATOM     15  N   UNL     1      -1.726  -1.017  -1.368  0.00  0.00    -0.338 N 
ATOM     16  H   UNL     1      -1.191  -0.691  -2.109  0.00  0.00    +0.146 HD
BRANCH  15  17
ATOM     17  C   UNL     1      -1.293  -0.775   0.010  0.00  0.00    +0.137 C 
BRANCH  17  23
ATOM     18  C   UNL     1      -0.017   1.378   0.010  0.00  0.00    +0.006 A 
ATOM     19  C   UNL     1       1.171   2.086   0.002  0.00  0.00    +0.015 A 
ATOM     20  C   UNL     1       2.378   1.411  -0.013  0.00  0.00    +0.018 A 
ATOM     21  C   UNL     1       2.396   0.027  -0.021  0.00  0.00    +0.015 A 
ATOM     22  C   UNL     1       1.208  -0.679  -0.013  0.00  0.00    +0.006 A 
ATOM     23  C   UNL     1       0.002  -0.004   0.002  0.00  0.00    -0.030 A 
ATOM     24 BR   UNL     1       4.003   2.378  -0.024  0.00  0.00    -0.050 Br
ENDBRANCH  17  23
ENDBRANCH  15  17
ENDBRANCH   1  15
TORSDOF 4
