REMARK  Name = ZINC09229527
REMARK  11 active torsions:
REMARK  status: ('A' for Active; 'I' for Inactive)
REMARK    1  A    between atoms: C_1  and  O_2
REMARK    2  A    between atoms: O_2  and  C_3
REMARK    3  A    between atoms: C_6  and  N_9
REMARK    4  A    between atoms: N_9  and  S_10
REMARK    5  A    between atoms: S_10  and  C_13
REMARK    6  A    between atoms: C_16  and  N_19
REMARK    7  A    between atoms: N_19  and  C_20
REMARK    8  A    between atoms: C_20  and  N_22
REMARK    9  A    between atoms: C_23  and  C_25
REMARK   10  A    between atoms: C_26  and  C_27
REMARK   11  A    between atoms: C_30  and  N_33
REMARK                            x       y       z     vdW  Elec       q    Type
REMARK                         _______ _______ _______ _____ _____    ______ ____
ROOT
ATOM      1  C   UNL     1       1.069  -0.438   1.496  0.00  0.00    +0.109 A 
ATOM      2  C   UNL     1       2.432  -0.202   1.472  0.00  0.00    +0.030 A 
ATOM      3  C   UNL     1       3.209  -0.525   2.568  0.00  0.00    +0.025 A 
ATOM      4  C   UNL     1       2.622  -1.097   3.689  0.00  0.00    +0.033 A 
ATOM      5  C   UNL     1       1.254  -1.338   3.707  0.00  0.00    +0.025 A 
ATOM      6  C   UNL     1       0.482  -1.008   2.611  0.00  0.00    +0.030 A 
ENDROOT
BRANCH   1   7
ATOM      7  S   UNL     1       0.080  -0.018   0.099  0.00  0.00    +0.072 S 
ATOM      8  O   UNL     1      -1.130  -0.752   0.224  0.00  0.00    -0.150 OA
ATOM      9  O   UNL     1       0.922  -0.124  -1.041  0.00  0.00    -0.150 OA
BRANCH   7  10
ATOM     10  N   UNL     1      -0.319   1.582   0.246  0.00  0.00    -0.216 N 
ATOM     11  H   UNL     1      -0.018   2.220  -0.420  0.00  0.00    +0.174 HD
BRANCH  10  15
ATOM     12  C   UNL     1      -2.604   2.873   3.485  0.00  0.00    +0.120 A 
ATOM     13  C   UNL     1      -1.478   3.587   3.102  0.00  0.00    +0.047 A 
ATOM     14  C   UNL     1      -0.721   3.160   2.029  0.00  0.00    +0.028 A 
ATOM     15  C   UNL     1      -1.086   2.015   1.333  0.00  0.00    +0.048 A 
ATOM     16  C   UNL     1      -2.216   1.304   1.714  0.00  0.00    +0.028 A 
ATOM     17  C   UNL     1      -2.969   1.729   2.790  0.00  0.00    +0.047 A 
BRANCH  12  19
ATOM     18  C   UNL     1      -4.495   2.510   4.880  0.00  0.00    +0.277 C 
ATOM     19  O   UNL     1      -3.349   3.294   4.541  0.00  0.00    -0.495 OA
ENDBRANCH  12  19
ENDBRANCH  10  15
ENDBRANCH   7  10
ENDBRANCH   1   7
BRANCH   4  20
ATOM     20  N   UNL     1       3.407  -1.429   4.798  0.00  0.00    -0.297 N 
ATOM     21  H   UNL     1       4.105  -0.825   5.097  0.00  0.00    +0.154 HD
BRANCH  20  22
ATOM     22  C   UNL     1       3.194  -2.589   5.451  0.00  0.00    +0.141 C 
ATOM     23  S   UNL     1       2.059  -3.718   4.843  0.00  0.00    -0.018 S 
BRANCH  22  24
ATOM     24  N   UNL     1       3.874  -2.860   6.583  0.00  0.00    -0.264 N 
ATOM     25  C   UNL     1       3.662  -4.020   7.236  0.00  0.00    +0.242 C 
ATOM     26  O   UNL     1       2.855  -4.822   6.804  0.00  0.00    -0.270 OA
ATOM     27  H   UNL     1       4.517  -2.220   6.927  0.00  0.00    +0.157 HD
BRANCH  25  28
ATOM     28  C   UNL     1       4.400  -4.314   8.464  0.00  0.00    +0.068 C 
ATOM     29  C   UNL     1       4.187  -5.474   9.117  0.00  0.00    +0.013 C 
BRANCH  29  30
ATOM     30  C   UNL     1       4.930  -5.770  10.353  0.00  0.00    -0.025 A 
ATOM     31  C   UNL     1       5.862  -4.853  10.850  0.00  0.00    +0.010 A 
ATOM     32  C   UNL     1       6.550  -5.136  12.011  0.00  0.00    +0.033 A 
ATOM     33  C   UNL     1       6.328  -6.327  12.678  0.00  0.00    +0.126 A 
ATOM     34  C   UNL     1       5.412  -7.242  12.190  0.00  0.00    +0.033 A 
ATOM     35  C   UNL     1       4.712  -6.972  11.034  0.00  0.00    +0.010 A 
BRANCH  33  36
ATOM     36  N   UNL     1       7.076  -6.625  13.921  0.00  0.00    +0.056 N 
ATOM     37  O   UNL     1       6.883  -7.673  14.511  0.00  0.00    -0.126 OA
ATOM     38  O   UNL     1       7.883  -5.822  14.354  0.00  0.00    -0.126 OA
ENDBRANCH  33  36
ENDBRANCH  29  30
ENDBRANCH  25  28
ENDBRANCH  22  24
ENDBRANCH  20  22
ENDBRANCH   4  20
TORSDOF 10
