REMARK  Name = ZINC36200757
REMARK  9 active torsions:
REMARK  status: ('A' for Active; 'I' for Inactive)
REMARK    1  A    between atoms: C_1  and  O_2
REMARK    2  A    between atoms: O_2  and  C_3
REMARK    3  A    between atoms: C_6  and  C_13
REMARK    4  A    between atoms: C_7  and  O_11
REMARK    5  A    between atoms: C_8  and  O_9
REMARK    6  A    between atoms: O_9  and  C_10
REMARK    7  A    between atoms: O_11  and  C_12
REMARK    8  A    between atoms: C_13  and  C_15
REMARK    9  A    between atoms: C_13  and  N_21
REMARK                            x       y       z     vdW  Elec       q    Type
REMARK                         _______ _______ _______ _____ _____    ______ ____
ROOT
ATOM      1  C   UNL     1      -1.201  -0.638   0.010  0.00  0.00    +0.165 A 
ATOM      2  C   UNL     1      -2.375   0.101   0.019  0.00  0.00    +0.050 A 
ATOM      3  C   UNL     1      -3.598  -0.543   0.028  0.00  0.00    +0.010 A 
ATOM      4  C   UNL     1      -3.657  -1.924   0.028  0.00  0.00    -0.012 A 
ATOM      5  C   UNL     1      -2.488  -2.670   0.018  0.00  0.00    +0.167 A 
ATOM      6  C   UNL     1      -1.256  -2.026   0.003  0.00  0.00    +0.204 A 
ENDROOT
BRANCH   1   8
ATOM      7  C   UNL     1      -0.017   1.425   0.010  0.00  0.00    +0.277 C 
ATOM      8  O   UNL     1       0.002  -0.004   0.002  0.00  0.00    -0.491 OA
ENDBRANCH   1   8
BRANCH   6   9
ATOM      9  O   UNL     1      -0.106  -2.755  -0.012  0.00  0.00    -0.488 OA
ATOM     10  C   UNL     1       0.454  -3.109   1.254  0.00  0.00    +0.277 C 
ENDBRANCH   6   9
BRANCH   5  11
ATOM     11  O   UNL     1      -2.547  -4.028   0.018  0.00  0.00    -0.491 OA
ATOM     12  C   UNL     1      -2.586  -4.676  -1.255  0.00  0.00    +0.277 C 
ENDBRANCH   5  11
BRANCH   4  13
ATOM     13  C   UNL     1      -4.994  -2.620   0.038  0.00  0.00    -0.003 C 
BRANCH  13  14
ATOM     14  C   UNL     1      -5.371  -2.963   1.456  0.00  0.00    -0.019 A 
ATOM     15  C   UNL     1      -5.259  -4.147   2.106  0.00  0.00    +0.011 A 
ATOM     16  C   UNL     1      -5.674  -4.231   3.422  0.00  0.00    +0.023 A 
ATOM     17  C   UNL     1      -6.181  -3.126   4.023  0.00  0.00    +0.055 A 
ATOM     18  S   UNL     1      -6.074  -1.913   2.717  0.00  0.00    -0.088 S 
ATOM     19 BR   UNL     1      -6.826  -2.921   5.789  0.00  0.00    -0.043 Br
ENDBRANCH  13  14
BRANCH  13  20
ATOM     20  N   UNL     1      -6.013  -1.732  -0.539  0.00  0.00    +0.386 N 
ATOM     21  H   UNL     1      -6.070  -0.886   0.008  0.00  0.00    -0.089 HD
ATOM     22  H   UNL     1      -5.760  -1.503  -1.488  0.00  0.00    -0.089 HD
ATOM     23  H   UNL     1      -6.907  -2.198  -0.532  0.00  0.00    -0.089 HD
ENDBRANCH  13  20
ENDBRANCH   4  13
TORSDOF 6
