REMARK  Name = ZINC37719913
REMARK  10 active torsions:
REMARK  status: ('A' for Active; 'I' for Inactive)
REMARK    1  A    between atoms: C_1  and  C_2
REMARK    2  A    between atoms: C_2  and  O_3
REMARK    3  A    between atoms: O_3  and  C_4
REMARK    4  A    between atoms: C_6  and  C_19
REMARK    5  A    between atoms: C_9  and  O_10
REMARK    6  A    between atoms: O_10  and  C_11
REMARK    7  A    between atoms: C_11  and  C_12
REMARK    8  A    between atoms: C_12  and  N_13
REMARK    9  A    between atoms: C_19  and  C_20
REMARK   10  A    between atoms: C_20  and  N_21
REMARK                            x       y       z     vdW  Elec       q    Type
REMARK                         _______ _______ _______ _____ _____    ______ ____
ROOT
ATOM      1  C   UNL     1      -1.498  -1.849   0.006  0.00  0.00    +0.163 A 
ATOM      2  C   UNL     1      -0.389  -2.680  -0.003  0.00  0.00    +0.053 A 
ATOM      3  C   UNL     1      -0.553  -4.052  -0.009  0.00  0.00    -0.044 A 
ATOM      4  C   UNL     1      -1.822  -4.600  -0.006  0.00  0.00    +0.022 A 
ATOM      5  C   UNL     1      -2.934  -3.777   0.003  0.00  0.00    +0.063 A 
ATOM      6  C   UNL     1      -2.776  -2.400   0.016  0.00  0.00    +0.176 A 
ATOM      7 BR   UNL     1      -4.668  -4.531   0.006  0.00  0.00    -0.046 Br
ENDROOT
BRANCH   1   8
ATOM      8  O   UNL     1      -1.339  -0.499   0.012  0.00  0.00    -0.489 OA
BRANCH   8  10
ATOM      9  C   UNL     1      -0.019   1.526   0.010  0.00  0.00    +0.048 C 
ATOM     10  C   UNL     1       0.002  -0.004   0.002  0.00  0.00    +0.226 C 
ENDBRANCH   8  10
ENDBRANCH   1   8
BRANCH   6  11
ATOM     11  O   UNL     1      -3.868  -1.589   0.030  0.00  0.00    -0.489 OA
BRANCH  11  12
ATOM     12  C   UNL     1      -4.401  -1.195  -1.236  0.00  0.00    +0.211 C 
BRANCH  12  13
ATOM     13  C   UNL     1      -5.616  -0.292  -1.019  0.00  0.00    -0.037 C 
BRANCH  13  14
ATOM     14  N   UNL     1      -5.190   0.956  -0.372  0.00  0.00    +0.382 N 
ATOM     15  C   UNL     1      -4.368   1.764  -1.309  0.00  0.00    -0.079 C 
ATOM     16  C   UNL     1      -4.485   3.199  -0.736  0.00  0.00    -0.020 C 
ATOM     17  C   UNL     1      -5.950   3.259  -0.248  0.00  0.00    -0.020 C 
ATOM     18  C   UNL     1      -6.367   1.790  -0.046  0.00  0.00    -0.079 C 
ATOM     19  H   UNL     1      -4.665   0.752   0.466  0.00  0.00    -0.082 HD
ENDBRANCH  13  14
ENDBRANCH  12  13
ENDBRANCH  11  12
ENDBRANCH   6  11
BRANCH   3  20
ATOM     20  C   UNL     1       0.655  -4.954  -0.020  0.00  0.00    +0.016 C 
BRANCH  20  21
ATOM     21  C   UNL     1       1.071  -5.266   1.419  0.00  0.00    -0.082 C 
BRANCH  21  22
ATOM     22  N   UNL     1       2.248  -6.144   1.409  0.00  0.00    +0.378 N 
ATOM     23  H   UNL     1       2.023  -7.003   0.930  0.00  0.00    -0.090 HD
ATOM     24  H   UNL     1       3.008  -5.683   0.932  0.00  0.00    -0.090 HD
ATOM     25  H   UNL     1       2.522  -6.350   2.357  0.00  0.00    -0.090 HD
ENDBRANCH  21  22
ENDBRANCH  20  21
ENDBRANCH   3  20
TORSDOF 9
