REMARK  Name = ZINC67247786
REMARK  10 active torsions:
REMARK  status: ('A' for Active; 'I' for Inactive)
REMARK    1  A    between atoms: C_4  and  C_27
REMARK    2  A    between atoms: C_5  and  C_7
REMARK    3  A    between atoms: C_7  and  N_8
REMARK    4  A    between atoms: N_8  and  C_9
REMARK    5  A    between atoms: C_9  and  C_10
REMARK    6  A    between atoms: C_13  and  O_16
REMARK    7  A    between atoms: O_16  and  C_17
REMARK    8  A    between atoms: C_17  and  C_18
REMARK    9  A    between atoms: C_18  and  C_20
REMARK   10  A    between atoms: C_27  and  O_28
REMARK                            x       y       z     vdW  Elec       q    Type
REMARK                         _______ _______ _______ _____ _____    ______ ____
ROOT
ATOM      1  C   UNL     1       1.779  -4.655   2.723  0.00  0.00    -0.064 A 
ATOM      2  C   UNL     1       3.079  -4.865   3.143  0.00  0.00    +0.005 A 
ATOM      3  C   UNL     1       3.328  -5.330   4.420  0.00  0.00    +0.046 A 
ATOM      4  C   UNL     1       2.271  -5.586   5.281  0.00  0.00    +0.127 A 
ATOM      5  C   UNL     1       0.967  -5.375   4.858  0.00  0.00    +0.046 A 
ATOM      6  C   UNL     1       0.724  -4.905   3.582  0.00  0.00    +0.005 A 
ENDROOT
BRANCH   1   7
ATOM      7  C   UNL     1       1.510  -4.149   1.330  0.00  0.00    -0.046 C 
BRANCH   7   8
ATOM      8  N   UNL     1       1.490  -2.680   1.338  0.00  0.00    +0.384 N 
ATOM      9  H   UNL     1       2.383  -2.333   1.656  0.00  0.00    -0.085 HD
ATOM     10  H   UNL     1       0.764  -2.357   1.959  0.00  0.00    -0.085 HD
BRANCH   8  11
ATOM     11  C   UNL     1       1.229  -2.186  -0.020  0.00  0.00    -0.046 C 
BRANCH  11  16
ATOM     12  C   UNL     1      -0.017   1.378   0.010  0.00  0.00    +0.000 A 
ATOM     13  C   UNL     1       1.171   2.085   0.002  0.00  0.00    +0.000 A 
ATOM     14  C   UNL     1       2.377   1.411  -0.013  0.00  0.00    +0.006 A 
ATOM     15  C   UNL     1       2.396   0.028  -0.020  0.00  0.00    -0.021 A 
ATOM     16  C   UNL     1       1.209  -0.679  -0.012  0.00  0.00    -0.059 A 
ATOM     17  C   UNL     1       0.002  -0.004   0.002  0.00  0.00    +0.002 A 
BRANCH  15  18
ATOM     18  C   UNL     1       3.711  -0.707  -0.038  0.00  0.00    +0.191 C 
BRANCH  18  19
ATOM     19  O   UNL     1       4.785   0.236  -0.044  0.00  0.00    -0.390 OA
ATOM     20  H   UNL     1       5.663  -0.168  -0.055  0.00  0.00    +0.210 HD
ENDBRANCH  18  19
ENDBRANCH  15  18
ENDBRANCH  11  16
ENDBRANCH   8  11
ENDBRANCH   7   8
ENDBRANCH   1   7
BRANCH   4  21
ATOM     21  O   UNL     1       2.513  -6.044   6.538  0.00  0.00    -0.430 OA
BRANCH  21  22
ATOM     22  C   UNL     1       1.376  -6.286   7.370  0.00  0.00    +0.440 C 
ATOM     23  F   UNL     1       0.657  -5.098   7.535  0.00  0.00    -0.160 F 
ATOM     24  F   UNL     1       0.556  -7.248   6.771  0.00  0.00    -0.160 F 
BRANCH  22  25
ATOM     25  C   UNL     1       1.843  -6.794   8.736  0.00  0.00    +0.381 C 
ATOM     26  F   UNL     1       2.664  -5.832   9.335  0.00  0.00    -0.225 F 
BRANCH  25  27
ATOM     27  C   UNL     1       0.627  -7.053   9.627  0.00  0.00    +0.430 C 
ATOM     28  F   UNL     1      -0.194  -8.015   9.027  0.00  0.00    -0.167 F 
ATOM     29  F   UNL     1       1.054  -7.517  10.876  0.00  0.00    -0.167 F 
ATOM     30  F   UNL     1      -0.092  -5.864   9.792  0.00  0.00    -0.167 F 
ENDBRANCH  25  27
ENDBRANCH  22  25
ENDBRANCH  21  22
ENDBRANCH   4  21
TORSDOF 10
