REMARK  Name = ZINC62043548
REMARK  13 active torsions:
REMARK  status: ('A' for Active; 'I' for Inactive)
REMARK    1  A    between atoms: C_1  and  C_2
REMARK    2  A    between atoms: N_5  and  C_8
REMARK    3  A    between atoms: C_8  and  C_9
REMARK    4  A    between atoms: C_8  and  C_25
REMARK    5  A    between atoms: C_9  and  N_10
REMARK    6  A    between atoms: N_13  and  C_14
REMARK    7  A    between atoms: C_14  and  C_15
REMARK    8  A    between atoms: C_15  and  C_16
REMARK    9  A    between atoms: C_15  and  O_24
REMARK   10  A    between atoms: C_19  and  O_22
REMARK   11  A    between atoms: O_22  and  C_23
REMARK   12  A    between atoms: C_25  and  C_26
REMARK   13  A    between atoms: C_25  and  C_27
REMARK                            x       y       z     vdW  Elec       q    Type
REMARK                         _______ _______ _______ _____ _____    ______ ____
ROOT
ATOM      1  N   UNL     1       1.687  -3.626  -2.381  0.00  0.00    -0.301 N 
ATOM      2  C   UNL     1       2.214  -3.723  -3.618  0.00  0.00    +0.300 C 
ATOM      3  O   UNL     1       3.264  -4.312  -3.788  0.00  0.00    -0.253 OA
ATOM      4  N   UNL     1       1.576  -3.167  -4.668  0.00  0.00    -0.297 N 
ATOM      5  H   UNL     1       0.849  -3.156  -2.247  0.00  0.00    +0.150 HD
ATOM      6  H   UNL     1       0.739  -2.697  -4.533  0.00  0.00    +0.150 HD
ENDROOT
BRANCH   1   7
ATOM      7  C   UNL     1       2.380  -4.230  -1.241  0.00  0.00    +0.091 C 
BRANCH   7   8
ATOM      8  C   UNL     1       1.688  -3.809   0.057  0.00  0.00    -0.048 C 
BRANCH   8  13
ATOM      9  C   UNL     1       3.334   1.651   0.064  0.00  0.00    +0.007 C 
ATOM     10  C   UNL     1       3.119   0.187  -0.324  0.00  0.00    -0.018 C 
ATOM     11  C   UNL     1       3.701  -0.721   0.764  0.00  0.00    -0.016 C 
ATOM     12  C   UNL     1       3.413  -2.182   0.410  0.00  0.00    -0.078 C 
ATOM     13  N   UNL     1       1.962  -2.390   0.321  0.00  0.00    +0.383 N 
ATOM     14  C   UNL     1       1.408  -1.576  -0.768  0.00  0.00    -0.078 C 
ATOM     15  C   UNL     1       1.619  -0.092  -0.459  0.00  0.00    -0.016 C 
ATOM     16  H   UNL     1       1.531  -2.122   1.192  0.00  0.00    -0.081 HD
ENDBRANCH   8  13
BRANCH   8  17
ATOM     17  C   UNL     1       2.220  -4.655   1.216  0.00  0.00    -0.029 C 
ATOM     18  C   UNL     1       1.522  -4.240   2.513  0.00  0.00    +0.005 C 
ATOM     19  C   UNL     1       1.943  -6.133   0.938  0.00  0.00    +0.005 C 
ENDBRANCH   8  17
ENDBRANCH   7   8
ENDBRANCH   1   7
BRANCH   4  20
ATOM     20  C   UNL     1       2.149  -3.273  -6.012  0.00  0.00    +0.141 C 
BRANCH  20  21
ATOM     21  C   UNL     1       1.235  -2.563  -7.013  0.00  0.00    +0.162 C 
BRANCH  21  22
ATOM     22  C   UNL     1       1.823  -2.672  -8.396  0.00  0.00    -0.017 A 
ATOM     23  C   UNL     1       1.570  -3.790  -9.168  0.00  0.00    +0.010 A 
ATOM     24  C   UNL     1       2.109  -3.893 -10.436  0.00  0.00    +0.046 A 
ATOM     25  C   UNL     1       2.905  -2.871 -10.934  0.00  0.00    +0.120 A 
ATOM     26  C   UNL     1       3.157  -1.750 -10.158  0.00  0.00    +0.046 A 
ATOM     27  C   UNL     1       2.611  -1.650  -8.893  0.00  0.00    +0.010 A 
BRANCH  25  28
ATOM     28  O   UNL     1       3.436  -2.970 -12.181  0.00  0.00    -0.495 OA
ATOM     29  C   UNL     1       4.245  -1.881 -12.629  0.00  0.00    +0.277 C 
ENDBRANCH  25  28
ENDBRANCH  21  22
BRANCH  21  30
ATOM     30  O   UNL     1      -0.057  -3.174  -6.995  0.00  0.00    -0.386 OA
ATOM     31  H   UNL     1      -0.051  -4.112  -7.230  0.00  0.00    +0.210 HD
ENDBRANCH  21  30
ENDBRANCH  20  21
ENDBRANCH   4  20
TORSDOF 9
