REMARK  Name = ZINC48215938
REMARK  10 active torsions:
REMARK  status: ('A' for Active; 'I' for Inactive)
REMARK    1  A    between atoms: C_1  and  C_2
REMARK    2  A    between atoms: C_5  and  C_7
REMARK    3  A    between atoms: C_7  and  N_8
REMARK    4  A    between atoms: N_8  and  C_9
REMARK    5  A    between atoms: N_8  and  C_10
REMARK    6  A    between atoms: C_10  and  C_11
REMARK    7  A    between atoms: N_13  and  C_14
REMARK    8  A    between atoms: C_14  and  C_15
REMARK    9  A    between atoms: C_18  and  S_21
REMARK   10  A    between atoms: S_21  and  N_24
REMARK                            x       y       z     vdW  Elec       q    Type
REMARK                         _______ _______ _______ _____ _____    ______ ____
ROOT
ATOM      1  C   UNL     1       3.390  -4.988  -2.845  0.00  0.00    +0.197 C 
ATOM      2  O   UNL     1       2.883  -4.373  -3.759  0.00  0.00    -0.278 OA
ATOM      3  N   UNL     1       4.309  -5.940  -3.101  0.00  0.00    -0.313 N 
ATOM      4  H   UNL     1       4.715  -6.432  -2.370  0.00  0.00    +0.149 HD
ENDROOT
BRANCH   1   5
ATOM      5  C   UNL     1       2.993  -4.688  -1.422  0.00  0.00    +0.019 C 
BRANCH   5   6
ATOM      6  N   UNL     1       1.984  -3.621  -1.411  0.00  0.00    +0.388 N 
ATOM      7  C   UNL     1       0.758  -4.098  -2.064  0.00  0.00    -0.095 C 
ATOM      8  H   UNL     1       2.338  -2.817  -1.907  0.00  0.00    -0.081 HD
BRANCH   6   9
ATOM      9  C   UNL     1       1.684  -3.245  -0.023  0.00  0.00    -0.003 C 
BRANCH   9  14
ATOM     10  C   UNL     1      -0.018   1.503   0.010  0.00  0.00    +0.086 C 
ATOM     11  C   UNL     1       0.002  -0.004   0.002  0.00  0.00    +0.102 A 
ATOM     12  C   UNL     1      -1.078  -0.805   0.003  0.00  0.00    +0.044 A 
ATOM     13  C   UNL     1      -0.601  -2.136  -0.007  0.00  0.00    +0.043 A 
ATOM     14  C   UNL     1       0.742  -2.069  -0.013  0.00  0.00    +0.089 A 
ATOM     15  O   UNL     1       1.102  -0.775  -0.013  0.00  0.00    -0.467 OA
ENDBRANCH   9  14
ENDBRANCH   6   9
ENDBRANCH   5   6
ENDBRANCH   1   5
BRANCH   3  16
ATOM     16  C   UNL     1       4.696  -6.232  -4.484  0.00  0.00    +0.139 C 
BRANCH  16  17
ATOM     17  C   UNL     1       5.731  -7.327  -4.495  0.00  0.00    -0.030 A 
ATOM     18  C   UNL     1       7.075  -7.009  -4.426  0.00  0.00    +0.007 A 
ATOM     19  C   UNL     1       8.024  -8.013  -4.436  0.00  0.00    +0.029 A 
ATOM     20  C   UNL     1       7.630  -9.336  -4.517  0.00  0.00    +0.105 A 
ATOM     21  C   UNL     1       6.287  -9.654  -4.586  0.00  0.00    +0.029 A 
ATOM     22  C   UNL     1       5.337  -8.650  -4.571  0.00  0.00    +0.007 A 
BRANCH  20  23
ATOM     23  S   UNL     1       8.841 -10.616  -4.532  0.00  0.00    +0.056 S 
ATOM     24  O   UNL     1       8.238 -11.738  -5.162  0.00  0.00    -0.153 OA
ATOM     25  O   UNL     1      10.045 -10.031  -5.008  0.00  0.00    -0.153 OA
BRANCH  23  26
ATOM     26  N   UNL     1       9.115 -11.050  -2.957  0.00  0.00    -0.204 NA
ATOM     27  H   UNL     1       9.376 -11.959  -2.743  0.00  0.00    +0.144 HD
ATOM     28  H   UNL     1       9.014 -10.394  -2.249  0.00  0.00    +0.144 HD
ENDBRANCH  23  26
ENDBRANCH  20  23
ENDBRANCH  16  17
ENDBRANCH   3  16
TORSDOF 8
