REMARK  Name = ZINC50563032
REMARK  6 active torsions:
REMARK  status: ('A' for Active; 'I' for Inactive)
REMARK    1  A    between atoms: C_1  and  C_2
REMARK    2  A    between atoms: N_7  and  C_11
REMARK    3  A    between atoms: C_8  and  C_10
REMARK    4  A    between atoms: C_11  and  C_12
REMARK    5  A    between atoms: N_14  and  C_15
REMARK    6  A    between atoms: C_16  and  N_23
REMARK                            x       y       z     vdW  Elec       q    Type
REMARK                         _______ _______ _______ _____ _____    ______ ____
ROOT
ATOM      1  C   UNL     1       0.074  -1.197   5.566  0.00  0.00    +0.201 C 
ATOM      2  O   UNL     1      -0.889  -1.669   6.133  0.00  0.00    -0.278 OA
ATOM      3  N   UNL     1       0.704  -0.125   6.087  0.00  0.00    -0.284 N 
ATOM      4  H   UNL     1       1.517   0.207   5.675  0.00  0.00    +0.155 HD
ENDROOT
BRANCH   3   5
ATOM      5  C   UNL     1       0.184   0.510   7.224  0.00  0.00    +0.073 A 
ATOM      6  C   UNL     1       0.584   0.103   8.496  0.00  0.00    +0.049 A 
ATOM      7  C   UNL     1       0.066   0.735   9.617  0.00  0.00    +0.044 A 
ATOM      8  C   UNL     1      -0.845   1.767   9.471  0.00  0.00    +0.044 A 
ATOM      9  C   UNL     1      -1.241   2.171   8.209  0.00  0.00    +0.042 A 
ATOM     10  C   UNL     1      -0.726   1.548   7.086  0.00  0.00    +0.065 A 
ATOM     11 CL   UNL     1      -1.221   2.064   5.504  0.00  0.00    -0.082 Cl
ATOM     12 CL   UNL     1      -1.491   2.556  10.876  0.00  0.00    -0.083 Cl
BRANCH   6  13
ATOM     13  N   UNL     1       1.504  -0.940   8.642  0.00  0.00    -0.356 N 
ATOM     14  H   UNL     1       1.865  -1.382   7.857  0.00  0.00    +0.142 HD
ATOM     15  H   UNL     1       1.781  -1.222   9.528  0.00  0.00    +0.142 HD
ENDBRANCH   6  13
ENDBRANCH   3   5
BRANCH   1  16
ATOM     16  C   UNL     1       0.568  -1.811   4.281  0.00  0.00    +0.019 C 
BRANCH  16  22
ATOM     17  C   UNL     1      -2.251  -4.099   2.132  0.00  0.00    +0.006 C 
ATOM     18  C   UNL     1      -0.813  -4.616   2.205  0.00  0.00    -0.028 C 
ATOM     19  C   UNL     1      -0.724  -5.737   3.245  0.00  0.00    -0.000 C 
ATOM     20  C   UNL     1      -1.072  -5.169   4.624  0.00  0.00    -0.018 C 
ATOM     21  C   UNL     1      -0.130  -4.006   4.943  0.00  0.00    -0.078 C 
ATOM     22  N   UNL     1      -0.281  -2.957   3.928  0.00  0.00    +0.387 N 
ATOM     23  C   UNL     1       0.120  -3.473   2.613  0.00  0.00    -0.068 C 
ATOM     24  C   UNL     1       0.035  -2.352   1.576  0.00  0.00    -0.013 C 
ATOM     25  H   UNL     1      -1.244  -2.661   3.893  0.00  0.00    -0.081 HD
ENDBRANCH  16  22
ENDBRANCH   1  16
TORSDOF 4
