REMARK  Name = ZINC12525586
REMARK  8 active torsions:
REMARK  status: ('A' for Active; 'I' for Inactive)
REMARK    1  A    between atoms: C_1  and  C_2
REMARK    2  A    between atoms: C_3  and  C_8
REMARK    3  A    between atoms: C_4  and  C_7
REMARK    4  A    between atoms: C_8  and  O_9
REMARK    5  A    between atoms: O_9  and  C_10
REMARK    6  A    between atoms: C_13  and  C_18
REMARK    7  A    between atoms: C_15  and  O_16
REMARK    8  A    between atoms: O_16  and  C_17
REMARK                            x       y       z     vdW  Elec       q    Type
REMARK                         _______ _______ _______ _____ _____    ______ ____
ROOT
ATOM      1  C   UNL     1       2.022   1.597  -8.335  0.00  0.00    +0.209 C 
ATOM      2  N   UNL     1       1.008   2.620  -8.651  0.00  0.00    -0.294 N 
ATOM      3  C   UNL     1      -0.265   2.187  -8.993  0.00  0.00    +0.159 C 
ATOM      4  N   UNL     1      -0.344   1.228 -10.004  0.00  0.00    -0.259 N 
ATOM      5  C   UNL     1       0.705   0.314 -10.035  0.00  0.00    +0.205 A 
ATOM      6  N   UNL     1       1.834   0.475  -9.262  0.00  0.00    -0.288 N 
ATOM      7  C   UNL     1       2.665  -0.574  -9.535  0.00  0.00    +0.072 A 
ATOM      8  C   UNL     1       3.925  -0.928  -9.067  0.00  0.00    +0.028 A 
ATOM      9  C   UNL     1       4.483  -2.090  -9.576  0.00  0.00    +0.002 A 
ATOM     10  C   UNL     1       3.827  -2.872 -10.511  0.00  0.00    +0.002 A 
ATOM     11  C   UNL     1       2.573  -2.540 -10.993  0.00  0.00    +0.030 A 
ATOM     12  C   UNL     1       1.989  -1.371 -10.493  0.00  0.00    +0.091 A 
ATOM     13  N   UNL     1       0.804  -0.774 -10.749  0.00  0.00    -0.214 NA
ATOM     14  N   UNL     1      -1.329   2.651  -8.401  0.00  0.00    -0.375 N 
ATOM     15  H   UNL     1       1.225   3.565  -8.622  0.00  0.00    +0.151 HD
ATOM     16  H   UNL     1      -1.244   3.317  -7.702  0.00  0.00    +0.158 HD
ATOM     17  H   UNL     1      -1.078   1.201 -10.638  0.00  0.00    +0.158 HD
ATOM     18  H   UNL     1      -2.207   2.330  -8.661  0.00  0.00    +0.158 HD
ENDROOT
BRANCH   1  22
ATOM     19  C   UNL     1       1.504   0.249  -4.309  0.00  0.00    +0.162 A 
ATOM     20  C   UNL     1       0.399   0.507  -5.104  0.00  0.00    +0.050 A 
ATOM     21  C   UNL     1       0.569   0.942  -6.405  0.00  0.00    +0.011 A 
ATOM     22  C   UNL     1       1.841   1.122  -6.916  0.00  0.00    -0.003 A 
ATOM     23  C   UNL     1       2.948   0.867  -6.128  0.00  0.00    +0.056 A 
ATOM     24  C   UNL     1       2.784   0.436  -4.821  0.00  0.00    +0.162 A 
BRANCH  24  25
ATOM     25  O   UNL     1       3.872   0.190  -4.043  0.00  0.00    -0.491 OA
ATOM     26  C   UNL     1       5.155   0.403  -4.635  0.00  0.00    +0.277 C 
ENDBRANCH  24  25
BRANCH  19  27
ATOM     27  O   UNL     1       1.338  -0.179  -3.029  0.00  0.00    -0.484 OA
BRANCH  27  28
ATOM     28  C   UNL     1      -0.005  -0.348  -2.571  0.00  0.00    +0.270 C 
BRANCH  28  31
ATOM     29  C   UNL     1      -0.018   1.503   0.010  0.00  0.00    +0.069 C 
ATOM     30  C   UNL     1       0.002  -0.004   0.002  0.00  0.00    +0.087 A 
ATOM     31  C   UNL     1       0.008  -0.824  -1.141  0.00  0.00    +0.054 A 
ATOM     32  C   UNL     1       0.027  -2.108  -0.735  0.00  0.00    +0.141 A 
ATOM     33  O   UNL     1       0.034  -2.119   0.606  0.00  0.00    -0.359 OA
ATOM     34  N   UNL     1       0.023  -0.775   1.052  0.00  0.00    -0.083 NA
ATOM     35  C   UNL     1       0.039  -3.320  -1.631  0.00  0.00    +0.089 C 
ENDBRANCH  28  31
ENDBRANCH  27  28
ENDBRANCH  19  27
ENDBRANCH   1  22
TORSDOF 5
