REMARK  Name = ZINC04572516
REMARK  6 active torsions:
REMARK  status: ('A' for Active; 'I' for Inactive)
REMARK    1  A    between atoms: C_3  and  S_17
REMARK    2  A    between atoms: C_6  and  N_7
REMARK    3  A    between atoms: N_10  and  C_11
REMARK    4  A    between atoms: C_11  and  C_12
REMARK    5  A    between atoms: S_17  and  C_20
REMARK    6  A    between atoms: C_23  and  N_26
REMARK                            x       y       z     vdW  Elec       q    Type
REMARK                         _______ _______ _______ _____ _____    ______ ____
ROOT
ATOM      1  C   UNL     1      -0.010   1.381  -0.175  0.00  0.00    +0.025 A 
ATOM      2  C   UNL     1       0.006   0.000  -0.188  0.00  0.00    +0.029 A 
ATOM      3  C   UNL     1       1.200  -0.680  -0.031  0.00  0.00    +0.094 A 
ATOM      4  C   UNL     1       2.381   0.019   0.139  0.00  0.00    +0.029 A 
ATOM      5  C   UNL     1       2.371   1.400   0.153  0.00  0.00    +0.025 A 
ATOM      6  C   UNL     1       1.174   2.086  -0.004  0.00  0.00    +0.035 A 
ENDROOT
BRANCH   6   7
ATOM      7  N   UNL     1       1.162   3.485   0.009  0.00  0.00    -0.269 N 
ATOM      8  C   UNL     1       0.101   4.145   0.516  0.00  0.00    +0.304 C 
ATOM      9  O   UNL     1      -0.801   3.528   1.048  0.00  0.00    -0.253 OA
ATOM     10  N   UNL     1       0.040   5.489   0.432  0.00  0.00    -0.299 N 
ATOM     11  H   UNL     1       1.916   3.981  -0.346  0.00  0.00    +0.156 HD
ATOM     12  H   UNL     1       0.760   5.981   0.007  0.00  0.00    +0.150 HD
BRANCH  10  13
ATOM     13  C   UNL     1      -1.113   6.206   0.983  0.00  0.00    +0.109 C 
BRANCH  13  14
ATOM     14  C   UNL     1      -0.934   7.708   0.757  0.00  0.00    +0.003 C 
ATOM     15  C   UNL     1       0.271   8.206   1.561  0.00  0.00    -0.014 C 
ATOM     16  C   UNL     1       0.407   9.720   1.382  0.00  0.00    -0.082 C 
ATOM     17  C   UNL     1      -1.982   9.955   1.051  0.00  0.00    -0.082 C 
ATOM     18  C   UNL     1      -2.191   8.449   1.222  0.00  0.00    -0.014 C 
ATOM     19  N   UNL     1      -0.821  10.390   1.851  0.00  0.00    +0.379 N 
ATOM     20  H   UNL     1      -0.709  11.407   1.757  0.00  0.00    -0.086 HD
ATOM     21  H   UNL     1      -0.981  10.153   2.837  0.00  0.00    -0.086 HD
ENDBRANCH  13  14
ENDBRANCH  10  13
ENDBRANCH   6   7
BRANCH   3  22
ATOM     22  S   UNL     1       1.216  -2.442  -0.048  0.00  0.00    +0.025 S 
ATOM     23  O   UNL     1       2.378  -2.845   0.664  0.00  0.00    -0.164 OA
ATOM     24  O   UNL     1      -0.089  -2.864   0.325  0.00  0.00    -0.164 OA
BRANCH  22  25
ATOM     25  C   UNL     1       1.450  -2.946  -1.720  0.00  0.00    +0.094 A 
ATOM     26  C   UNL     1       0.355  -3.158  -2.538  0.00  0.00    +0.029 A 
ATOM     27  C   UNL     1       0.539  -3.548  -3.851  0.00  0.00    +0.034 A 
ATOM     28  C   UNL     1       1.817  -3.736  -4.344  0.00  0.00    +0.126 A 
ATOM     29  C   UNL     1       2.911  -3.528  -3.525  0.00  0.00    +0.034 A 
ATOM     30  C   UNL     1       2.727  -3.134  -2.213  0.00  0.00    +0.029 A 
BRANCH  28  31
ATOM     31  N   UNL     1       2.013  -4.158  -5.749  0.00  0.00    +0.056 N 
ATOM     32  O   UNL     1       3.139  -4.323  -6.183  0.00  0.00    -0.126 OA
ATOM     33  O   UNL     1       1.049  -4.341  -6.470  0.00  0.00    -0.126 OA
ENDBRANCH  28  31
ENDBRANCH  22  25
ENDBRANCH   3  22
TORSDOF 6
