REMARK  Name = ZINC56689227
REMARK  11 active torsions:
REMARK  status: ('A' for Active; 'I' for Inactive)
REMARK    1  A    between atoms: C_1  and  C_2
REMARK    2  A    between atoms: C_2  and  C_3
REMARK    3  A    between atoms: C_2  and  N_4
REMARK    4  A    between atoms: C_5  and  C_7
REMARK    5  A    between atoms: C_11  and  N_13
REMARK    6  A    between atoms: N_16  and  C_17
REMARK    7  A    between atoms: C_17  and  C_18
REMARK    8  A    between atoms: C_18  and  C_20
REMARK    9  A    between atoms: C_18  and  N_25
REMARK   10  A    between atoms: N_25  and  C_26
REMARK   11  A    between atoms: N_25  and  C_27
REMARK                            x       y       z     vdW  Elec       q    Type
REMARK                         _______ _______ _______ _____ _____    ______ ____
ROOT
ATOM      1  N   UNL     1       6.175  -1.943  -3.534  0.00  0.00    -0.268 N 
ATOM      2  C   UNL     1       6.894  -1.439  -2.511  0.00  0.00    +0.304 C 
ATOM      3  O   UNL     1       6.327  -0.973  -1.541  0.00  0.00    -0.253 OA
ATOM      4  N   UNL     1       8.241  -1.452  -2.562  0.00  0.00    -0.300 N 
ATOM      5  H   UNL     1       6.625  -2.377  -4.275  0.00  0.00    +0.156 HD
ATOM      6  H   UNL     1       8.693  -1.825  -3.336  0.00  0.00    +0.150 HD
ENDROOT
BRANCH   1  11
ATOM      7  C   UNL     1       2.693  -1.810  -2.327  0.00  0.00    +0.039 A 
ATOM      8  C   UNL     1       2.009  -1.631  -3.531  0.00  0.00    +0.014 A 
ATOM      9  C   UNL     1       2.708  -1.557  -4.718  0.00  0.00    +0.022 A 
ATOM     10  C   UNL     1       4.088  -1.660  -4.720  0.00  0.00    +0.062 A 
ATOM     11  C   UNL     1       4.779  -1.839  -3.526  0.00  0.00    +0.054 A 
ATOM     12  C   UNL     1       4.085  -1.908  -2.329  0.00  0.00    +0.038 A 
ATOM     13 CL   UNL     1       4.960  -1.568  -6.218  0.00  0.00    -0.082 Cl
BRANCH   7  15
ATOM     14  N   UNL     1       0.602  -1.794  -1.055  0.00  0.00    -0.309 N 
ATOM     15  C   UNL     1       1.946  -1.889  -1.055  0.00  0.00    +0.244 C 
ATOM     16  O   UNL     1       2.544  -2.040  -0.007  0.00  0.00    -0.270 OA
ATOM     17  H   UNL     1       0.125  -1.673  -1.891  0.00  0.00    +0.149 HD
BRANCH  14  19
ATOM     18  C   UNL     1      -0.188  -0.488   0.856  0.00  0.00    +0.027 C 
ATOM     19  C   UNL     1      -0.139  -1.872   0.206  0.00  0.00    +0.067 C 
ATOM     20  C   UNL     1      -1.564  -2.358  -0.068  0.00  0.00    +0.027 C 
ENDBRANCH  14  19
ENDBRANCH   7  15
ENDBRANCH   1  11
BRANCH   4  21
ATOM     21  C   UNL     1       9.022  -0.905  -1.450  0.00  0.00    +0.098 C 
BRANCH  21  22
ATOM     22  C   UNL     1      10.508  -0.929  -1.812  0.00  0.00    +0.016 C 
BRANCH  22  23
ATOM     23  C   UNL     1      10.759   0.002  -2.970  0.00  0.00    +0.093 A 
ATOM     24  C   UNL     1      11.258   1.248  -2.885  0.00  0.00    +0.043 A 
ATOM     25  C   UNL     1      11.325   1.754  -4.204  0.00  0.00    +0.041 A 
ATOM     26  C   UNL     1      10.862   0.786  -5.016  0.00  0.00    +0.195 A 
ATOM     27  O   UNL     1      10.527  -0.275  -4.264  0.00  0.00    -0.469 OA
ENDBRANCH  22  23
BRANCH  22  28
ATOM     28  N   UNL     1      10.900  -2.294  -2.186  0.00  0.00    +0.384 N 
ATOM     29  C   UNL     1      12.348  -2.339  -2.430  0.00  0.00    -0.096 C 
ATOM     30  C   UNL     1      10.558  -3.218  -1.097  0.00  0.00    -0.096 C 
ATOM     31  H   UNL     1      10.409  -2.566  -3.025  0.00  0.00    -0.082 HD
ENDBRANCH  22  28
ENDBRANCH  21  22
ENDBRANCH   4  21
TORSDOF 7
