REMARK  Name = ZINC21306754
REMARK  13 active torsions:
REMARK  status: ('A' for Active; 'I' for Inactive)
REMARK    1  A    between atoms: C_1  and  C_2
REMARK    2  A    between atoms: C_3  and  C_32
REMARK    3  A    between atoms: N_4  and  C_27
REMARK    4  A    between atoms: C_5  and  N_9
REMARK    5  A    between atoms: C_6  and  C_7
REMARK    6  A    between atoms: C_10  and  C_12
REMARK    7  A    between atoms: C_12  and  N_13
REMARK    8  A    between atoms: N_16  and  C_19
REMARK    9  A    between atoms: C_19  and  C_20
REMARK   10  A    between atoms: N_22  and  C_23
REMARK   11  A    between atoms: C_23  and  C_24
REMARK   12  A    between atoms: C_23  and  C_25
REMARK   13  A    between atoms: C_23  and  C_26
REMARK                            x       y       z     vdW  Elec       q    Type
REMARK                         _______ _______ _______ _____ _____    ______ ____
ROOT
ATOM      1  N   UNL     1      -0.782   2.398  -0.215  0.00  0.00    -0.270 N 
ATOM      2  C   UNL     1      -0.446   3.692  -0.046  0.00  0.00    +0.232 C 
ATOM      3  O   UNL     1       0.680   4.064  -0.300  0.00  0.00    -0.274 OA
ATOM      4  H   UNL     1      -1.810   2.065  -0.008  0.00  0.00    +0.156 HD
ENDROOT
BRANCH   1   9
ATOM      5  C   UNL     1       3.508  -0.196  -0.847  0.00  0.00    +0.047 C 
ATOM      6  C   UNL     1       2.087   0.293  -0.958  0.00  0.00    -0.011 A 
ATOM      7  C   UNL     1       1.126  -0.209  -1.750  0.00  0.00    +0.022 A 
ATOM      8  N   UNL     1      -0.029   0.504  -1.569  0.00  0.00    -0.329 N 
ATOM      9  C   UNL     1       0.168   1.486  -0.651  0.00  0.00    +0.124 A 
ATOM     10  C   UNL     1       1.485   1.411  -0.222  0.00  0.00    +0.095 A 
ATOM     11  C   UNL     1       1.292  -1.375  -2.690  0.00  0.00    +0.064 C 
BRANCH   8  12
ATOM     12  C   UNL     1      -1.292   0.246  -2.263  0.00  0.00    +0.089 C 
ATOM     13  C   UNL     1      -1.725   1.496  -3.056  0.00  0.00    +0.025 C 
ATOM     14  C   UNL     1      -3.267   1.524  -2.909  0.00  0.00    +0.002 C 
ATOM     15  C   UNL     1      -3.480   1.055  -1.448  0.00  0.00    +0.002 C 
ATOM     16  C   UNL     1      -2.408  -0.035  -1.241  0.00  0.00    +0.025 C 
ENDBRANCH   8  12
BRANCH  10  17
ATOM     17  C   UNL     1       2.127   2.254   0.742  0.00  0.00    +0.103 C 
ATOM     18  N   UNL     1       2.636   2.923   1.506  0.00  0.00    -0.191 NA
ENDBRANCH  10  17
ENDBRANCH   1   9
BRANCH   2  19
ATOM     19  C   UNL     1      -1.470   4.677   0.458  0.00  0.00    +0.180 C 
BRANCH  19  20
ATOM     20  N   UNL     1      -0.830   5.981   0.673  0.00  0.00    -0.298 NA
ATOM     21  C   UNL     1       0.028   5.956   1.866  0.00  0.00    +0.066 C 
ATOM     22  C   UNL     1       0.736   7.306   2.010  0.00  0.00    -0.063 C 
ATOM     23  N   UNL     1      -0.267   8.374   2.109  0.00  0.00    +0.387 N 
ATOM     24  C   UNL     1      -1.125   8.399   0.916  0.00  0.00    -0.063 C 
ATOM     25  C   UNL     1      -1.833   7.050   0.772  0.00  0.00    +0.066 C 
ATOM     26  H   UNL     1      -0.904   8.163   2.981  0.00  0.00    -0.081 HD
BRANCH  23  27
ATOM     27  C   UNL     1       0.373   9.679   2.324  0.00  0.00    +0.019 C 
BRANCH  27  28
ATOM     28  C   UNL     1       1.041   9.694   3.675  0.00  0.00    +0.197 C 
ATOM     29  O   UNL     1       0.990   8.714   4.388  0.00  0.00    -0.278 OA
ATOM     30  N   UNL     1       1.696  10.796   4.090  0.00  0.00    -0.312 N 
ATOM     31  H   UNL     1       1.743  11.684   3.444  0.00  0.00    +0.149 HD
BRANCH  30  32
ATOM     32  C   UNL     1       2.346  10.810   5.403  0.00  0.00    +0.026 C 
ATOM     33  C   UNL     1       3.405   9.707   5.460  0.00  0.00    +0.031 C 
ATOM     34  C   UNL     1       3.013  12.168   5.628  0.00  0.00    +0.031 C 
ATOM     35  C   UNL     1       1.300  10.569   6.493  0.00  0.00    +0.031 C 
ENDBRANCH  30  32
ENDBRANCH  27  28
ENDBRANCH  23  27
ENDBRANCH  19  20
ENDBRANCH   2  19
TORSDOF 8
