REMARK  Name = ZINC01249695
REMARK  4 active torsions:
REMARK  status: ('A' for Active; 'I' for Inactive)
REMARK    1  A    between atoms: C_1  and  C_2
REMARK    2  A    between atoms: C_5  and  N_8
REMARK    3  A    between atoms: C_12  and  C_17
REMARK    4  A    between atoms: C_17  and  N_48
REMARK                            x       y       z     vdW  Elec       q    Type
REMARK                         _______ _______ _______ _____ _____    ______ ____
ROOT
ATOM      1  N   UNL     1       3.599  -0.629  -0.034  0.00  0.00    -0.213 NA
ATOM      2  C   UNL     1       4.731   0.048  -0.141  0.00  0.00    +0.233 A 
ATOM      3  N   UNL     1       4.723   1.428  -0.136  0.00  0.00    -0.314 N 
ATOM      4  H   UNL     1       3.888   1.914  -0.054  0.00  0.00    +0.170 HD
ATOM      5  C   UNL     1       5.895   2.094  -0.246  0.00  0.00    +0.097 A 
ATOM      6  N   UNL     1       7.018   1.430  -0.357  0.00  0.00    -0.204 NA
ATOM      7  C   UNL     1       7.027   0.089  -0.362  0.00  0.00    +0.217 A 
ATOM      8  N   UNL     1       5.901  -0.598  -0.251  0.00  0.00    -0.179 NA
ATOM      9  N   UNL     1       8.221  -0.580  -0.479  0.00  0.00    -0.327 N 
ATOM     10  H   UNL     1       9.050  -0.083  -0.556  0.00  0.00    +0.145 HD
ATOM     11  H   UNL     1       8.235  -1.550  -0.483  0.00  0.00    +0.145 HD
ENDROOT
BRANCH   1  16
ATOM     12  C   UNL     1      -1.334   2.113  -0.007  0.00  0.00    +0.044 C 
ATOM     13  C   UNL     1      -0.018   1.377  -0.015  0.00  0.00    -0.050 A 
ATOM     14  C   UNL     1       0.593   1.047   1.183  0.00  0.00    +0.005 A 
ATOM     15  C   UNL     1       1.799   0.379   1.184  0.00  0.00    +0.028 A 
ATOM     16  C   UNL     1       2.404   0.034  -0.028  0.00  0.00    +0.068 A 
ATOM     17  C   UNL     1       1.781   0.370  -1.233  0.00  0.00    +0.028 A 
ATOM     18  C   UNL     1       0.575   1.039  -1.218  0.00  0.00    +0.005 A 
ENDBRANCH   1  16
BRANCH   5  19
ATOM     19  C   UNL     1       5.908   3.601  -0.243  0.00  0.00    -0.003 C 
BRANCH  19  29
ATOM     20  C   UNL     1       5.847   5.543   1.206  0.00  0.00    -0.073 C 
ATOM     21  C   UNL     1       5.633   5.935   2.668  0.00  0.00    +0.017 C 
ATOM     22  C   UNL     1       6.724   5.343   3.523  0.00  0.00    -0.048 A 
ATOM     23  C   UNL     1       6.918   5.857   4.797  0.00  0.00    +0.004 A 
ATOM     24  C   UNL     1       7.903   5.340   5.615  0.00  0.00    +0.000 A 
ATOM     25  C   UNL     1       8.700   4.305   5.162  0.00  0.00    +0.000 A 
ATOM     26  C   UNL     1       8.508   3.794   3.894  0.00  0.00    +0.002 A 
ATOM     27  C   UNL     1       7.520   4.313   3.070  0.00  0.00    -0.061 A 
ATOM     28  C   UNL     1       7.352   3.725   1.694  0.00  0.00    -0.042 C 
ATOM     29  N   UNL     1       6.029   4.078   1.153  0.00  0.00    +0.387 N 
ATOM     30  H   UNL     1       5.303   3.629   1.724  0.00  0.00    -0.081 HD
ENDBRANCH  19  29
ENDBRANCH   5  19
TORSDOF 3
