REMARK  Name = ZINC24770146
REMARK  13 active torsions:
REMARK  status: ('A' for Active; 'I' for Inactive)
REMARK    1  A    between atoms: C_1  and  C_2
REMARK    2  A    between atoms: C_2  and  C_3
REMARK    3  A    between atoms: C_2  and  C_4
REMARK    4  A    between atoms: C_2  and  C_5
REMARK    5  A    between atoms: C_8  and  O_11
REMARK    6  A    between atoms: O_11  and  C_12
REMARK    7  A    between atoms: C_12  and  C_13
REMARK    8  A    between atoms: C_16  and  S_19
REMARK    9  A    between atoms: N_17  and  N_18
REMARK   10  A    between atoms: S_19  and  C_20
REMARK   11  A    between atoms: C_20  and  C_21
REMARK   12  A    between atoms: N_23  and  C_24
REMARK   13  A    between atoms: C_29  and  C_30
REMARK                            x       y       z     vdW  Elec       q    Type
REMARK                         _______ _______ _______ _____ _____    ______ ____
ROOT
ATOM      1  C   UNL     1      -9.613   0.761  -0.528  0.00  0.00    +0.189 A 
ATOM      2  N   UNL     1      -8.740   1.725  -0.454  0.00  0.00    -0.128 NA
ATOM      3  N   UNL     1      -7.553   1.240  -0.365  0.00  0.00    -0.121 NA
ATOM      4  C   UNL     1      -7.605  -0.071  -0.378  0.00  0.00    +0.209 A 
ATOM      5  N   UNL     1      -8.921  -0.418  -0.488  0.00  0.00    -0.225 N 
ENDROOT
BRANCH   5   6
ATOM      6  N   UNL     1      -9.440  -1.681  -0.543  0.00  0.00    -0.295 N 
ATOM      7  H   UNL     1      -8.770  -2.553  -0.502  0.00  0.00    +0.163 HD
ATOM      8  H   UNL     1     -10.527  -1.826  -0.630  0.00  0.00    +0.163 HD
ENDBRANCH   5   6
BRANCH   1   9
ATOM      9  C   UNL     1     -11.107   0.916  -0.642  0.00  0.00    +0.306 C 
BRANCH   9  10
ATOM     10  O   UNL     1     -11.476   0.975  -2.022  0.00  0.00    -0.484 OA
BRANCH  10  14
ATOM     11  C   UNL     1     -15.490   1.400  -2.872  0.00  0.00    -0.042 A 
ATOM     12  C   UNL     1     -14.572   1.321  -3.902  0.00  0.00    +0.008 A 
ATOM     13  C   UNL     1     -13.227   1.179  -3.620  0.00  0.00    +0.046 A 
ATOM     14  C   UNL     1     -12.798   1.115  -2.302  0.00  0.00    +0.121 A 
ATOM     15  C   UNL     1     -13.723   1.189  -1.270  0.00  0.00    +0.046 A 
ATOM     16  C   UNL     1     -15.066   1.337  -1.557  0.00  0.00    +0.008 A 
BRANCH  11  18
ATOM     17  C   UNL     1     -17.432   0.361  -4.011  0.00  0.00    +0.015 C 
ATOM     18  C   UNL     1     -16.957   1.556  -3.182  0.00  0.00    -0.013 C 
ATOM     19  C   UNL     1     -17.751   1.618  -1.876  0.00  0.00    +0.015 C 
ATOM     20  C   UNL     1     -17.177   2.846  -3.974  0.00  0.00    +0.015 C 
ENDBRANCH  11  18
ENDBRANCH  10  14
ENDBRANCH   9  10
ENDBRANCH   1   9
BRANCH   4  21
ATOM     21  S   UNL     1      -6.236  -1.176  -0.279  0.00  0.00    -0.075 S 
BRANCH  21  22
ATOM     22  C   UNL     1      -4.878   0.016  -0.166  0.00  0.00    +0.173 C 
BRANCH  22  23
ATOM     23  C   UNL     1      -3.568  -0.722  -0.069  0.00  0.00    +0.227 C 
ATOM     24  O   UNL     1      -3.554  -1.935  -0.076  0.00  0.00    -0.275 OA
ATOM     25  N   UNL     1      -2.413  -0.035   0.025  0.00  0.00    -0.284 N 
ATOM     26  H   UNL     1      -2.431   1.061   0.123  0.00  0.00    +0.155 HD
BRANCH  25  27
ATOM     27  C   UNL     1      -1.190  -0.714  -0.002  0.00  0.00    +0.045 A 
ATOM     28  C   UNL     1      -1.097  -1.956  -0.618  0.00  0.00    +0.024 A 
ATOM     29  C   UNL     1       0.111  -2.624  -0.642  0.00  0.00    +0.002 A 
ATOM     30  C   UNL     1       1.228  -2.059  -0.054  0.00  0.00    +0.001 A 
ATOM     31  C   UNL     1       1.140  -0.821   0.555  0.00  0.00    +0.014 A 
ATOM     32  C   UNL     1      -0.067  -0.150   0.588  0.00  0.00    +0.076 A 
BRANCH  32  33
ATOM     33  C   UNL     1      -0.163   1.197   1.258  0.00  0.00    +0.419 C 
ATOM     34  F   UNL     1       1.088   1.552   1.773  0.00  0.00    -0.166 F 
ATOM     35  F   UNL     1      -0.571   2.155   0.323  0.00  0.00    -0.166 F 
ATOM     36  F   UNL     1      -1.096   1.135   2.299  0.00  0.00    -0.166 F 
ENDBRANCH  32  33
ENDBRANCH  25  27
ENDBRANCH  22  23
ENDBRANCH  21  22
ENDBRANCH   4  21
TORSDOF 10
