REMARK  Name = ZINC39755810
REMARK  9 active torsions:
REMARK  status: ('A' for Active; 'I' for Inactive)
REMARK    1  A    between atoms: C_1  and  C_2
REMARK    2  A    between atoms: C_2  and  O_3
REMARK    3  A    between atoms: O_3  and  C_4
REMARK    4  A    between atoms: C_4  and  C_6
REMARK    5  A    between atoms: C_7  and  N_32
REMARK    6  A    between atoms: C_21  and  C_23
REMARK    7  A    between atoms: C_26  and  O_31
REMARK    8  A    between atoms: C_27  and  O_29
REMARK    9  A    between atoms: O_29  and  C_30
REMARK                            x       y       z     vdW  Elec       q    Type
REMARK                         _______ _______ _______ _____ _____    ______ ____
ROOT
ATOM      1  C   UNL     1      -2.789  -2.393  -0.010  0.00  0.00    +0.102 C 
ATOM      2  C   UNL     1      -2.916  -3.738  -0.088  0.00  0.00    +0.194 C 
ATOM      3  O   UNL     1      -4.127  -4.342  -0.079  0.00  0.00    -0.445 OA
ATOM      4  C   UNL     1      -5.179  -3.570   0.203  0.00  0.00    +0.129 C 
ATOM      5  C   UNL     1      -6.231  -3.976   1.010  0.00  0.00    +0.035 A 
ATOM      6  C   UNL     1      -6.265  -5.269   1.573  0.00  0.00    +0.013 A 
ATOM      7  C   UNL     1      -7.319  -5.635   2.352  0.00  0.00    +0.001 A 
ATOM      8  C   UNL     1      -8.369  -4.758   2.608  0.00  0.00    +0.002 A 
ATOM      9  C   UNL     1      -8.390  -3.495   2.097  0.00  0.00    +0.024 A 
ATOM     10  C   UNL     1      -7.334  -3.047   1.286  0.00  0.00    +0.044 A 
ATOM     11  N   UNL     1      -7.350  -1.804   0.792  0.00  0.00    -0.284 N 
ATOM     12  C   UNL     1      -6.413  -1.312   0.006  0.00  0.00    +0.229 C 
ATOM     13  O   UNL     1      -6.496  -0.167  -0.400  0.00  0.00    -0.275 OA
ATOM     14  C   UNL     1      -5.233  -2.171  -0.389  0.00  0.00    +0.154 C 
ATOM     15  C   UNL     1      -3.968  -1.468   0.120  0.00  0.00    +0.080 C 
ATOM     16  H   UNL     1      -8.097  -1.230   1.025  0.00  0.00    +0.155 HD
ENDROOT
BRANCH  15  17
ATOM     17  C   UNL     1      -3.724  -0.227  -0.699  0.00  0.00    -0.035 A 
ATOM     18  C   UNL     1      -3.530  -0.328  -2.064  0.00  0.00    +0.008 A 
ATOM     19  C   UNL     1      -3.306   0.808  -2.820  0.00  0.00    +0.049 A 
ATOM     20  C   UNL     1      -3.275   2.051  -2.209  0.00  0.00    +0.158 A 
ATOM     21  C   UNL     1      -3.469   2.153  -0.835  0.00  0.00    +0.162 A 
ATOM     22  C   UNL     1      -3.699   1.011  -0.084  0.00  0.00    +0.053 A 
BRANCH  21  23
ATOM     23  O   UNL     1      -3.439   3.371  -0.231  0.00  0.00    -0.491 OA
ATOM     24  C   UNL     1      -3.647   3.400   1.182  0.00  0.00    +0.277 C 
ENDBRANCH  21  23
BRANCH  20  25
ATOM     25  O   UNL     1      -3.053   3.170  -2.951  0.00  0.00    -0.503 OA
ATOM     26  H   UNL     1      -3.859   3.579  -3.295  0.00  0.00    +0.292 HD
ENDBRANCH  20  25
ENDBRANCH  15  17
BRANCH   2  27
ATOM     27  N   UNL     1      -1.789  -4.509  -0.181  0.00  0.00    -0.329 N 
ATOM     28  H   UNL     1      -0.913  -4.100  -0.098  0.00  0.00    +0.145 HD
ATOM     29  H   UNL     1      -1.865  -5.465  -0.329  0.00  0.00    +0.145 HD
ENDBRANCH   2  27
BRANCH   1  30
ATOM     30  C   UNL     1      -1.499  -1.837  -0.044  0.00  0.00    +0.341 C 
ATOM     31  O   UNL     1      -0.984  -1.430   0.981  0.00  0.00    -0.245 OA
BRANCH  30  32
ATOM     32  O   UNL     1      -0.831  -1.753  -1.215  0.00  0.00    -0.462 OA
BRANCH  32  34
ATOM     33  C   UNL     1       1.070  -1.167  -2.586  0.00  0.00    +0.048 C 
ATOM     34  C   UNL     1       0.475  -1.176  -1.177  0.00  0.00    +0.229 C 
ENDBRANCH  32  34
ENDBRANCH  30  32
ENDBRANCH   1  30
TORSDOF 7
