REMARK  Name = ZINC09445559
REMARK  10 active torsions:
REMARK  status: ('A' for Active; 'I' for Inactive)
REMARK    1  A    between atoms: C_1  and  O_2
REMARK    2  A    between atoms: O_2  and  C_3
REMARK    3  A    between atoms: C_6  and  N_9
REMARK    4  A    between atoms: C_14  and  C_15
REMARK    5  A    between atoms: C_14  and  N_75
REMARK    6  A    between atoms: C_15  and  C_17
REMARK    7  A    between atoms: C_15  and  O_35
REMARK    8  A    between atoms: C_17  and  O_18
REMARK    9  A    between atoms: O_18  and  C_19
REMARK   10  A    between atoms: C_22  and  C_25
REMARK                            x       y       z     vdW  Elec       q    Type
REMARK                         _______ _______ _______ _____ _____    ______ ____
ROOT
ATOM      1  C   UNL     1      -0.716   1.596   1.268  0.00  0.00    +0.135 C 
ENDROOT
BRANCH   1   2
ATOM      2  O   UNL     1      -0.606   3.019   1.339  0.00  0.00    -0.390 OA
ATOM      3  H   UNL     1       0.305   3.342   1.375  0.00  0.00    +0.210 HD
ENDBRANCH   1   2
BRANCH   1   4
ATOM      4  C   UNL     1      -0.064   0.971   2.503  0.00  0.00    -0.044 C 
BRANCH   4  10
ATOM      5  N   UNL     1      -1.921   1.167   6.293  0.00  0.00    -0.333 N 
ATOM      6  C   UNL     1      -2.764   1.347   5.102  0.00  0.00    +0.086 C 
ATOM      7  C   UNL     1      -2.046   0.771   3.880  0.00  0.00    -0.060 C 
ATOM      8  C   UNL     1       0.091   1.265   4.902  0.00  0.00    -0.060 C 
ATOM      9  C   UNL     1      -0.627   1.841   6.125  0.00  0.00    +0.086 C 
ATOM     10  N   UNL     1      -0.757   1.472   3.709  0.00  0.00    +0.383 N 
ATOM     11  H   UNL     1      -0.936   2.477   3.598  0.00  0.00    -0.082 HD
BRANCH   5  15
ATOM     12  C   UNL     1      -3.872   2.512   9.722  0.00  0.00    +0.120 A 
ATOM     13  C   UNL     1      -2.594   1.981   9.815  0.00  0.00    +0.047 A 
ATOM     14  C   UNL     1      -1.947   1.535   8.679  0.00  0.00    +0.027 A 
ATOM     15  C   UNL     1      -2.576   1.618   7.444  0.00  0.00    +0.030 A 
ATOM     16  C   UNL     1      -3.854   2.155   7.351  0.00  0.00    +0.027 A 
ATOM     17  C   UNL     1      -4.502   2.594   8.489  0.00  0.00    +0.047 A 
BRANCH  12  19
ATOM     18  C   UNL     1      -5.823   3.485  10.672  0.00  0.00    +0.277 C 
ATOM     19  O   UNL     1      -4.509   2.951  10.841  0.00  0.00    -0.495 OA
ENDBRANCH  12  19
ENDBRANCH   5  15
ENDBRANCH   4  10
ENDBRANCH   1   4
BRANCH   1  20
ATOM     20  C   UNL     1      -0.008   1.092   0.008  0.00  0.00    +0.258 C 
BRANCH  20  21
ATOM     21  O   UNL     1      -0.689   1.582  -1.149  0.00  0.00    -0.489 OA
BRANCH  21  22
ATOM     22  C   UNL     1      -0.184   1.224  -2.359  0.00  0.00    +0.121 A 
ATOM     23  C   UNL     1       0.946   0.422  -2.431  0.00  0.00    +0.046 A 
ATOM     24  C   UNL     1       1.453   0.056  -3.663  0.00  0.00    +0.008 A 
ATOM     25  C   UNL     1       0.842   0.495  -4.822  0.00  0.00    -0.041 A 
ATOM     26  C   UNL     1      -0.281   1.299  -4.753  0.00  0.00    +0.008 A 
ATOM     27  C   UNL     1      -0.795   1.664  -3.524  0.00  0.00    +0.046 A 
BRANCH  25  28
ATOM     28  C   UNL     1       1.401   0.098  -6.164  0.00  0.00    -0.003 C 
ATOM     29  C   UNL     1       1.796   1.354  -6.944  0.00  0.00    +0.015 C 
ATOM     30  C   UNL     1       2.363   0.951  -8.307  0.00  0.00    -0.010 C 
ATOM     31  C   UNL     1       3.596   0.068  -8.104  0.00  0.00    +0.007 C 
ATOM     32  C   UNL     1       3.201  -1.188  -7.325  0.00  0.00    -0.010 C 
ATOM     33  C   UNL     1       2.634  -0.785  -5.962  0.00  0.00    +0.015 C 
ATOM     34  C   UNL     1       2.142  -1.964  -8.109  0.00  0.00    +0.007 C 
ATOM     35  C   UNL     1       0.909  -1.080  -8.312  0.00  0.00    -0.010 C 
ATOM     36  C   UNL     1       1.303   0.175  -9.091  0.00  0.00    +0.007 C 
ATOM     37  C   UNL     1       0.341  -0.677  -6.949  0.00  0.00    +0.015 C 
ENDBRANCH  25  28
ENDBRANCH  21  22
ENDBRANCH  20  21
ENDBRANCH   1  20
TORSDOF 9
