REMARK  Name = ZINC01005030
REMARK  12 active torsions:
REMARK  status: ('A' for Active; 'I' for Inactive)
REMARK    1  A    between atoms: C_1  and  C_2
REMARK    2  A    between atoms: C_2  and  C_3
REMARK    3  A    between atoms: C_2  and  C_4
REMARK    4  A    between atoms: C_4  and  C_5
REMARK    5  A    between atoms: C_5  and  O_7
REMARK    6  A    between atoms: O_7  and  C_8
REMARK    7  A    between atoms: C_10  and  N_78
REMARK    8  A    between atoms: C_16  and  C_19
REMARK    9  A    between atoms: C_17  and  O_18
REMARK   10  A    between atoms: C_20  and  C_21
REMARK   11  A    between atoms: C_30  and  C_31
REMARK   12  A    between atoms: C_30  and  C_32
REMARK                            x       y       z     vdW  Elec       q    Type
REMARK                         _______ _______ _______ _____ _____    ______ ____
ROOT
ATOM      1  C   UNL     1      -1.079   3.243   1.304  0.00  0.00    +0.210 C 
ATOM      2  C   UNL     1      -1.479   1.940   0.605  0.00  0.00    +0.015 C 
ATOM      3  C   UNL     1      -0.241   1.172   0.215  0.00  0.00    +0.026 A 
ATOM      4  C   UNL     1       0.997   1.787   0.145  0.00  0.00    +0.127 A 
ATOM      5  C   UNL     1       2.122   1.051  -0.231  0.00  0.00    +0.047 A 
ATOM      6  C   UNL     1       2.016  -0.286  -0.530  0.00  0.00    +0.015 A 
ATOM      7  C   UNL     1       0.768  -0.918  -0.458  0.00  0.00    +0.017 A 
ATOM      8  C   UNL     1      -0.363  -0.177  -0.083  0.00  0.00    +0.129 A 
ATOM      9  O   UNL     1       1.159   3.103   0.440  0.00  0.00    -0.482 OA
ATOM     10  C   UNL     1      -0.003   3.932   0.455  0.00  0.00    +0.140 C 
ATOM     11  C   UNL     1       0.342   5.292   1.066  0.00  0.00    +0.059 C 
ATOM     12  C   UNL     1      -0.518   4.124  -0.973  0.00  0.00    +0.059 C 
ENDROOT
BRANCH   2  18
ATOM     13  C   UNL     1      -3.566   2.825  -0.245  0.00  0.00    -0.078 C 
ATOM     14  C   UNL     1      -4.291   3.270  -1.518  0.00  0.00    -0.019 C 
ATOM     15  C   UNL     1      -4.477   2.063  -2.441  0.00  0.00    -0.004 C 
ATOM     16  C   UNL     1      -3.108   1.454  -2.755  0.00  0.00    -0.019 C 
ATOM     17  C   UNL     1      -2.417   1.062  -1.447  0.00  0.00    -0.078 C 
ATOM     18  N   UNL     1      -2.246   2.272  -0.614  0.00  0.00    +0.387 N 
ATOM     19  H   UNL     1      -1.728   2.976  -1.152  0.00  0.00    -0.081 HD
ENDBRANCH   2  18
BRANCH   8  20
ATOM     20  O   UNL     1      -1.576  -0.780  -0.011  0.00  0.00    -0.506 OA
ATOM     21  H   UNL     1      -2.020  -0.874  -0.865  0.00  0.00    +0.292 HD
ENDBRANCH   8  20
BRANCH   7  22
ATOM     22  C   UNL     1       0.645  -2.346  -0.774  0.00  0.00    +0.016 C 
ATOM     23  C   UNL     1       1.737  -3.055  -1.135  0.00  0.00    +0.068 C 
BRANCH  23  24
ATOM     24  C   UNL     1       1.618  -4.435  -1.441  0.00  0.00    +0.239 C 
ATOM     25  O   UNL     1       0.519  -4.957  -1.478  0.00  0.00    -0.271 OA
ATOM     26  N   UNL     1       2.721  -5.168  -1.690  0.00  0.00    -0.298 N 
ATOM     27  C   UNL     1       4.059  -4.583  -1.535  0.00  0.00    +0.108 C 
ATOM     28  C   UNL     1       4.882  -5.485  -0.603  0.00  0.00    +0.019 C 
ATOM     29  C   UNL     1       4.881  -6.913  -1.153  0.00  0.00    +0.003 C 
ATOM     30  C   UNL     1       3.446  -7.444  -1.195  0.00  0.00    +0.019 C 
ATOM     31  C   UNL     1       2.607  -6.566  -2.128  0.00  0.00    +0.108 C 
ENDBRANCH  23  24
ENDBRANCH   7  22
BRANCH   1  32
ATOM     32  O   UNL     1      -0.548   2.948   2.623  0.00  0.00    -0.459 OA
BRANCH  32  33
ATOM     33  C   UNL     1      -0.701   3.891   3.566  0.00  0.00    +0.308 C 
ATOM     34  O   UNL     1      -1.261   4.928   3.298  0.00  0.00    -0.251 OA
BRANCH  33  35
ATOM     35  C   UNL     1      -0.175   3.656   4.958  0.00  0.00    +0.123 C 
BRANCH  35  37
ATOM     36  C   UNL     1      -1.992   5.027   5.989  0.00  0.00    +0.008 C 
ATOM     37  C   UNL     1      -0.478   4.877   5.830  0.00  0.00    -0.007 C 
ATOM     38  C   UNL     1       0.164   4.692   7.207  0.00  0.00    +0.008 C 
ENDBRANCH  35  37
ENDBRANCH  33  35
ENDBRANCH  32  33
ENDBRANCH   1  32
TORSDOF 8
