REMARK  Name = ZINC43284558
REMARK  7 active torsions:
REMARK  status: ('A' for Active; 'I' for Inactive)
REMARK    1  A    between atoms: C_1  and  C_2
REMARK    2  A    between atoms: C_2  and  C_3
REMARK    3  A    between atoms: C_3  and  C_5
REMARK    4  A    between atoms: C_3  and  N_20
REMARK    5  A    between atoms: C_5  and  C_7
REMARK    6  A    between atoms: C_5  and  N_13
REMARK    7  A    between atoms: C_16  and  O_19
REMARK                            x       y       z     vdW  Elec       q    Type
REMARK                         _______ _______ _______ _____ _____    ______ ____
ROOT
ATOM      1  C   UNL     1       0.630  -2.023  -1.329  0.00  0.00    +0.079 C 
ENDROOT
BRANCH   1   2
ATOM      2  C   UNL     1       1.391  -2.625  -0.175  0.00  0.00    +0.006 A 
ATOM      3  C   UNL     1       2.640  -3.151  -0.159  0.00  0.00    +0.028 A 
ATOM      4  C   UNL     1       3.141  -3.652   1.029  0.00  0.00    +0.025 A 
ATOM      5  C   UNL     1       2.367  -3.603   2.141  0.00  0.00    +0.060 A 
ATOM      6  S   UNL     1       0.884  -2.823   1.525  0.00  0.00    -0.099 S 
ATOM      7 BR   UNL     1       4.878  -4.396   1.101  0.00  0.00    -0.050 Br
ENDBRANCH   1   2
BRANCH   1   8
ATOM      8  N   UNL     1      -0.777  -2.437  -1.256  0.00  0.00    -0.296 NA
ATOM      9  C   UNL     1      -1.571  -1.789  -2.307  0.00  0.00    +0.087 C 
ATOM     10  C   UNL     1      -3.051  -2.126  -2.112  0.00  0.00    +0.047 C 
ATOM     11  C   UNL     1      -3.235  -3.645  -2.171  0.00  0.00    +0.117 C 
ATOM     12  C   UNL     1      -2.361  -4.299  -1.097  0.00  0.00    +0.047 C 
ATOM     13  C   UNL     1      -0.901  -3.898  -1.322  0.00  0.00    +0.087 C 
BRANCH  11  14
ATOM     14  O   UNL     1      -4.606  -3.970  -1.933  0.00  0.00    -0.392 OA
ATOM     15  H   UNL     1      -4.796  -4.918  -1.955  0.00  0.00    +0.210 HD
ENDBRANCH  11  14
ENDBRANCH   1   8
BRANCH   1  16
ATOM     16  C   UNL     1       0.718  -0.497  -1.257  0.00  0.00    -0.053 C 
BRANCH  16  17
ATOM     17  N   UNL     1       2.129  -0.090  -1.209  0.00  0.00    +0.381 N 
ATOM     18  H   UNL     1       2.601  -0.415  -2.039  0.00  0.00    -0.090 HD
ATOM     19  H   UNL     1       2.187   0.916  -1.162  0.00  0.00    -0.090 HD
ATOM     20  H   UNL     1       2.567  -0.491  -0.394  0.00  0.00    -0.090 HD
ENDBRANCH  16  17
BRANCH  16  22
ATOM     21  C   UNL     1      -0.019   1.526   0.010  0.00  0.00    +0.002 C 
ATOM     22  C   UNL     1       0.002  -0.004   0.002  0.00  0.00    -0.018 C 
ENDBRANCH  16  22
ENDBRANCH   1  16
TORSDOF 6
