REMARK  Name = ZINC61396671
REMARK  9 active torsions:
REMARK  status: ('A' for Active; 'I' for Inactive)
REMARK    1  A    between atoms: C_1  and  C_2
REMARK    2  A    between atoms: C_2  and  N_3
REMARK    3  A    between atoms: N_3  and  C_4
REMARK    4  A    between atoms: C_4  and  C_5
REMARK    5  A    between atoms: N_7  and  C_8
REMARK    6  A    between atoms: C_8  and  C_9
REMARK    7  A    between atoms: C_8  and  C_10
REMARK    8  A    between atoms: C_11  and  C_13
REMARK    9  A    between atoms: C_14  and  C_24
REMARK                            x       y       z     vdW  Elec       q    Type
REMARK                         _______ _______ _______ _____ _____    ______ ____
ROOT
ATOM      1  N   UNL     1       0.711  -0.489   1.189  0.00  0.00    -0.289 N 
ATOM      2  C   UNL     1       2.042  -0.696   1.142  0.00  0.00    +0.251 C 
ATOM      3  O   UNL     1       2.630  -1.099   2.127  0.00  0.00    -0.270 OA
ENDROOT
BRANCH   2   4
ATOM      4  C   UNL     1       2.784  -0.433  -0.103  0.00  0.00    +0.092 A 
ATOM      5  C   UNL     1       3.373   0.734  -0.479  0.00  0.00    +0.117 A 
ATOM      6  O   UNL     1       3.952   0.580  -1.677  0.00  0.00    -0.441 OA
ATOM      7  C   UNL     1       3.781  -0.667  -2.147  0.00  0.00    +0.235 A 
ATOM      8  C   UNL     1       3.049  -1.381  -1.198  0.00  0.00    +0.116 A 
ATOM      9  C   UNL     1       2.733  -2.734  -1.446  0.00  0.00    +0.263 A 
ATOM     10  O   UNL     1       2.092  -3.386  -0.640  0.00  0.00    -0.267 OA
ATOM     11  N   UNL     1       3.162  -3.285  -2.604  0.00  0.00    -0.313 N 
ATOM     12  H   UNL     1       2.961  -4.213  -2.803  0.00  0.00    +0.170 HD
ATOM     13  C   UNL     1       3.873  -2.542  -3.488  0.00  0.00    +0.203 A 
ATOM     14  N   UNL     1       4.164  -1.290  -3.272  0.00  0.00    -0.202 NA
ATOM     15  C   UNL     1       3.374   2.007   0.328  0.00  0.00    +0.087 C 
ENDBRANCH   2   4
BRANCH   1  17
ATOM     16  C   UNL     1      -0.019   1.526   0.010  0.00  0.00    +0.024 C 
ATOM     17  C   UNL     1       0.002  -0.004   0.002  0.00  0.00    +0.105 C 
ENDBRANCH   1  17
BRANCH   1  18
ATOM     18  C   UNL     1      -0.028  -0.750   2.427  0.00  0.00    +0.203 C 
BRANCH  18  19
ATOM     19  C   UNL     1      -0.503  -2.180   2.436  0.00  0.00    +0.231 C 
ATOM     20  O   UNL     1      -0.251  -2.910   1.501  0.00  0.00    -0.274 OA
ATOM     21  N   UNL     1      -1.210  -2.649   3.484  0.00  0.00    -0.312 N 
ATOM     22  H   UNL     1      -1.412  -2.066   4.232  0.00  0.00    +0.149 HD
BRANCH  21  23
ATOM     23  C   UNL     1      -1.672  -4.039   3.493  0.00  0.00    +0.067 C 
ATOM     24  C   UNL     1      -0.559  -4.943   4.027  0.00  0.00    +0.027 C 
ATOM     25  C   UNL     1      -2.904  -4.161   4.393  0.00  0.00    +0.027 C 
ENDBRANCH  21  23
ENDBRANCH  18  19
ENDBRANCH   1  18
TORSDOF 5
