REMARK  Name = ZINC35483672
REMARK  10 active torsions:
REMARK  status: ('A' for Active; 'I' for Inactive)
REMARK    1  A    between atoms: C_1  and  C_2
REMARK    2  A    between atoms: C_2  and  O_3
REMARK    3  A    between atoms: O_3  and  C_4
REMARK    4  A    between atoms: C_7  and  C_12
REMARK    5  A    between atoms: C_9  and  O_10
REMARK    6  A    between atoms: O_10  and  C_11
REMARK    7  A    between atoms: C_14  and  C_15
REMARK    8  A    between atoms: C_15  and  C_16
REMARK    9  A    between atoms: C_17  and  C_26
REMARK   10  A    between atoms: C_22  and  C_25
REMARK                            x       y       z     vdW  Elec       q    Type
REMARK                         _______ _______ _______ _____ _____    ______ ____
ROOT
ATOM      1  C   UNL     1       0.943  -5.861  -1.662  0.00  0.00    +0.152 C 
ATOM      2  C   UNL     1       2.123  -6.633  -1.119  0.00  0.00    +0.078 C 
ATOM      3  C   UNL     1       1.619  -7.645  -0.374  0.00  0.00    +0.250 C 
ATOM      4  O   UNL     1       2.352  -8.570   0.288  0.00  0.00    -0.282 OA
ATOM      5  C   UNL     1       0.145  -7.578  -0.399  0.00  0.00    +0.293 C 
ATOM      6  O   UNL     1      -0.598  -8.350   0.176  0.00  0.00    -0.266 OA
ATOM      7  N   UNL     1      -0.256  -6.537  -1.150  0.00  0.00    -0.232 N 
ATOM      8  C   UNL     1      -1.570  -6.166  -1.398  0.00  0.00    +0.168 A 
ATOM      9  N   UNL     1      -2.014  -5.165  -2.128  0.00  0.00    -0.233 NA
ATOM     10  C   UNL     1      -3.308  -4.943  -2.267  0.00  0.00    +0.120 A 
ATOM     11  C   UNL     1      -4.151  -5.791  -1.627  0.00  0.00    +0.068 A 
ATOM     12  S   UNL     1      -2.984  -6.894  -0.846  0.00  0.00    -0.060 S 
ENDROOT
BRANCH   1  16
ATOM     13  C   UNL     1       1.059  -1.821  -0.264  0.00  0.00    +0.162 A 
ATOM     14  C   UNL     1       0.623  -2.835   0.574  0.00  0.00    +0.050 A 
ATOM     15  C   UNL     1       0.586  -4.140   0.119  0.00  0.00    +0.009 A 
ATOM     16  C   UNL     1       0.984  -4.437  -1.171  0.00  0.00    -0.018 A 
ATOM     17  C   UNL     1       1.421  -3.430  -2.012  0.00  0.00    +0.055 A 
ATOM     18  C   UNL     1       1.454  -2.119  -1.564  0.00  0.00    +0.162 A 
BRANCH  18  19
ATOM     19  O   UNL     1       1.878  -1.127  -2.392  0.00  0.00    -0.491 OA
ATOM     20  C   UNL     1       2.186  -1.493  -3.738  0.00  0.00    +0.277 C 
ENDBRANCH  18  19
BRANCH  13  21
ATOM     21  O   UNL     1       1.095  -0.537   0.182  0.00  0.00    -0.489 OA
BRANCH  21  23
ATOM     22  C   UNL     1       0.784   1.187   1.847  0.00  0.00    +0.048 C 
ATOM     23  C   UNL     1       0.675  -0.306   1.528  0.00  0.00    +0.226 C 
ENDBRANCH  21  23
ENDBRANCH  13  21
ENDBRANCH   1  16
BRANCH   2  24
ATOM     24  C   UNL     1       3.540  -6.341  -1.354  0.00  0.00    +0.215 C 
ATOM     25  O   UNL     1       3.869  -5.633  -2.288  0.00  0.00    -0.285 OA
BRANCH  24  26
ATOM     26  C   UNL     1       4.568  -6.906  -0.459  0.00  0.00    +0.133 A 
ATOM     27  C   UNL     1       5.913  -6.609  -0.480  0.00  0.00    +0.051 A 
ATOM     28  N   UNL     1       6.497  -7.345   0.506  0.00  0.00    -0.303 N 
ATOM     29  C   UNL     1       7.793  -7.446   0.932  0.00  0.00    +0.093 A 
ATOM     30  C   UNL     1       8.118  -8.265   1.952  0.00  0.00    +0.018 A 
ATOM     31  C   UNL     1       7.128  -9.029   2.595  0.00  0.00    +0.008 A 
ATOM     32  C   UNL     1       5.836  -8.939   2.183  0.00  0.00    -0.008 A 
ATOM     33  C   UNL     1       5.508  -8.078   1.113  0.00  0.00    +0.141 A 
ATOM     34  N   UNL     1       4.356  -7.798   0.526  0.00  0.00    -0.224 NA
ATOM     35  C   UNL     1       4.763  -9.751   2.863  0.00  0.00    +0.047 C 
ATOM     36  C   UNL     1       6.607  -5.653  -1.416  0.00  0.00    +0.066 C 
ENDBRANCH  24  26
ENDBRANCH   2  24
TORSDOF 6
