REMARK  Name = ZINC20758610
REMARK  7 active torsions:
REMARK  status: ('A' for Active; 'I' for Inactive)
REMARK    1  A    between atoms: C_1  and  C_2
REMARK    2  A    between atoms: N_6  and  C_24
REMARK    3  A    between atoms: C_7  and  S_13
REMARK    4  A    between atoms: S_13  and  C_14
REMARK    5  A    between atoms: C_14  and  C_15
REMARK    6  A    between atoms: N_17  and  C_18
REMARK    7  A    between atoms: C_18  and  C_19
REMARK                            x       y       z     vdW  Elec       q    Type
REMARK                         _______ _______ _______ _____ _____    ______ ____
ROOT
ATOM      1  C   UNL     1      -0.013   1.086   0.008  0.00  0.00    +0.068 C 
ATOM      2  C   UNL     1      -0.718   1.572   1.248  0.00  0.00    +0.072 A 
ATOM      3  C   UNL     1      -2.095   1.832   1.363  0.00  0.00    +0.082 A 
ATOM      4  C   UNL     1      -3.238   1.733   0.446  0.00  0.00    +0.124 A 
ATOM      5  N   UNL     1      -3.085   1.335  -0.794  0.00  0.00    -0.384 N 
ATOM      6  N   UNL     1      -4.484   2.082   0.943  0.00  0.00    -0.275 N 
ATOM      7  C   UNL     1      -4.603   2.493   2.243  0.00  0.00    +0.177 A 
ATOM      8  N   UNL     1      -3.579   2.574   3.057  0.00  0.00    -0.204 NA
ATOM      9  C   UNL     1      -2.332   2.260   2.676  0.00  0.00    +0.162 A 
ATOM     10  N   UNL     1      -1.127   2.258   3.308  0.00  0.00    -0.260 N 
ATOM     11  H   UNL     1      -1.058   2.565   4.362  0.00  0.00    +0.191 HD
ATOM     12  N   UNL     1      -0.154   1.828   2.397  0.00  0.00    -0.177 NA
ATOM     13  H   UNL     1      -3.957   1.269  -1.462  0.00  0.00    +0.157 HD
ATOM     14  H   UNL     1      -2.086   1.067  -1.167  0.00  0.00    +0.157 HD
ENDROOT
BRANCH   6  15
ATOM     15  C   UNL     1      -5.615   2.015   0.119  0.00  0.00    +0.050 A 
ATOM     16  C   UNL     1      -6.048   0.789  -0.369  0.00  0.00    +0.027 A 
ATOM     17  C   UNL     1      -7.167   0.725  -1.176  0.00  0.00    +0.017 A 
ATOM     18  C   UNL     1      -7.849   1.882  -1.509  0.00  0.00    +0.018 A 
ATOM     19  C   UNL     1      -7.417   3.105  -1.028  0.00  0.00    +0.017 A 
ATOM     20  C   UNL     1      -6.302   3.174  -0.216  0.00  0.00    +0.027 A 
ATOM     21 BR   UNL     1      -9.376   1.791  -2.621  0.00  0.00    -0.050 Br
ENDBRANCH   6  15
BRANCH   7  22
ATOM     22  S   UNL     1      -6.199   2.930   2.847  0.00  0.00    -0.078 S 
BRANCH  22  23
ATOM     23  C   UNL     1      -5.779   3.377   4.550  0.00  0.00    +0.173 C 
BRANCH  23  24
ATOM     24  C   UNL     1      -7.028   3.797   5.282  0.00  0.00    +0.224 C 
ATOM     25  O   UNL     1      -8.096   3.795   4.708  0.00  0.00    -0.275 OA
ATOM     26  N   UNL     1      -6.957   4.175   6.573  0.00  0.00    -0.308 N 
ATOM     27  H   UNL     1      -5.987   4.177   7.093  0.00  0.00    +0.149 HD
BRANCH  26  28
ATOM     28  C   UNL     1      -8.171   4.584   7.285  0.00  0.00    +0.178 C 
BRANCH  28  29
ATOM     29  C   UNL     1      -7.821   4.955   8.703  0.00  0.00    +0.122 A 
ATOM     30  C   UNL     1      -7.473   6.182   9.132  0.00  0.00    +0.046 A 
ATOM     31  C   UNL     1      -7.232   6.077  10.521  0.00  0.00    +0.041 A 
ATOM     32  C   UNL     1      -7.447   4.793  10.858  0.00  0.00    +0.195 A 
ATOM     33  O   UNL     1      -7.809   4.119   9.754  0.00  0.00    -0.466 OA
ENDBRANCH  28  29
ENDBRANCH  26  28
ENDBRANCH  23  24
ENDBRANCH  22  23
ENDBRANCH   7  22
TORSDOF 6
