REMARK  Name = ZINC67086011
REMARK  10 active torsions:
REMARK  status: ('A' for Active; 'I' for Inactive)
REMARK    1  A    between atoms: C_1  and  N_2
REMARK    2  A    between atoms: N_2  and  C_3
REMARK    3  A    between atoms: N_2  and  C_4
REMARK    4  A    between atoms: C_4  and  C_5
REMARK    5  A    between atoms: C_5  and  N_6
REMARK    6  A    between atoms: C_7  and  C_9
REMARK    7  A    between atoms: C_13  and  C_15
REMARK    8  A    between atoms: C_15  and  N_16
REMARK    9  A    between atoms: N_19  and  C_20
REMARK   10  A    between atoms: C_20  and  C_21
REMARK                            x       y       z     vdW  Elec       q    Type
REMARK                         _______ _______ _______ _____ _____    ______ ____
ROOT
ATOM      1  C   UNL     1       0.845  -0.852   6.060  0.00  0.00    +0.037 A 
ATOM      2  C   UNL     1       2.049  -1.544   5.923  0.00  0.00    +0.013 A 
ATOM      3  C   UNL     1       2.711  -1.998   7.045  0.00  0.00    +0.001 A 
ATOM      4  C   UNL     1       2.184  -1.769   8.304  0.00  0.00    +0.005 A 
ATOM      5  C   UNL     1       0.991  -1.083   8.446  0.00  0.00    -0.030 A 
ATOM      6  C   UNL     1       0.322  -0.619   7.333  0.00  0.00    +0.018 A 
ENDROOT
BRANCH   1   8
ATOM      7  N   UNL     1       0.637  -0.589   3.635  0.00  0.00    -0.313 N 
ATOM      8  C   UNL     1       0.130  -0.362   4.862  0.00  0.00    +0.244 C 
ATOM      9  O   UNL     1      -0.916   0.245   4.985  0.00  0.00    -0.270 OA
ATOM     10  H   UNL     1       1.472  -1.073   3.537  0.00  0.00    +0.149 HD
BRANCH   7  11
ATOM     11  C   UNL     1      -0.071  -0.103   2.448  0.00  0.00    +0.086 C 
BRANCH  11  12
ATOM     12  C   UNL     1       0.713  -0.491   1.192  0.00  0.00    -0.061 C 
BRANCH  12  14
ATOM     13  C   UNL     1      -0.018   1.465   0.010  0.00  0.00    -0.097 C 
ATOM     14  N   UNL     1       0.002  -0.004   0.002  0.00  0.00    +0.377 N 
ATOM     15  C   UNL     1       0.690  -0.478  -1.207  0.00  0.00    -0.097 C 
ATOM     16  H   UNL     1      -0.945  -0.353   0.009  0.00  0.00    -0.083 HD
ENDBRANCH  12  14
ENDBRANCH  11  12
ENDBRANCH   7  11
ENDBRANCH   1   8
BRANCH   5  17
ATOM     17  C   UNL     1       0.425  -0.838   9.821  0.00  0.00    +0.141 C 
BRANCH  17  18
ATOM     18  N   UNL     1       0.935   0.433  10.340  0.00  0.00    -0.295 N 
ATOM     19  C   UNL     1       0.560   0.862  11.562  0.00  0.00    +0.300 C 
ATOM     20  O   UNL     1      -0.201   0.192  12.233  0.00  0.00    -0.253 OA
ATOM     21  N   UNL     1       1.030   2.031  12.040  0.00  0.00    -0.295 N 
ATOM     22  H   UNL     1       1.542   0.967   9.804  0.00  0.00    +0.151 HD
ATOM     23  H   UNL     1       1.637   2.565  11.504  0.00  0.00    +0.151 HD
BRANCH  21  24
ATOM     24  C   UNL     1       0.623   2.496  13.368  0.00  0.00    +0.142 C 
BRANCH  24  25
ATOM     25  C   UNL     1       1.283   3.819  13.661  0.00  0.00    -0.012 A 
ATOM     26  C   UNL     1       2.413   3.867  14.455  0.00  0.00    +0.006 A 
ATOM     27  C   UNL     1       3.019   5.080  14.724  0.00  0.00    +0.000 A 
ATOM     28  C   UNL     1       2.494   6.246  14.199  0.00  0.00    +0.001 A 
ATOM     29  C   UNL     1       1.364   6.200  13.405  0.00  0.00    +0.020 A 
ATOM     30  C   UNL     1       0.761   4.985  13.130  0.00  0.00    +0.046 A 
ATOM     31 CL   UNL     1      -0.655   4.925  12.127  0.00  0.00    -0.083 Cl
ENDBRANCH  24  25
ENDBRANCH  21  24
ENDBRANCH  17  18
ENDBRANCH   5  17
TORSDOF 8
