REMARK  Name = ZINC67518731
REMARK  2 active torsions:
REMARK  status: ('A' for Active; 'I' for Inactive)
REMARK    1  A    between atoms: C_1  and  C_2
REMARK    2  A    between atoms: C_15  and  C_17
REMARK                            x       y       z     vdW  Elec       q    Type
REMARK                         _______ _______ _______ _____ _____    ______ ____
ROOT
ATOM      1  C   UNL     1       0.566   1.903   1.107  0.00  0.00    +0.007 C 
ATOM      2  C   UNL     1       0.528   0.413   0.761  0.00  0.00    -0.014 C 
ATOM      3  C   UNL     1      -0.912  -0.003   0.454  0.00  0.00    +0.005 C 
ATOM      4  C   UNL     1      -0.940  -1.490   0.094  0.00  0.00    +0.023 C 
ATOM      5  C   UNL     1      -0.406  -2.317   1.260  0.00  0.00    +0.079 C 
ATOM      6  C   UNL     1       1.018  -1.880   1.614  0.00  0.00    +0.010 C 
ATOM      7  C   UNL     1       1.047  -0.399   1.948  0.00  0.00    +0.008 C 
ATOM      8  C   UNL     1       1.487  -2.678   2.837  0.00  0.00    +0.007 C 
ATOM      9  C   UNL     1       0.579  -2.358   4.027  0.00  0.00    +0.019 C 
ATOM     10  C   UNL     1      -0.858  -2.776   3.701  0.00  0.00    +0.108 C 
ATOM     11  N   UNL     1      -1.255  -2.130   2.442  0.00  0.00    -0.298 N 
ATOM     12  C   UNL     1      -2.383  -1.395   2.373  0.00  0.00    +0.219 C 
ATOM     13  O   UNL     1      -2.752  -0.950   1.306  0.00  0.00    -0.275 OA
ENDROOT
BRANCH  12  14
ATOM     14  C   UNL     1      -3.185  -1.125   3.620  0.00  0.00    +0.078 C 
ATOM     15  C   UNL     1      -2.392  -0.199   4.545  0.00  0.00    +0.032 C 
ATOM     16  C   UNL     1      -3.195   0.045   5.827  0.00  0.00    +0.110 C 
ATOM     17  N   UNL     1      -4.526   0.551   5.461  0.00  0.00    -0.285 N 
ATOM     18  C   UNL     1      -5.336  -0.216   4.506  0.00  0.00    +0.110 C 
ATOM     19  C   UNL     1      -4.509  -0.458   3.240  0.00  0.00    +0.032 C 
ATOM     20  C   UNL     1      -4.994   1.698   5.993  0.00  0.00    +0.305 C 
ATOM     21  O   UNL     1      -6.154   2.019   5.821  0.00  0.00    -0.252 OA
ATOM     22  N   UNL     1      -4.176   2.489   6.715  0.00  0.00    -0.285 N 
ATOM     23  C   UNL     1      -2.798   2.163   7.112  0.00  0.00    +0.109 C 
ATOM     24  C   UNL     1      -2.268   3.349   7.944  0.00  0.00    +0.020 C 
ATOM     25  C   UNL     1      -3.568   4.030   8.447  0.00  0.00    +0.020 C 
ATOM     26  C   UNL     1      -4.512   3.828   7.233  0.00  0.00    +0.109 C 
ENDBRANCH  12  14
TORSDOF 1
