REMARK  Name = ZINC22928351
REMARK  9 active torsions:
REMARK  status: ('A' for Active; 'I' for Inactive)
REMARK    1  A    between atoms: C_1  and  C_2
REMARK    2  A    between atoms: C_5  and  C_30
REMARK    3  A    between atoms: C_6  and  N_8
REMARK    4  A    between atoms: N_10  and  C_11
REMARK    5  A    between atoms: C_11  and  C_13
REMARK    6  A    between atoms: C_11  and  C_14
REMARK    7  A    between atoms: C_14  and  C_16
REMARK    8  A    between atoms: C_14  and  N_22
REMARK    9  A    between atoms: N_25  and  C_28
REMARK                            x       y       z     vdW  Elec       q    Type
REMARK                         _______ _______ _______ _____ _____    ______ ____
ROOT
ATOM      1  C   UNL     1      -0.187  -2.201   5.769  0.00  0.00    +0.099 C 
ATOM      2  C   UNL     1      -0.366  -2.761   4.356  0.00  0.00    +0.032 C 
ENDROOT
BRANCH   1   5
ATOM      3  N   UNL     1      -1.154   1.379   5.637  0.00  0.00    -0.295 N 
ATOM      4  C   UNL     1      -0.429   0.226   5.508  0.00  0.00    +0.143 C 
ATOM      5  N   UNL     1      -0.964  -0.967   5.907  0.00  0.00    -0.363 N 
ATOM      6  S   UNL     1       1.102   0.275   4.867  0.00  0.00    -0.016 SA
ATOM      7  H   UNL     1      -1.909   1.411   6.244  0.00  0.00    +0.154 HD
ATOM      8  H   UNL     1      -1.859  -0.995   6.281  0.00  0.00    +0.162 HD
BRANCH   3  14
ATOM      9  C   UNL     1       0.365   3.354   1.399  0.00  0.00    +0.044 C 
ATOM     10  C   UNL     1      -0.066   3.497   2.836  0.00  0.00    -0.049 A 
ATOM     11  C   UNL     1      -0.117   4.750   3.420  0.00  0.00    +0.004 A 
ATOM     12  C   UNL     1      -0.512   4.886   4.738  0.00  0.00    +0.005 A 
ATOM     13  C   UNL     1      -0.857   3.770   5.476  0.00  0.00    -0.029 A 
ATOM     14  C   UNL     1      -0.806   2.511   4.892  0.00  0.00    +0.036 A 
ATOM     15  C   UNL     1      -0.414   2.378   3.566  0.00  0.00    +0.027 A 
ATOM     16  C   UNL     1      -1.286   3.919   6.912  0.00  0.00    +0.045 C 
ENDBRANCH   3  14
ENDBRANCH   1   5
BRANCH   1  17
ATOM     17  C   UNL     1      -0.678  -3.229   6.791  0.00  0.00    +0.109 C 
BRANCH  17  18
ATOM     18  N   UNL     1      -0.566  -2.667   8.143  0.00  0.00    -0.297 NA
ATOM     19  C   UNL     1       0.810  -2.228   8.419  0.00  0.00    +0.066 C 
ATOM     20  C   UNL     1       0.872  -1.597   9.811  0.00  0.00    -0.064 C 
ATOM     21  N   UNL     1       0.442  -2.580  10.815  0.00  0.00    +0.379 N 
ATOM     22  C   UNL     1      -0.941  -2.990  10.540  0.00  0.00    -0.064 C 
ATOM     23  C   UNL     1      -1.018  -3.633   9.154  0.00  0.00    +0.066 C 
ATOM     24  C   UNL     1       0.519  -1.978  12.153  0.00  0.00    -0.096 C 
ATOM     25  H   UNL     1       1.046  -3.387  10.774  0.00  0.00    -0.082 HD
ENDBRANCH  17  18
BRANCH  17  26
ATOM     26  C   UNL     1      -2.118  -3.571   6.507  0.00  0.00    -0.028 A 
ATOM     27  C   UNL     1      -3.125  -2.721   6.923  0.00  0.00    +0.005 A 
ATOM     28  C   UNL     1      -4.446  -3.035   6.662  0.00  0.00    +0.000 A 
ATOM     29  C   UNL     1      -4.759  -4.200   5.986  0.00  0.00    +0.000 A 
ATOM     30  C   UNL     1      -3.752  -5.050   5.570  0.00  0.00    +0.000 A 
ATOM     31  C   UNL     1      -2.431  -4.733   5.827  0.00  0.00    +0.005 A 
ENDBRANCH  17  26
ENDBRANCH   1  17
TORSDOF 5
