REMARK  Name = ZINC46694673
REMARK  13 active torsions:
REMARK  status: ('A' for Active; 'I' for Inactive)
REMARK    1  A    between atoms: C_1  and  C_2
REMARK    2  A    between atoms: C_2  and  C_3
REMARK    3  A    between atoms: N_5  and  C_6
REMARK    4  A    between atoms: C_9  and  C_12
REMARK    5  A    between atoms: C_12  and  C_14
REMARK    6  A    between atoms: C_12  and  N_15
REMARK    7  A    between atoms: N_18  and  C_19
REMARK    8  A    between atoms: C_24  and  C_25
REMARK    9  A    between atoms: C_25  and  N_26
REMARK   10  A    between atoms: N_26  and  C_27
REMARK   11  A    between atoms: N_26  and  C_29
REMARK   12  A    between atoms: C_27  and  C_28
REMARK   13  A    between atoms: C_29  and  C_30
REMARK                            x       y       z     vdW  Elec       q    Type
REMARK                         _______ _______ _______ _____ _____    ______ ____
ROOT
ATOM      1  N   UNL     1       5.187  -4.445  -6.347  0.00  0.00    -0.293 N 
ATOM      2  C   UNL     1       6.371  -4.820  -6.869  0.00  0.00    +0.304 C 
ATOM      3  O   UNL     1       6.867  -4.179  -7.776  0.00  0.00    -0.252 OA
ATOM      4  N   UNL     1       7.006  -5.907  -6.387  0.00  0.00    -0.269 N 
ATOM      5  H   UNL     1       4.792  -4.956  -5.624  0.00  0.00    +0.151 HD
ATOM      6  H   UNL     1       6.579  -6.460  -5.714  0.00  0.00    +0.156 HD
ENDROOT
BRANCH   4   7
ATOM      7  C   UNL     1       8.282  -6.238  -6.857  0.00  0.00    +0.036 A 
ATOM      8  C   UNL     1       8.624  -5.984  -8.179  0.00  0.00    +0.023 A 
ATOM      9  C   UNL     1       9.884  -6.311  -8.640  0.00  0.00    +0.002 A 
ATOM     10  C   UNL     1      10.805  -6.891  -7.786  0.00  0.00    +0.000 A 
ATOM     11  C   UNL     1      10.467  -7.146  -6.470  0.00  0.00    +0.003 A 
ATOM     12  C   UNL     1       9.211  -6.816  -6.002  0.00  0.00    -0.043 A 
BRANCH  12  13
ATOM     13  C   UNL     1       8.845  -7.088  -4.565  0.00  0.00    -0.041 C 
BRANCH  13  14
ATOM     14  N   UNL     1       8.058  -8.325  -4.486  0.00  0.00    +0.382 N 
ATOM     15  H   UNL     1       7.259  -8.255  -5.098  0.00  0.00    -0.081 HD
BRANCH  14  16
ATOM     16  C   UNL     1       8.891  -9.463  -4.897  0.00  0.00    -0.082 C 
ATOM     17  C   UNL     1       8.032 -10.727  -4.961  0.00  0.00    -0.017 C 
ENDBRANCH  14  16
BRANCH  14  18
ATOM     18  C   UNL     1       7.601  -8.527  -3.104  0.00  0.00    -0.082 C 
ATOM     19  C   UNL     1       6.617  -7.418  -2.726  0.00  0.00    -0.017 C 
ENDBRANCH  14  18
ENDBRANCH  13  14
ENDBRANCH  12  13
ENDBRANCH   4   7
BRANCH   1  20
ATOM     20  C   UNL     1       4.497  -3.264  -6.871  0.00  0.00    +0.102 C 
ATOM     21  C   UNL     1       3.666  -3.659  -8.093  0.00  0.00    +0.033 C 
BRANCH  20  25
ATOM     22  C   UNL     1       1.925  -1.662  -3.857  0.00  0.00    +0.033 A 
ATOM     23  C   UNL     1       2.655  -0.809  -4.673  0.00  0.00    +0.023 A 
ATOM     24  C   UNL     1       3.485  -1.329  -5.646  0.00  0.00    +0.007 A 
ATOM     25  C   UNL     1       3.590  -2.699  -5.808  0.00  0.00    -0.027 A 
ATOM     26  C   UNL     1       2.864  -3.551  -4.997  0.00  0.00    +0.007 A 
ATOM     27  C   UNL     1       2.036  -3.037  -4.018  0.00  0.00    +0.023 A 
BRANCH  22  30
ATOM     28  C   UNL     1       0.944  -1.779  -1.692  0.00  0.00    +0.217 C 
ATOM     29  O   UNL     1       1.476  -2.855  -1.521  0.00  0.00    -0.275 OA
ATOM     30  N   UNL     1       1.083  -1.138  -2.870  0.00  0.00    -0.286 N 
ATOM     31  H   UNL     1       0.599  -0.313  -3.033  0.00  0.00    +0.155 HD
BRANCH  28  33
ATOM     32  C   UNL     1       0.131  -2.083   0.631  0.00  0.00    +0.013 C 
ATOM     33  C   UNL     1       0.127  -1.158  -0.588  0.00  0.00    +0.093 C 
ENDBRANCH  28  33
ENDBRANCH  22  30
ENDBRANCH  20  25
ENDBRANCH   1  20
TORSDOF 9
