REMARK  Name = ZINC37054688
REMARK  8 active torsions:
REMARK  status: ('A' for Active; 'I' for Inactive)
REMARK    1  A    between atoms: C_1  and  N_2
REMARK    2  A    between atoms: N_2  and  C_3
REMARK    3  A    between atoms: N_2  and  C_4
REMARK    4  A    between atoms: C_4  and  C_5
REMARK    5  A    between atoms: C_5  and  N_6
REMARK    6  A    between atoms: N_6  and  S_7
REMARK    7  A    between atoms: S_7  and  C_10
REMARK    8  A    between atoms: C_11  and  N_18
REMARK                            x       y       z     vdW  Elec       q    Type
REMARK                         _______ _______ _______ _____ _____    ______ ____
ROOT
ATOM      1  S   UNL     1      -3.296  -4.912  -0.997  0.00  0.00    +0.061 S 
ATOM      2  O   UNL     1      -4.605  -5.454  -0.880  0.00  0.00    -0.153 OA
ATOM      3  O   UNL     1      -2.494  -5.101  -2.154  0.00  0.00    -0.153 OA
ENDROOT
BRANCH   1   4
ATOM      4  C   UNL     1      -2.369  -5.537   0.366  0.00  0.00    +0.140 A 
ATOM      5  C   UNL     1      -0.990  -5.669   0.267  0.00  0.00    +0.053 A 
ATOM      6  C   UNL     1      -0.263  -6.161   1.343  0.00  0.00    +0.040 A 
ATOM      7  C   UNL     1      -0.913  -6.519   2.509  0.00  0.00    +0.021 A 
ATOM      8  C   UNL     1      -2.287  -6.388   2.604  0.00  0.00    +0.032 A 
ATOM      9  C   UNL     1      -3.014  -5.892   1.536  0.00  0.00    +0.047 A 
ATOM     10 BR   UNL     1      -4.890  -5.706   1.675  0.00  0.00    -0.048 Br
ATOM     11 BR   UNL     1       0.076  -7.190   3.974  0.00  0.00    -0.050 Br
BRANCH   5  12
ATOM     12  N   UNL     1      -0.336  -5.307  -0.913  0.00  0.00    -0.356 N 
ATOM     13  H   UNL     1      -0.736  -4.655  -1.509  0.00  0.00    +0.142 HD
ATOM     14  H   UNL     1       0.519  -5.707  -1.136  0.00  0.00    +0.142 HD
ENDBRANCH   5  12
ENDBRANCH   1   4
BRANCH   1  15
ATOM     15  N   UNL     1      -3.440  -3.277  -0.782  0.00  0.00    -0.192 NA
ATOM     16  H   UNL     1      -4.313  -2.882  -0.631  0.00  0.00    +0.148 HD
BRANCH  15  17
ATOM     17  C   UNL     1      -2.248  -2.425  -0.819  0.00  0.00    +0.087 C 
BRANCH  17  18
ATOM     18  C   UNL     1      -2.671  -0.963  -0.971  0.00  0.00    -0.063 C 
BRANCH  18  20
ATOM     19  C   UNL     1      -1.875   1.280  -1.274  0.00  0.00    -0.097 C 
ATOM     20  N   UNL     1      -1.476  -0.109  -1.009  0.00  0.00    +0.377 N 
ATOM     21  C   UNL     1      -0.782  -0.181   0.284  0.00  0.00    -0.097 C 
ATOM     22  H   UNL     1      -0.858  -0.427  -1.740  0.00  0.00    -0.083 HD
ENDBRANCH  18  20
ENDBRANCH  17  18
ENDBRANCH  15  17
ENDBRANCH   1  15
TORSDOF 6
