REMARK  Name = ZINC08299583
REMARK  6 active torsions:
REMARK  status: ('A' for Active; 'I' for Inactive)
REMARK    1  A    between atoms: C_1  and  C_2
REMARK    2  A    between atoms: C_2  and  C_4
REMARK    3  A    between atoms: C_7  and  N_10
REMARK    4  A    between atoms: C_17  and  C_20
REMARK    5  A    between atoms: N_22  and  C_23
REMARK    6  A    between atoms: C_31  and  C_33
REMARK                            x       y       z     vdW  Elec       q    Type
REMARK                         _______ _______ _______ _____ _____    ______ ____
ROOT
ATOM      1  N   UNL     1      -2.381   3.566   0.194  0.00  0.00    -0.269 N 
ATOM      2  C   UNL     1      -3.490   2.800   0.192  0.00  0.00    +0.307 C 
ATOM      3  O   UNL     1      -3.392   1.589   0.151  0.00  0.00    -0.252 OA
ATOM      4  N   UNL     1      -4.707   3.377   0.235  0.00  0.00    -0.282 N 
ATOM      5  C   UNL     1      -4.846   4.838   0.169  0.00  0.00    +0.128 C 
ATOM      6  C   UNL     1      -5.645   5.311   1.389  0.00  0.00    +0.127 C 
ATOM      7  N   UNL     1      -6.859   4.489   1.502  0.00  0.00    -0.288 N 
ATOM      8  C   UNL     1      -6.720   3.027   1.568  0.00  0.00    +0.179 C 
ATOM      9  C   UNL     1      -5.921   2.555   0.342  0.00  0.00    +0.141 C 
ATOM     10  C   UNL     1      -8.076   5.065   1.545  0.00  0.00    +0.203 C 
ATOM     11  O   UNL     1      -9.053   4.399   1.813  0.00  0.00    -0.277 OA
ATOM     12  H   UNL     1      -2.459   4.532   0.141  0.00  0.00    +0.156 HD
ENDROOT
BRANCH  10  13
ATOM     13  C   UNL     1      -8.223   6.538   1.260  0.00  0.00    +0.027 C 
ATOM     14  C   UNL     1      -7.682   7.330   2.475  0.00  0.00    +0.060 C 
ATOM     15  S   UNL     1      -8.899   8.721   2.520  0.00  0.00    -0.181 S 
ATOM     16  C   UNL     1     -10.321   7.776   1.815  0.00  0.00    -0.011 C 
ATOM     17  N   UNL     1      -9.640   6.787   0.899  0.00  0.00    +0.393 N 
ATOM     18  H   UNL     1     -10.150   5.897   0.943  0.00  0.00    -0.084 HD
ATOM     19  H   UNL     1      -9.673   7.154  -0.060  0.00  0.00    -0.084 HD
ENDBRANCH  10  13
BRANCH   1  23
ATOM     20  C   UNL     1       1.369   1.793   0.427  0.00  0.00    +0.017 A 
ATOM     21  C   UNL     1       0.292   1.088  -0.125  0.00  0.00    +0.013 A 
ATOM     22  C   UNL     1      -0.938   1.677  -0.204  0.00  0.00    +0.024 A 
ATOM     23  C   UNL     1      -1.124   2.972   0.272  0.00  0.00    +0.035 A 
ATOM     24  C   UNL     1      -0.056   3.676   0.822  0.00  0.00    +0.024 A 
ATOM     25  C   UNL     1       1.179   3.097   0.901  0.00  0.00    +0.013 A 
BRANCH  20  27
ATOM     26  C   UNL     1       3.880   1.969   0.980  0.00  0.00    +0.091 C 
ATOM     27  C   UNL     1       2.695   1.166   0.509  0.00  0.00    +0.160 C 
ATOM     28  O   UNL     1       2.836   0.002   0.197  0.00  0.00    -0.292 OA
ENDBRANCH  20  27
ENDBRANCH   1  23
BRANCH   8  29
ATOM     29  C   UNL     1      -8.085   2.389   1.556  0.00  0.00    +0.236 C 
ATOM     30  O   UNL     1      -8.450   1.720   2.499  0.00  0.00    -0.274 OA
ATOM     31  N   UNL     1      -8.901   2.562   0.497  0.00  0.00    -0.302 N 
ATOM     32  H   UNL     1      -8.609   3.097  -0.257  0.00  0.00    +0.150 HD
BRANCH  31  33
ATOM     33  C   UNL     1     -10.228   1.942   0.485  0.00  0.00    +0.159 C 
ATOM     34  C   UNL     1     -11.157   2.745  -0.429  0.00  0.00    +0.033 C 
ATOM     35  C   UNL     1     -12.442   1.936  -0.645  0.00  0.00    +0.021 C 
ATOM     36  C   UNL     1     -12.104   0.689  -1.463  0.00  0.00    +0.104 C 
ATOM     37  N   UNL     1     -10.976  -0.019  -0.871  0.00  0.00    -0.314 N 
ATOM     38  C   UNL     1     -10.114   0.530  -0.014  0.00  0.00    +0.233 C 
ATOM     39  O   UNL     1      -9.189  -0.146   0.382  0.00  0.00    -0.274 OA
ATOM     40  H   UNL     1     -10.844  -0.949  -1.115  0.00  0.00    +0.149 HD
ENDBRANCH  31  33
ENDBRANCH   8  29
TORSDOF 5
