REMARK  Name = ZINC15675192
REMARK  12 active torsions:
REMARK  status: ('A' for Active; 'I' for Inactive)
REMARK    1  A    between atoms: C_1  and  O_2
REMARK    2  A    between atoms: O_2  and  C_3
REMARK    3  A    between atoms: C_3  and  C_4
REMARK    4  A    between atoms: C_4  and  N_5
REMARK    5  A    between atoms: C_6  and  C_8
REMARK    6  A    between atoms: C_8  and  C_9
REMARK    7  A    between atoms: C_11  and  O_27
REMARK    8  A    between atoms: C_13  and  O_26
REMARK    9  A    between atoms: C_15  and  C_18
REMARK   10  A    between atoms: C_18  and  N_48
REMARK   11  A    between atoms: C_19  and  C_20
REMARK   12  A    between atoms: C_19  and  N_48
REMARK                            x       y       z     vdW  Elec       q    Type
REMARK                         _______ _______ _______ _____ _____    ______ ____
ROOT
ATOM      1  C   UNL     1      -1.208  -1.871  -0.641  0.00  0.00    +0.158 C 
ATOM      2  C   UNL     1       0.119  -1.944  -1.421  0.00  0.00    +0.174 C 
ATOM      3  C   UNL     1       0.734  -0.533  -1.258  0.00  0.00    +0.172 C 
ATOM      4  C   UNL     1       0.002  -0.004   0.002  0.00  0.00    +0.133 C 
ATOM      5  O   UNL     1      -1.335  -0.530  -0.140  0.00  0.00    -0.369 OA
ENDROOT
BRANCH   3   6
ATOM      6  O   UNL     1       2.143  -0.614  -1.032  0.00  0.00    -0.387 OA
ATOM      7  H   UNL     1       2.645  -0.940  -1.792  0.00  0.00    +0.210 HD
ENDBRANCH   3   6
BRANCH   2   8
ATOM      8  O   UNL     1       0.980  -2.934  -0.853  0.00  0.00    -0.387 OA
ATOM      9  H   UNL     1       1.830  -3.022  -1.305  0.00  0.00    +0.210 HD
ENDBRANCH   2   8
BRANCH   1  10
ATOM     10  C   UNL     1      -2.378  -2.191  -1.574  0.00  0.00    +0.130 C 
BRANCH  10  12
ATOM     11  N   UNL     1      -4.827  -2.485  -1.397  0.00  0.00    -0.313 N 
ATOM     12  C   UNL     1      -3.659  -2.221  -0.780  0.00  0.00    +0.216 C 
ATOM     13  O   UNL     1      -3.638  -2.006   0.413  0.00  0.00    -0.276 OA
ATOM     14  H   UNL     1      -4.844  -2.656  -2.352  0.00  0.00    +0.149 HD
BRANCH  11  15
ATOM     15  C   UNL     1      -6.073  -2.513  -0.626  0.00  0.00    +0.132 C 
BRANCH  15  16
ATOM     16  C   UNL     1      -7.243  -2.834  -1.558  0.00  0.00    +0.178 C 
BRANCH  16  18
ATOM     17  C   UNL     1      -8.136  -4.557  -2.965  0.00  0.00    +0.194 C 
ATOM     18  O   UNL     1      -7.090  -4.156  -2.078  0.00  0.00    -0.381 OA
ENDBRANCH  16  18
ENDBRANCH  15  16
ENDBRANCH  11  15
ENDBRANCH  10  12
ENDBRANCH   1  10
BRANCH   4  19
ATOM     19  C   UNL     1      -0.019   1.526   0.010  0.00  0.00    -0.047 C 
BRANCH  19  20
ATOM     20  N   UNL     1      -0.711   1.993   1.226  0.00  0.00    +0.384 N 
ATOM     21  H   UNL     1      -0.212   1.647   2.054  0.00  0.00    -0.085 HD
ATOM     22  H   UNL     1      -1.671   1.631   1.230  0.00  0.00    -0.085 HD
BRANCH  20  23
ATOM     23  C   UNL     1      -0.745   3.467   1.261  0.00  0.00    -0.026 C 
BRANCH  23  24
ATOM     24  C   UNL     1      -1.457   3.915   2.512  0.00  0.00    +0.024 A 
ATOM     25  C   UNL     1      -0.723   4.224   3.642  0.00  0.00    +0.021 A 
ATOM     26  C   UNL     1      -1.386   4.639   4.786  0.00  0.00    +0.003 A 
ATOM     27  C   UNL     1      -2.770   4.720   4.754  0.00  0.00    +0.020 A 
ATOM     28  C   UNL     1      -3.437   4.390   3.589  0.00  0.00    +0.111 A 
ATOM     29  N   UNL     1      -2.772   4.003   2.518  0.00  0.00    -0.262 NA
ENDBRANCH  23  24
ENDBRANCH  20  23
ENDBRANCH  19  20
ENDBRANCH   4  19
TORSDOF 11
