REMARK  Name = ZINC66698628
REMARK  7 active torsions:
REMARK  status: ('A' for Active; 'I' for Inactive)
REMARK    1  A    between atoms: C_1  and  C_2
REMARK    2  A    between atoms: C_2  and  C_3
REMARK    3  A    between atoms: C_3  and  C_4
REMARK    4  A    between atoms: C_4  and  N_5
REMARK    5  A    between atoms: C_10  and  C_12
REMARK    6  A    between atoms: C_12  and  N_13
REMARK    7  A    between atoms: N_16  and  C_17
REMARK                            x       y       z     vdW  Elec       q    Type
REMARK                         _______ _______ _______ _____ _____    ______ ____
ROOT
ATOM      1  N   UNL     1       1.319  -3.869   0.130  0.00  0.00    -0.301 N 
ATOM      2  C   UNL     1       1.723  -4.010   1.408  0.00  0.00    +0.300 C 
ATOM      3  O   UNL     1       2.799  -4.520   1.653  0.00  0.00    -0.253 OA
ATOM      4  N   UNL     1       0.933  -3.587   2.415  0.00  0.00    -0.293 N 
ATOM      5  H   UNL     1       0.461  -3.463  -0.065  0.00  0.00    +0.150 HD
ATOM      6  H   UNL     1       0.074  -3.181   2.219  0.00  0.00    +0.151 HD
ENDROOT
BRANCH   4   7
ATOM      7  C   UNL     1       1.371  -3.741   3.804  0.00  0.00    +0.106 C 
ATOM      8  C   UNL     1       0.146  -3.804   4.714  0.00  0.00    +0.027 C 
ATOM      9  C   UNL     1       0.626  -3.735   6.169  0.00  0.00    +0.008 C 
ATOM     10  C   UNL     1       1.171  -2.331   6.426  0.00  0.00    +0.054 C 
ATOM     11  C   UNL     1       2.168  -1.944   5.364  0.00  0.00    +0.024 A 
ATOM     12  C   UNL     1       2.252  -2.577   4.178  0.00  0.00    -0.008 A 
ATOM     13  C   UNL     1       3.201  -2.152   3.227  0.00  0.00    +0.012 A 
ATOM     14  C   UNL     1       4.028  -1.109   3.511  0.00  0.00    +0.070 A 
ATOM     15  C   UNL     1       3.918  -0.474   4.761  0.00  0.00    +0.249 A 
ATOM     16  O   UNL     1       4.651   0.461   5.039  0.00  0.00    -0.268 OA
ATOM     17  N   UNL     1       3.006  -0.902   5.646  0.00  0.00    -0.326 N 
ATOM     18  H   UNL     1       2.938  -0.459   6.506  0.00  0.00    +0.169 HD
ENDBRANCH   4   7
BRANCH   1  19
ATOM     19  C   UNL     1       2.178  -4.329  -0.964  0.00  0.00    +0.090 C 
BRANCH  19  25
ATOM     20  N   UNL     1       0.175  -4.468  -2.364  0.00  0.00    +0.383 N 
ATOM     21  C   UNL     1      -0.414  -4.172  -3.675  0.00  0.00    -0.078 C 
ATOM     22  C   UNL     1      -0.512  -2.657  -3.864  0.00  0.00    -0.019 C 
ATOM     23  C   UNL     1       0.889  -2.045  -3.782  0.00  0.00    -0.003 C 
ATOM     24  C   UNL     1       1.522  -2.423  -2.440  0.00  0.00    -0.014 C 
ATOM     25  C   UNL     1       1.546  -3.947  -2.304  0.00  0.00    -0.051 C 
ATOM     26  H   UNL     1      -0.381  -4.034  -1.642  0.00  0.00    -0.081 HD
BRANCH  20  27
ATOM     27  C   UNL     1       0.196  -5.922  -2.155  0.00  0.00    -0.078 C 
BRANCH  27  28
ATOM     28  C   UNL     1      -1.239  -6.447  -2.076  0.00  0.00    -0.019 C 
BRANCH  28  30
ATOM     29  C   UNL     1      -2.652  -8.486  -1.780  0.00  0.00    +0.004 C 
ATOM     30  C   UNL     1      -1.217  -7.961  -1.859  0.00  0.00    -0.005 C 
ENDBRANCH  28  30
ENDBRANCH  27  28
ENDBRANCH  20  27
ENDBRANCH  19  25
ENDBRANCH   1  19
TORSDOF 6
