REMARK  Name = ZINC20919070
REMARK  11 active torsions:
REMARK  status: ('A' for Active; 'I' for Inactive)
REMARK    1  A    between atoms: C_4  and  C_7
REMARK    2  A    between atoms: C_7  and  C_8
REMARK    3  A    between atoms: C_8  and  C_30
REMARK    4  A    between atoms: N_9  and  N_10
REMARK    5  A    between atoms: C_14  and  S_17
REMARK    6  A    between atoms: N_15  and  N_16
REMARK    7  A    between atoms: S_17  and  C_18
REMARK    8  A    between atoms: C_18  and  C_19
REMARK    9  A    between atoms: C_19  and  C_20
REMARK   10  A    between atoms: N_22  and  C_23
REMARK   11  A    between atoms: C_30  and  C_31
REMARK                            x       y       z     vdW  Elec       q    Type
REMARK                         _______ _______ _______ _____ _____    ______ ____
ROOT
ATOM      1  N   UNL     1       1.048   1.611  -2.721  0.00  0.00    -0.204 N 
ATOM      2  C   UNL     1      -0.269   1.748  -2.301  0.00  0.00    +0.254 A 
ATOM      3  N   UNL     1      -1.267   2.189  -3.027  0.00  0.00    -0.109 NA
ATOM      4  N   UNL     1      -2.420   2.176  -2.231  0.00  0.00    -0.119 NA
ATOM      5  C   UNL     1      -2.089   1.721  -1.046  0.00  0.00    +0.210 A 
ATOM      6  N   UNL     1      -0.752   1.441  -1.060  0.00  0.00    -0.211 N 
ATOM      7  H   UNL     1       1.809   1.226  -2.027  0.00  0.00    +0.177 HD
ENDROOT
BRANCH   6   8
ATOM      8  N   UNL     1      -0.024   0.948  -0.014  0.00  0.00    -0.294 N 
ATOM      9  H   UNL     1      -0.516   0.736   0.947  0.00  0.00    +0.163 HD
ATOM     10  H   UNL     1       1.054   0.763  -0.133  0.00  0.00    +0.163 HD
ENDBRANCH   6   8
BRANCH   1  12
ATOM     11  C   UNL     1       2.620   1.840  -4.416  0.00  0.00    +0.045 C 
ATOM     12  N   UNL     1       1.406   1.965  -4.029  0.00  0.00    -0.188 NA
BRANCH  11  13
ATOM     13  C   UNL     1       3.663   1.312  -3.465  0.00  0.00    +0.088 C 
BRANCH  13  17
ATOM     14  C   UNL     1       3.870  -2.942  -3.796  0.00  0.00    +0.000 A 
ATOM     15  C   UNL     1       4.668  -2.147  -4.596  0.00  0.00    +0.000 A 
ATOM     16  C   UNL     1       4.602  -0.771  -4.489  0.00  0.00    +0.004 A 
ATOM     17  C   UNL     1       3.736  -0.189  -3.582  0.00  0.00    -0.042 A 
ATOM     18  C   UNL     1       2.941  -0.984  -2.777  0.00  0.00    +0.004 A 
ATOM     19  C   UNL     1       3.005  -2.361  -2.888  0.00  0.00    +0.000 A 
ENDBRANCH  13  17
ENDBRANCH  11  13
BRANCH  11  20
ATOM     20  C   UNL     1       3.006   2.220  -5.822  0.00  0.00    +0.088 C 
BRANCH  20  21
ATOM     21  C   UNL     1       3.952   3.392  -5.784  0.00  0.00    -0.042 A 
ATOM     22  C   UNL     1       3.457   4.682  -5.823  0.00  0.00    +0.004 A 
ATOM     23  C   UNL     1       4.325   5.757  -5.784  0.00  0.00    +0.000 A 
ATOM     24  C   UNL     1       5.689   5.542  -5.714  0.00  0.00    +0.000 A 
ATOM     25  C   UNL     1       6.184   4.252  -5.680  0.00  0.00    +0.000 A 
ATOM     26  C   UNL     1       5.316   3.177  -5.715  0.00  0.00    +0.004 A 
ENDBRANCH  20  21
ENDBRANCH  11  20
ENDBRANCH   1  12
BRANCH   5  27
ATOM     27  S   UNL     1      -3.177   1.509   0.323  0.00  0.00    -0.084 S 
BRANCH  27  28
ATOM     28  C   UNL     1      -4.788   2.055  -0.308  0.00  0.00    +0.086 C 
BRANCH  28  29
ATOM     29  C   UNL     1      -5.840   1.921   0.795  0.00  0.00    +0.107 C 
BRANCH  29  30
ATOM     30  C   UNL     1      -7.178   2.375   0.270  0.00  0.00    +0.218 C 
ATOM     31  O   UNL     1      -7.280   2.768  -0.873  0.00  0.00    -0.275 OA
ATOM     32  N   UNL     1      -8.261   2.346   1.072  0.00  0.00    -0.284 N 
ATOM     33  H   UNL     1      -8.185   1.922   2.084  0.00  0.00    +0.155 HD
BRANCH  32  34
ATOM     34  C   UNL     1      -9.483   2.854   0.616  0.00  0.00    +0.052 A 
ATOM     35  C   UNL     1      -9.836   2.723  -0.720  0.00  0.00    +0.025 A 
ATOM     36  C   UNL     1     -11.045   3.221  -1.166  0.00  0.00    +0.002 A 
ATOM     37  C   UNL     1     -11.899   3.860  -0.285  0.00  0.00    +0.002 A 
ATOM     38  C   UNL     1     -11.548   3.998   1.045  0.00  0.00    +0.022 A 
ATOM     39  C   UNL     1     -10.342   3.497   1.499  0.00  0.00    +0.062 A 
ATOM     40 CL   UNL     1      -9.902   3.670   3.169  0.00  0.00    -0.082 Cl
ENDBRANCH  32  34
ENDBRANCH  29  30
ENDBRANCH  28  29
ENDBRANCH  27  28
ENDBRANCH   5  27
TORSDOF 11
