REMARK  Name = ZINC59170608
REMARK  6 active torsions:
REMARK  status: ('A' for Active; 'I' for Inactive)
REMARK    1  A    between atoms: C_3  and  N_9
REMARK    2  A    between atoms: C_10  and  C_12
REMARK    3  A    between atoms: C_17  and  O_33
REMARK    4  A    between atoms: N_22  and  C_23
REMARK    5  A    between atoms: C_26  and  S_29
REMARK    6  A    between atoms: S_29  and  N_32
REMARK                            x       y       z     vdW  Elec       q    Type
REMARK                         _______ _______ _______ _____ _____    ______ ____
ROOT
ATOM      1  C   UNL     1       4.811   4.191  -0.296  0.00  0.00    +0.098 A 
ATOM      2  C   UNL     1       4.807   5.579  -0.277  0.00  0.00    +0.030 A 
ATOM      3  C   UNL     1       6.051   6.254  -0.361  0.00  0.00    +0.018 A 
ATOM      4  C   UNL     1       6.123   7.638  -0.144  0.00  0.00    +0.015 A 
ATOM      5  C   UNL     1       7.331   8.271  -0.186  0.00  0.00    +0.046 A 
ATOM      6  C   UNL     1       8.496   7.553  -0.450  0.00  0.00    +0.120 A 
ATOM      7  C   UNL     1       8.442   6.187  -0.686  0.00  0.00    +0.092 A 
ATOM      8  C   UNL     1       7.224   5.531  -0.654  0.00  0.00    +0.141 A 
ATOM      9  O   UNL     1       7.154   4.204  -0.926  0.00  0.00    -0.438 OA
ATOM     10  C   UNL     1       6.123   3.518  -0.364  0.00  0.00    +0.212 A 
ATOM     11  N   UNL     1       6.287   2.297   0.099  0.00  0.00    -0.325 N 
ATOM     12  H   UNL     1       5.574   1.868   0.598  0.00  0.00    +0.169 HD
ENDROOT
BRANCH  11  13
ATOM     13  C   UNL     1       7.461   1.633  -0.122  0.00  0.00    +0.042 A 
ATOM     14  C   UNL     1       8.052   1.655  -1.388  0.00  0.00    +0.027 A 
ATOM     15  C   UNL     1       9.237   0.983  -1.604  0.00  0.00    +0.030 A 
ATOM     16  C   UNL     1       9.841   0.288  -0.571  0.00  0.00    +0.105 A 
ATOM     17  C   UNL     1       9.261   0.262   0.685  0.00  0.00    +0.030 A 
ATOM     18  C   UNL     1       8.080   0.935   0.918  0.00  0.00    +0.027 A 
BRANCH  16  19
ATOM     19  S   UNL     1      11.354  -0.568  -0.857  0.00  0.00    +0.056 S 
ATOM     20  O   UNL     1      11.433  -1.591   0.126  0.00  0.00    -0.153 OA
ATOM     21  O   UNL     1      11.408  -0.844  -2.250  0.00  0.00    -0.153 OA
BRANCH  19  22
ATOM     22  N   UNL     1      12.585   0.492  -0.536  0.00  0.00    -0.204 NA
ATOM     23  H   UNL     1      13.436   0.163  -0.209  0.00  0.00    +0.144 HD
ATOM     24  H   UNL     1      12.454   1.443  -0.676  0.00  0.00    +0.144 HD
ENDBRANCH  19  22
ENDBRANCH  16  19
ENDBRANCH  11  13
BRANCH   1  26
ATOM     25  N   UNL     1       3.585   2.081  -0.381  0.00  0.00    -0.280 N 
ATOM     26  C   UNL     1       3.558   3.421  -0.245  0.00  0.00    +0.253 C 
ATOM     27  O   UNL     1       2.499   3.995  -0.080  0.00  0.00    -0.270 OA
ATOM     28  H   UNL     1       4.434   1.619  -0.466  0.00  0.00    +0.155 HD
BRANCH  25  31
ATOM     29  C   UNL     1       0.054   1.186   0.121  0.00  0.00    +0.003 A 
ATOM     30  C   UNL     1       1.234   1.904   0.142  0.00  0.00    +0.025 A 
ATOM     31  C   UNL     1       2.389   1.356  -0.401  0.00  0.00    +0.054 A 
ATOM     32  C   UNL     1       2.353   0.086  -0.963  0.00  0.00    +0.080 A 
ATOM     33  C   UNL     1       1.169  -0.628  -0.981  0.00  0.00    +0.061 A 
ATOM     34  C   UNL     1       0.020  -0.077  -0.439  0.00  0.00    +0.021 A 
ATOM     35 CL   UNL     1       1.122  -2.215  -1.683  0.00  0.00    -0.082 Cl
ATOM     36 CL   UNL     1       3.794  -0.605  -1.643  0.00  0.00    -0.080 Cl
ENDBRANCH  25  31
ENDBRANCH   1  26
BRANCH   6  37
ATOM     37  O   UNL     1       9.691   8.195  -0.477  0.00  0.00    -0.507 OA
ATOM     38  H   UNL     1      10.140   8.228   0.379  0.00  0.00    +0.292 HD
ENDBRANCH   6  37
TORSDOF 6
