REMARK  Name = ZINC36637461
REMARK  10 active torsions:
REMARK  status: ('A' for Active; 'I' for Inactive)
REMARK    1  A    between atoms: C_1  and  C_2
REMARK    2  A    between atoms: N_5  and  S_11
REMARK    3  A    between atoms: C_7  and  C_10
REMARK    4  A    between atoms: S_11  and  C_14
REMARK    5  A    between atoms: C_17  and  C_20
REMARK    6  A    between atoms: N_22  and  C_23
REMARK    7  A    between atoms: C_23  and  C_24
REMARK    8  A    between atoms: C_24  and  N_25
REMARK    9  A    between atoms: N_25  and  C_26
REMARK   10  A    between atoms: N_25  and  C_27
REMARK                            x       y       z     vdW  Elec       q    Type
REMARK                         _______ _______ _______ _____ _____    ______ ____
ROOT
ATOM      1  C   UNL     1       1.125  -4.347  -5.087  0.00  0.00    +0.252 C 
ATOM      2  O   UNL     1       2.175  -4.777  -4.653  0.00  0.00    -0.270 OA
ATOM      3  N   UNL     1       0.988  -4.109  -6.406  0.00  0.00    -0.248 N 
ATOM      4  C   UNL     1       1.998  -4.468  -7.283  0.00  0.00    +0.168 A 
ATOM      5  N   UNL     1       2.051  -4.315  -8.585  0.00  0.00    -0.221 NA
ATOM      6  C   UNL     1       3.110  -4.716  -9.321  0.00  0.00    +0.115 A 
ATOM      7  C   UNL     1       3.292  -4.611 -10.722  0.00  0.00    +0.150 A 
ATOM      8  C   UNL     1       4.439  -5.074 -11.316  0.00  0.00    +0.040 A 
ATOM      9  C   UNL     1       5.455  -5.658 -10.572  0.00  0.00    +0.004 A 
ATOM     10  C   UNL     1       5.310  -5.776  -9.202  0.00  0.00    +0.017 A 
ATOM     11  C   UNL     1       4.166  -5.316  -8.599  0.00  0.00    +0.044 A 
ATOM     12  S   UNL     1       3.565  -5.250  -6.928  0.00  0.00    -0.052 S 
ATOM     13  F   UNL     1       2.326  -4.050 -11.481  0.00  0.00    -0.203 F 
ENDROOT
BRANCH   1  17
ATOM     14  C   UNL     1      -2.116  -3.594  -2.447  0.00  0.00    +0.106 A 
ATOM     15  C   UNL     1      -1.780  -2.659  -3.409  0.00  0.00    +0.029 A 
ATOM     16  C   UNL     1      -0.729  -2.897  -4.270  0.00  0.00    +0.015 A 
ATOM     17  C   UNL     1      -0.003  -4.085  -4.168  0.00  0.00    +0.037 A 
ATOM     18  C   UNL     1      -0.346  -5.024  -3.194  0.00  0.00    +0.015 A 
ATOM     19  C   UNL     1      -1.397  -4.771  -2.337  0.00  0.00    +0.029 A 
BRANCH  14  20
ATOM     20  S   UNL     1      -3.460  -3.282  -1.352  0.00  0.00    +0.061 S 
ATOM     21  O   UNL     1      -3.914  -4.548  -0.894  0.00  0.00    -0.153 OA
ATOM     22  O   UNL     1      -4.316  -2.359  -2.011  0.00  0.00    -0.153 OA
BRANCH  20  26
ATOM     23  C   UNL     1      -1.280   0.882   0.648  0.00  0.00    +0.039 C 
ATOM     24  C   UNL     1      -1.341  -0.628   0.411  0.00  0.00    +0.131 C 
ATOM     25  C   UNL     1      -2.765  -1.026   0.007  0.00  0.00    +0.140 C 
ATOM     26  N   UNL     1      -2.844  -2.495  -0.031  0.00  0.00    -0.172 NA
ATOM     27  C   UNL     1      -2.359  -3.244   1.139  0.00  0.00    +0.140 C 
ATOM     28  C   UNL     1      -0.954  -2.739   1.488  0.00  0.00    +0.131 C 
ATOM     29  O   UNL     1      -0.983  -1.315   1.614  0.00  0.00    -0.371 OA
ATOM     30  C   UNL     1       0.022  -3.134   0.379  0.00  0.00    +0.039 C 
ENDBRANCH  20  26
ENDBRANCH  14  20
ENDBRANCH   1  17
BRANCH   3  31
ATOM     31  C   UNL     1      -0.229  -3.471  -6.913  0.00  0.00    +0.097 C 
BRANCH  31  32
ATOM     32  C   UNL     1       0.024  -1.975  -7.112  0.00  0.00    -0.060 C 
BRANCH  32  33
ATOM     33  N   UNL     1      -1.231  -1.313  -7.494  0.00  0.00    +0.377 N 
ATOM     34  C   UNL     1      -1.015   0.138  -7.567  0.00  0.00    -0.097 C 
ATOM     35  C   UNL     1      -1.668  -1.810  -8.805  0.00  0.00    -0.097 C 
ATOM     36  H   UNL     1      -1.940  -1.513  -6.804  0.00  0.00    -0.083 HD
ENDBRANCH  32  33
ENDBRANCH  31  32
ENDBRANCH   3  31
TORSDOF 6
