REMARK  Name = ZINC41013815
REMARK  7 active torsions:
REMARK  status: ('A' for Active; 'I' for Inactive)
REMARK    1  A    between atoms: C_1  and  O_2
REMARK    2  A    between atoms: O_2  and  C_3
REMARK    3  A    between atoms: C_5  and  C_11
REMARK    4  A    between atoms: C_8  and  O_9
REMARK    5  A    between atoms: C_11  and  N_12
REMARK    6  A    between atoms: N_12  and  C_13
REMARK    7  A    between atoms: C_13  and  C_14
REMARK                            x       y       z     vdW  Elec       q    Type
REMARK                         _______ _______ _______ _____ _____    ______ ____
ROOT
ATOM      1  C   UNL     1       0.606  -0.608  -1.056  0.00  0.00    +0.163 A 
ATOM      2  C   UNL     1       1.173   0.159  -2.062  0.00  0.00    +0.051 A 
ATOM      3  C   UNL     1       1.786  -0.455  -3.138  0.00  0.00    -0.060 A 
ATOM      4  C   UNL     1       1.836  -1.835  -3.214  0.00  0.00    +0.021 A 
ATOM      5  C   UNL     1       1.273  -2.606  -2.213  0.00  0.00    +0.063 A 
ATOM      6  C   UNL     1       0.662  -1.996  -1.129  0.00  0.00    +0.173 A 
ATOM      7 BR   UNL     1       1.342  -4.493  -2.321  0.00  0.00    -0.046 Br
ENDROOT
BRANCH   1   9
ATOM      8  C   UNL     1      -0.017   1.425   0.010  0.00  0.00    +0.277 C 
ATOM      9  O   UNL     1       0.002  -0.004   0.002  0.00  0.00    -0.491 OA
ENDBRANCH   1   9
BRANCH   6  10
ATOM     10  O   UNL     1       0.112  -2.752  -0.141  0.00  0.00    -0.503 OA
ATOM     11  H   UNL     1      -0.816  -2.979  -0.290  0.00  0.00    +0.292 HD
ENDBRANCH   6  10
BRANCH   3  12
ATOM     12  C   UNL     1       2.401   0.380  -4.231  0.00  0.00    -0.046 C 
BRANCH  12  13
ATOM     13  N   UNL     1       3.806   0.659  -3.903  0.00  0.00    +0.385 N 
ATOM     14  H   UNL     1       3.854   1.160  -3.028  0.00  0.00    -0.085 HD
ATOM     15  H   UNL     1       4.311  -0.211  -3.820  0.00  0.00    -0.085 HD
BRANCH  13  16
ATOM     16  C   UNL     1       4.405   1.473  -4.968  0.00  0.00    -0.024 C 
BRANCH  16  17
ATOM     17  C   UNL     1       5.846   1.759  -4.631  0.00  0.00    +0.046 A 
ATOM     18  C   UNL     1       6.953   1.030  -5.079  0.00  0.00    +0.042 A 
ATOM     19  C   UNL     1       8.065   1.600  -4.559  0.00  0.00    +0.105 A 
ATOM     20  N   UNL     1       7.676   2.652  -3.810  0.00  0.00    -0.285 N 
ATOM     21  H   UNL     1       8.260   3.248  -3.316  0.00  0.00    +0.188 HD
ATOM     22  N   UNL     1       6.279   2.735  -3.875  0.00  0.00    -0.181 NA
ENDBRANCH  16  17
ENDBRANCH  13  16
ENDBRANCH  12  13
ENDBRANCH   3  12
TORSDOF 6
