REMARK  Name = ZINC12003328
REMARK  2 active torsions:
REMARK  status: ('A' for Active; 'I' for Inactive)
REMARK    1  A    between atoms: C_12  and  C_14
REMARK    2  A    between atoms: C_18  and  N_20
REMARK                            x       y       z     vdW  Elec       q    Type
REMARK                         _______ _______ _______ _____ _____    ______ ____
ROOT
ATOM      1  C   UNL     1       5.624   4.201  -1.878  0.00  0.00    +0.005 A 
ATOM      2  C   UNL     1       6.468   3.144  -1.560  0.00  0.00    +0.018 A 
ATOM      3  C   UNL     1       5.923   1.948  -1.139  0.00  0.00    +0.084 A 
ATOM      4  C   UNL     1       3.779   2.781  -1.330  0.00  0.00    +0.099 A 
ATOM      5  C   UNL     1       4.259   4.014  -1.760  0.00  0.00    +0.042 A 
ATOM      6  N   UNL     1       2.410   2.579  -1.208  0.00  0.00    -0.314 N 
ATOM      7  C   UNL     1       1.719   2.875  -2.471  0.00  0.00    +0.125 C 
ATOM      8  C   UNL     1       0.205   2.812  -2.248  0.00  0.00    +0.127 C 
ATOM      9  N   UNL     1      -0.129   1.514  -1.641  0.00  0.00    -0.295 N 
ATOM     10  C   UNL     1       0.619   1.091  -0.447  0.00  0.00    +0.127 C 
ATOM     11  C   UNL     1       2.118   1.217  -0.742  0.00  0.00    +0.125 C 
ATOM     12  C   UNL     1      -1.095   0.734  -2.164  0.00  0.00    +0.247 C 
ATOM     13  O   UNL     1      -1.294  -0.375  -1.708  0.00  0.00    -0.270 OA
ATOM     14  N   UNL     1       4.588   1.730  -1.006  0.00  0.00    -0.350 N 
ATOM     15  H   UNL     1       4.211   0.832  -0.683  0.00  0.00    +0.166 HD
ENDROOT
BRANCH  12  16
ATOM     16  C   UNL     1      -1.912   1.226  -3.293  0.00  0.00    +0.039 A 
ATOM     17  C   UNL     1      -2.225   2.583  -3.391  0.00  0.00    +0.014 A 
ATOM     18  C   UNL     1      -2.984   3.042  -4.449  0.00  0.00    +0.022 A 
ATOM     19  C   UNL     1      -3.445   2.158  -5.409  0.00  0.00    +0.064 A 
ATOM     20  C   UNL     1      -3.142   0.804  -5.317  0.00  0.00    +0.078 A 
ATOM     21  C   UNL     1      -2.377   0.336  -4.261  0.00  0.00    +0.039 A 
ATOM     22 CL   UNL     1      -4.404   2.743  -6.733  0.00  0.00    -0.082 Cl
BRANCH  20  23
ATOM     23  N   UNL     1      -3.611  -0.086  -6.291  0.00  0.00    -0.142 N 
ATOM     24  C   UNL     1      -4.729  -0.824  -6.212  0.00  0.00    +0.240 C 
ATOM     25  O   UNL     1      -5.461  -0.741  -5.249  0.00  0.00    -0.274 OA
ATOM     26  C   UNL     1      -5.054  -1.752  -7.344  0.00  0.00    +0.122 C 
ATOM     27  C   UNL     1      -4.247  -1.313  -8.595  0.00  0.00    +0.198 C 
ATOM     28  S   UNL     1      -2.873  -0.422  -7.756  0.00  0.00    +0.052 S 
ATOM     29  O   UNL     1      -2.639   0.839  -8.366  0.00  0.00    -0.155 OA
ATOM     30  O   UNL     1      -1.804  -1.308  -7.453  0.00  0.00    -0.155 OA
ENDBRANCH  20  23
ENDBRANCH  12  16
TORSDOF 2
