REMARK  Name = ZINC67040462
REMARK  5 active torsions:
REMARK  status: ('A' for Active; 'I' for Inactive)
REMARK    1  A    between atoms: C_8  and  N_13
REMARK    2  A    between atoms: N_16  and  N_17
REMARK    3  A    between atoms: C_18  and  C_20
REMARK    4  A    between atoms: C_20  and  C_21
REMARK    5  A    between atoms: C_21  and  C_22
REMARK                            x       y       z     vdW  Elec       q    Type
REMARK                         _______ _______ _______ _____ _____    ______ ____
ROOT
ATOM      1  N   UNL     1       3.454  -2.039   0.670  0.00  0.00    -0.291 N 
ATOM      2  C   UNL     1       2.856  -3.106   0.105  0.00  0.00    +0.316 C 
ATOM      3  O   UNL     1       2.489  -3.054  -1.053  0.00  0.00    -0.251 OA
ATOM      4  N   UNL     1       2.665  -4.230   0.823  0.00  0.00    -0.218 N 
ATOM      5  H   UNL     1       3.747  -2.080   1.594  0.00  0.00    +0.151 HD
ATOM      6  H   UNL     1       2.234  -4.998   0.416  0.00  0.00    +0.174 HD
ENDROOT
BRANCH   1  14
ATOM      7  C   UNL     1      -0.017   1.381   0.010  0.00  0.00    +0.039 A 
ATOM      8  C   UNL     1       1.174   2.075   0.002  0.00  0.00    +0.018 A 
ATOM      9  C   UNL     1       2.392   1.396  -0.020  0.00  0.00    +0.013 A 
ATOM     10  C   UNL     1       2.415   0.014  -0.042  0.00  0.00    -0.011 A 
ATOM     11  C   UNL     1       1.206  -0.678  -0.022  0.00  0.00    +0.045 A 
ATOM     12  C   UNL     1       0.002  -0.004   0.002  0.00  0.00    +0.124 A 
ATOM     13  F   UNL     1      -1.159  -0.695   0.018  0.00  0.00    -0.205 F 
ATOM     14  C   UNL     1       3.662  -0.817  -0.111  0.00  0.00    +0.107 C 
ATOM     15  C   UNL     1       4.897  -0.109   0.420  0.00  0.00    +0.038 C 
ATOM     16  C   UNL     1       5.161   1.144  -0.427  0.00  0.00    +0.076 C 
ATOM     17  S   UNL     1       3.873   2.356  -0.008  0.00  0.00    -0.125 S 
ENDBRANCH   1  14
BRANCH   4  18
ATOM     18  N   UNL     1       3.088  -4.290   2.157  0.00  0.00    -0.233 N 
ATOM     19  C   UNL     1       2.897  -5.414   2.875  0.00  0.00    +0.229 C 
ATOM     20  O   UNL     1       2.358  -6.374   2.366  0.00  0.00    -0.274 OA
ATOM     21  H   UNL     1       3.519  -3.522   2.564  0.00  0.00    +0.173 HD
BRANCH  19  22
ATOM     22  C   UNL     1       3.352  -5.478   4.310  0.00  0.00    +0.097 C 
BRANCH  22  23
ATOM     23  C   UNL     1       3.018  -6.854   4.890  0.00  0.00    +0.013 C 
BRANCH  23  24
ATOM     24  C   UNL     1       3.480  -6.919   6.347  0.00  0.00    -0.011 C 
ATOM     25  C   UNL     1       5.006  -6.816   6.404  0.00  0.00    +0.003 C 
ATOM     26  C   UNL     1       5.468  -6.881   7.861  0.00  0.00    +0.000 C 
ATOM     27  C   UNL     1       5.024  -8.208   8.478  0.00  0.00    +0.000 C 
ATOM     28  C   UNL     1       3.498  -8.312   8.421  0.00  0.00    +0.000 C 
ATOM     29  C   UNL     1       3.036  -8.247   6.964  0.00  0.00    +0.003 C 
ENDBRANCH  23  24
ENDBRANCH  22  23
ENDBRANCH  19  22
ENDBRANCH   4  18
TORSDOF 5
