REMARK  Name = ZINC23311482
REMARK  6 active torsions:
REMARK  status: ('A' for Active; 'I' for Inactive)
REMARK    1  A    between atoms: C_2  and  C_17
REMARK    2  A    between atoms: N_5  and  C_6
REMARK    3  A    between atoms: C_6  and  C_7
REMARK    4  A    between atoms: C_13  and  C_15
REMARK    5  A    between atoms: C_15  and  N_16
REMARK    6  A    between atoms: C_17  and  N_18
REMARK                            x       y       z     vdW  Elec       q    Type
REMARK                         _______ _______ _______ _____ _____    ______ ____
ROOT
ATOM      1  C   UNL     1      -0.016   1.349   0.009  0.00  0.00    +0.131 A 
ATOM      2  C   UNL     1       1.278   1.744  -0.001  0.00  0.00    +0.066 A 
ATOM      3  N   UNL     1       2.016   0.627  -0.014  0.00  0.00    -0.136 NA
ATOM      4  N   UNL     1       1.230  -0.391  -0.012  0.00  0.00    -0.066 NA
ATOM      5  N   UNL     1       0.002  -0.004   0.002  0.00  0.00    -0.251 N 
ENDROOT
BRANCH   5   6
ATOM      6  C   UNL     1      -1.173  -0.878   0.009  0.00  0.00    +0.148 C 
BRANCH   6   7
ATOM      7  C   UNL     1      -1.100  -1.840  -1.179  0.00  0.00    +0.013 C 
ATOM      8  C   UNL     1      -1.192  -1.047  -2.484  0.00  0.00    +0.024 C 
ATOM      9  C   UNL     1      -1.084  -2.009  -3.671  0.00  0.00    +0.108 C 
ATOM     10  N   UNL     1      -2.107  -3.054  -3.527  0.00  0.00    -0.303 N 
ATOM     11  C   UNL     1      -2.165  -3.817  -2.273  0.00  0.00    +0.108 C 
ATOM     12  C   UNL     1      -2.261  -2.834  -1.101  0.00  0.00    +0.024 C 
ATOM     13  C   UNL     1      -2.975  -3.308  -4.526  0.00  0.00    +0.198 C 
ATOM     14  O   UNL     1      -2.916  -2.670  -5.556  0.00  0.00    -0.278 OA
BRANCH  13  15
ATOM     15  C   UNL     1      -4.018  -4.383  -4.363  0.00  0.00    +0.011 C 
BRANCH  15  16
ATOM     16  N   UNL     1      -4.834  -4.462  -5.583  0.00  0.00    +0.384 N 
ATOM     17  H   UNL     1      -5.287  -3.575  -5.742  0.00  0.00    -0.089 HD
ATOM     18  H   UNL     1      -4.242  -4.684  -6.369  0.00  0.00    -0.089 HD
ATOM     19  H   UNL     1      -5.532  -5.182  -5.473  0.00  0.00    -0.089 HD
ENDBRANCH  15  16
ENDBRANCH  13  15
ENDBRANCH   6   7
ENDBRANCH   5   6
BRANCH   2  20
ATOM     20  C   UNL     1       1.789   3.162   0.002  0.00  0.00    -0.019 C 
BRANCH  20  21
ATOM     21  N   UNL     1       2.081   3.575   1.381  0.00  0.00    +0.386 N 
ATOM     22  C   UNL     1       0.875   3.464   2.148  0.00  0.00    -0.074 C 
ATOM     23  C   UNL     1       0.805   4.292   3.399  0.00  0.00    -0.027 C 
ATOM     24  C   UNL     1       0.138   5.634   3.107  0.00  0.00    +0.005 C 
ATOM     25  C   UNL     1       1.151   6.578   2.467  0.00  0.00    -0.012 C 
ATOM     26  C   UNL     1       2.276   6.849   3.468  0.00  0.00    +0.007 C 
ATOM     27  C   UNL     1       3.021   5.536   3.711  0.00  0.00    -0.012 C 
ATOM     28  C   UNL     1       2.084   4.439   4.170  0.00  0.00    +0.005 C 
ATOM     29  C   UNL     1       3.718   5.128   2.409  0.00  0.00    -0.012 C 
ATOM     30  C   UNL     1       2.674   4.881   1.343  0.00  0.00    -0.068 C 
ATOM     31  C   UNL     1       1.716   6.021   1.172  0.00  0.00    -0.012 C 
ATOM     32  H   UNL     1       2.757   2.931   1.765  0.00  0.00    -0.081 HD
ENDBRANCH  20  21
ENDBRANCH   2  20
TORSDOF 6
