REMARK  Name = ZINC64109005
REMARK  6 active torsions:
REMARK  status: ('A' for Active; 'I' for Inactive)
REMARK    1  A    between atoms: C_1  and  C_2
REMARK    2  A    between atoms: C_2  and  C_3
REMARK    3  A    between atoms: C_2  and  C_4
REMARK    4  A    between atoms: N_6  and  C_7
REMARK    5  A    between atoms: C_13  and  C_14
REMARK    6  A    between atoms: C_19  and  C_22
REMARK                            x       y       z     vdW  Elec       q    Type
REMARK                         _______ _______ _______ _____ _____    ______ ____
ROOT
ATOM      1  C   UNL     1      -0.995  -0.872   7.330  0.00  0.00    +0.244 C 
ATOM      2  O   UNL     1      -1.643  -1.116   6.328  0.00  0.00    -0.270 OA
ATOM      3  N   UNL     1      -1.557  -1.015   8.547  0.00  0.00    -0.261 N 
ATOM      4  C   UNL     1      -2.871  -1.441   8.658  0.00  0.00    +0.165 A 
ATOM      5  N   UNL     1      -3.587  -1.634   9.745  0.00  0.00    -0.225 NA
ATOM      6  C   UNL     1      -4.852  -2.053   9.611  0.00  0.00    +0.079 A 
ATOM      7  C   UNL     1      -5.343  -2.263   8.329  0.00  0.00    +0.076 A 
ATOM      8  S   UNL     1      -4.024  -1.860   7.364  0.00  0.00    -0.060 S 
ATOM      9  H   UNL     1      -1.041  -0.821   9.345  0.00  0.00    +0.157 HD
ENDROOT
BRANCH   6  10
ATOM     10  C   UNL     1      -5.665  -2.276  10.743  0.00  0.00    +0.007 C 
ATOM     11  C   UNL     1      -5.312  -2.104  12.079  0.00  0.00    +0.005 A 
ATOM     12  C   UNL     1      -4.118  -1.681  12.703  0.00  0.00    +0.010 A 
ATOM     13  C   UNL     1      -4.057  -1.605  14.057  0.00  0.00    +0.001 A 
ATOM     14  C   UNL     1      -5.152  -1.935  14.859  0.00  0.00    +0.002 A 
ATOM     15  C   UNL     1      -6.329  -2.348  14.327  0.00  0.00    +0.026 A 
ATOM     16  C   UNL     1      -6.470  -2.453  12.920  0.00  0.00    +0.043 A 
ATOM     17  N   UNL     1      -7.489  -2.822  12.170  0.00  0.00    -0.380 N 
ATOM     18  C   UNL     1      -7.103  -2.746  10.758  0.00  0.00    +0.151 C 
ATOM     19  H   UNL     1      -8.359  -3.096  12.500  0.00  0.00    +0.160 HD
ENDBRANCH   6  10
BRANCH   1  25
ATOM     20  C   UNL     1       0.810  -0.437   3.605  0.00  0.00    +0.219 C 
ATOM     21  N   UNL     1       0.111  -0.194   4.886  0.00  0.00    -0.320 N 
ATOM     22  C   UNL     1       0.871  -0.180   6.002  0.00  0.00    +0.021 C 
ATOM     23  C   UNL     1       2.346   0.141   5.824  0.00  0.00    +0.123 C 
ATOM     24  S   UNL     1       2.469   0.274   3.989  0.00  0.00    -0.114 S 
ATOM     25  C   UNL     1       0.345  -0.438   7.217  0.00  0.00    +0.087 C 
ATOM     26  H   UNL     1      -0.848  -0.052   4.923  0.00  0.00    +0.148 HD
BRANCH  20  29
ATOM     27  C   UNL     1       0.510   0.016   1.230  0.00  0.00    +0.218 C 
ATOM     28  O   UNL     1       1.354  -0.822   0.993  0.00  0.00    -0.275 OA
ATOM     29  N   UNL     1       0.166   0.284   2.505  0.00  0.00    -0.288 N 
ATOM     30  H   UNL     1      -0.509   0.955   2.694  0.00  0.00    +0.151 HD
BRANCH  27  32
ATOM     31  C   UNL     1       0.114   2.257   0.245  0.00  0.00    +0.017 C 
ATOM     32  C   UNL     1      -0.152   0.758   0.098  0.00  0.00    +0.069 C 
ATOM     33  C   UNL     1       0.416   0.268  -1.236  0.00  0.00    +0.017 C 
ENDBRANCH  27  32
ENDBRANCH  20  29
ENDBRANCH   1  25
TORSDOF 4
