REMARK  Name = ZINC38604474
REMARK  7 active torsions:
REMARK  status: ('A' for Active; 'I' for Inactive)
REMARK    1  A    between atoms: C_1  and  C_2
REMARK    2  A    between atoms: C_3  and  C_26
REMARK    3  A    between atoms: N_6  and  C_23
REMARK    4  A    between atoms: C_10  and  C_11
REMARK    5  A    between atoms: C_14  and  C_16
REMARK    6  A    between atoms: C_23  and  C_24
REMARK    7  A    between atoms: C_23  and  C_25
REMARK                            x       y       z     vdW  Elec       q    Type
REMARK                         _______ _______ _______ _____ _____    ______ ____
ROOT
ATOM      1  C   UNL     1      -0.203   1.402  -0.041  0.00  0.00    +0.046 C 
ATOM      2  C   UNL     1       0.248  -0.035   0.012  0.00  0.00    -0.016 C 
ATOM      3  C   UNL     1       0.580  -0.716  -1.153  0.00  0.00    +0.117 C 
ATOM      4  C   UNL     1       1.016  -2.111  -1.074  0.00  0.00    +0.264 C 
ATOM      5  O   UNL     1       1.308  -2.708  -2.094  0.00  0.00    -0.269 OA
ATOM      6  N   UNL     1       1.098  -2.740   0.111  0.00  0.00    -0.231 N 
ATOM      7  C   UNL     1       0.785  -2.113   1.259  0.00  0.00    +0.254 C 
ATOM      8  O   UNL     1       0.870  -2.709   2.317  0.00  0.00    -0.270 OA
ATOM      9  C   UNL     1       0.347  -0.711   1.244  0.00  0.00    +0.045 C 
ATOM     10  C   UNL     1       0.025  -0.056   2.440  0.00  0.00    +0.059 C 
ENDROOT
BRANCH  10  11
ATOM     11  C   UNL     1      -0.059  -0.780   3.631  0.00  0.00    +0.129 A 
ATOM     12  C   UNL     1       0.405  -0.361   4.877  0.00  0.00    +0.050 A 
ATOM     13  C   UNL     1       0.117  -1.382   5.776  0.00  0.00    +0.050 A 
ATOM     14  C   UNL     1      -0.508  -2.388   5.062  0.00  0.00    +0.136 A 
ATOM     15  O   UNL     1      -0.609  -2.005   3.778  0.00  0.00    -0.455 OA
BRANCH  14  16
ATOM     16  C   UNL     1      -0.989  -3.666   5.618  0.00  0.00    +0.017 A 
ATOM     17  C   UNL     1      -0.833  -3.942   6.980  0.00  0.00    +0.012 A 
ATOM     18  C   UNL     1      -1.285  -5.138   7.494  0.00  0.00    +0.016 A 
ATOM     19  C   UNL     1      -1.892  -6.066   6.664  0.00  0.00    +0.018 A 
ATOM     20  C   UNL     1      -2.050  -5.800   5.314  0.00  0.00    +0.016 A 
ATOM     21  C   UNL     1      -1.608  -4.604   4.788  0.00  0.00    +0.012 A 
ATOM     22 BR   UNL     1      -2.509  -7.706   7.378  0.00  0.00    -0.050 Br
ENDBRANCH  14  16
ENDBRANCH  10  11
BRANCH   6  23
ATOM     23  C   UNL     1       1.538  -4.137   0.153  0.00  0.00    +0.079 C 
ATOM     24  C   UNL     1       0.576  -4.999  -0.667  0.00  0.00    +0.028 C 
ATOM     25  C   UNL     1       2.947  -4.246  -0.433  0.00  0.00    +0.028 C 
ENDBRANCH   6  23
BRANCH   3  26
ATOM     26  C   UNL     1       0.496  -0.057  -2.422  0.00  0.00    +0.105 C 
ATOM     27  N   UNL     1       0.429   0.465  -3.429  0.00  0.00    -0.191 NA
ENDBRANCH   3  26
TORSDOF 4
