REMARK  Name = ZINC63720160
REMARK  7 active torsions:
REMARK  status: ('A' for Active; 'I' for Inactive)
REMARK    1  A    between atoms: C_4  and  C_7
REMARK    2  A    between atoms: C_7  and  S_8
REMARK    3  A    between atoms: S_8  and  C_9
REMARK    4  A    between atoms: C_13  and  C_16
REMARK    5  A    between atoms: C_16  and  C_18
REMARK    6  A    between atoms: C_16  and  N_28
REMARK    7  A    between atoms: C_18  and  C_19
REMARK                            x       y       z     vdW  Elec       q    Type
REMARK                         _______ _______ _______ _____ _____    ______ ____
ROOT
ATOM      1  C   UNL     1       6.632  -3.799  -1.401  0.00  0.00    -0.017 C 
ENDROOT
BRANCH   1   5
ATOM      2  C   UNL     1       5.831  -1.891   1.472  0.00  0.00    +0.319 C 
ATOM      3  N   UNL     1       6.769  -1.089   0.675  0.00  0.00    -0.146 NA
ATOM      4  N   UNL     1       6.823  -1.524  -0.483  0.00  0.00    -0.159 NA
ATOM      5  C   UNL     1       5.929  -2.680  -0.630  0.00  0.00    +0.246 C 
ATOM      6  O   UNL     1       5.635  -3.107   0.719  0.00  0.00    -0.320 OA
BRANCH   2   7
ATOM      7  S   UNL     1       4.257  -1.011   1.666  0.00  0.00    -0.100 S 
BRANCH   7   8
ATOM      8  C   UNL     1       3.711  -0.707  -0.038  0.00  0.00    +0.108 C 
BRANCH   8  12
ATOM      9  C   UNL     1      -0.017   1.378   0.010  0.00  0.00    +0.000 A 
ATOM     10  C   UNL     1       1.171   2.086   0.002  0.00  0.00    +0.000 A 
ATOM     11  C   UNL     1       2.377   1.411  -0.013  0.00  0.00    +0.004 A 
ATOM     12  C   UNL     1       2.396   0.029  -0.020  0.00  0.00    -0.037 A 
ATOM     13  C   UNL     1       1.208  -0.679  -0.012  0.00  0.00    +0.004 A 
ATOM     14  C   UNL     1       0.002  -0.004   0.002  0.00  0.00    +0.000 A 
ENDBRANCH   8  12
ENDBRANCH   7   8
ENDBRANCH   2   7
ENDBRANCH   1   5
BRANCH   1  15
ATOM     15  N   UNL     1       5.736  -4.958  -1.508  0.00  0.00    +0.383 N 
ATOM     16  H   UNL     1       4.895  -4.689  -1.997  0.00  0.00    -0.089 HD
ATOM     17  H   UNL     1       6.199  -5.696  -2.016  0.00  0.00    -0.089 HD
ATOM     18  H   UNL     1       5.497  -5.285  -0.583  0.00  0.00    -0.089 HD
ENDBRANCH   1  15
BRANCH   1  19
ATOM     19  C   UNL     1       6.994  -3.304  -2.802  0.00  0.00    +0.021 C 
BRANCH  19  20
ATOM     20  C   UNL     1       7.794  -4.362  -3.518  0.00  0.00    -0.043 C 
ATOM     21  C   UNL     1       7.322  -5.300  -4.370  0.00  0.00    -0.001 A 
ATOM     22  C   UNL     1       5.974  -5.606  -4.866  0.00  0.00    +0.010 A 
ATOM     23  C   UNL     1       5.811  -6.631  -5.732  0.00  0.00    +0.001 A 
ATOM     24  C   UNL     1       6.894  -7.409  -6.167  0.00  0.00    +0.002 A 
ATOM     25  C   UNL     1       8.161  -7.189  -5.756  0.00  0.00    +0.026 A 
ATOM     26  C   UNL     1       8.448  -6.135  -4.845  0.00  0.00    +0.043 A 
ATOM     27  N   UNL     1       9.573  -5.729  -4.308  0.00  0.00    -0.380 N 
ATOM     28  C   UNL     1       9.287  -4.585  -3.434  0.00  0.00    +0.144 C 
ATOM     29  H   UNL     1      10.448  -6.117  -4.464  0.00  0.00    +0.160 HD
ENDBRANCH  19  20
ENDBRANCH   1  19
TORSDOF 7
