REMARK  Name = ZINC03011769
REMARK  6 active torsions:
REMARK  status: ('A' for Active; 'I' for Inactive)
REMARK    1  A    between atoms: C_1  and  C_2
REMARK    2  A    between atoms: C_5  and  C_8
REMARK    3  A    between atoms: C_11  and  C_33
REMARK    4  A    between atoms: C_16  and  C_18
REMARK    5  A    between atoms: N_20  and  C_21
REMARK    6  A    between atoms: C_25  and  C_27
REMARK                            x       y       z     vdW  Elec       q    Type
REMARK                         _______ _______ _______ _____ _____    ______ ____
ROOT
ATOM      1  C   UNL     1       0.068  -4.303  -0.024  0.00  0.00    +0.104 C 
ATOM      2  C   UNL     1       1.493  -4.807   0.229  0.00  0.00    +0.063 C 
ATOM      3  C   UNL     1       2.023  -4.234   1.548  0.00  0.00    +0.215 C 
ATOM      4  N   UNL     1       1.027  -4.462   2.599  0.00  0.00    -0.238 N 
ATOM      5  C   UNL     1      -0.290  -4.730   2.350  0.00  0.00    +0.119 A 
ATOM      6  C   UNL     1      -0.917  -4.888   3.533  0.00  0.00    +0.078 A 
ATOM      7  C   UNL     1       0.045  -4.708   4.553  0.00  0.00    +0.149 A 
ATOM      8  N   UNL     1       1.208  -4.452   3.982  0.00  0.00    -0.164 NA
ATOM      9  N   UNL     1      -0.810  -4.806   1.051  0.00  0.00    -0.322 N 
ATOM     10  H   UNL     1      -1.691  -5.168   0.867  0.00  0.00    +0.148 HD
ENDROOT
BRANCH   1  15
ATOM     11  C   UNL     1       0.020   1.476  -0.018  0.00  0.00    +0.044 C 
ATOM     12  C   UNL     1       0.033  -0.031  -0.020  0.00  0.00    -0.050 A 
ATOM     13  C   UNL     1       0.034  -0.721  -1.217  0.00  0.00    +0.004 A 
ATOM     14  C   UNL     1       0.045  -2.104  -1.219  0.00  0.00    +0.006 A 
ATOM     15  C   UNL     1       0.056  -2.796  -0.022  0.00  0.00    -0.027 A 
ATOM     16  C   UNL     1       0.056  -2.106   1.176  0.00  0.00    +0.006 A 
ATOM     17  C   UNL     1       0.049  -0.723   1.177  0.00  0.00    +0.004 A 
ENDBRANCH   1  15
BRANCH   7  18
ATOM     18  C   UNL     1      -0.207  -4.793   6.006  0.00  0.00    +0.268 C 
ATOM     19  O   UNL     1      -1.326  -5.036   6.416  0.00  0.00    -0.268 OA
ATOM     20  N   UNL     1       0.802  -4.600   6.877  0.00  0.00    -0.280 N 
ATOM     21  H   UNL     1       1.707  -4.473   6.551  0.00  0.00    +0.155 HD
BRANCH  20  22
ATOM     22  C   UNL     1       0.546  -4.583   8.253  0.00  0.00    +0.034 A 
ATOM     23  C   UNL     1      -0.427  -5.417   8.789  0.00  0.00    +0.025 A 
ATOM     24  C   UNL     1      -0.678  -5.399  10.147  0.00  0.00    +0.022 A 
ATOM     25  C   UNL     1       0.038  -4.550  10.973  0.00  0.00    +0.053 A 
ATOM     26  C   UNL     1       1.008  -3.719  10.441  0.00  0.00    +0.075 A 
ATOM     27  C   UNL     1       1.267  -3.738   9.085  0.00  0.00    +0.037 A 
ATOM     28 CL   UNL     1      -0.281  -4.529  12.679  0.00  0.00    -0.083 Cl
BRANCH  26  29
ATOM     29  C   UNL     1       1.786  -2.796  11.344  0.00  0.00    +0.419 C 
ATOM     30  F   UNL     1       2.701  -2.062  10.582  0.00  0.00    -0.166 F 
ATOM     31  F   UNL     1       0.905  -1.921  11.987  0.00  0.00    -0.166 F 
ATOM     32  F   UNL     1       2.474  -3.551  12.300  0.00  0.00    -0.166 F 
ENDBRANCH  26  29
ENDBRANCH  20  22
ENDBRANCH   7  18
BRANCH   3  33
ATOM     33  C   UNL     1       3.333  -4.931   1.921  0.00  0.00    +0.412 C 
ATOM     34  F   UNL     1       4.276  -4.721   0.909  0.00  0.00    -0.168 F 
ATOM     35  F   UNL     1       3.815  -4.406   3.125  0.00  0.00    -0.168 F 
ATOM     36  F   UNL     1       3.105  -6.303   2.068  0.00  0.00    -0.168 F 
ENDBRANCH   3  33
TORSDOF 5
