REMARK  Name = ZINC66244548
REMARK  5 active torsions:
REMARK  status: ('A' for Active; 'I' for Inactive)
REMARK    1  A    between atoms: C_2  and  C_3
REMARK    2  A    between atoms: C_3  and  N_4
REMARK    3  A    between atoms: N_7  and  C_8
REMARK    4  A    between atoms: C_8  and  C_9
REMARK    5  A    between atoms: C_9  and  C_13
REMARK                            x       y       z     vdW  Elec       q    Type
REMARK                         _______ _______ _______ _____ _____    ______ ____
ROOT
ATOM      1  C   UNL     1      -3.767  -4.644  -2.463  0.00  0.00    +0.127 C 
ENDROOT
BRANCH   1   5
ATOM      2  N   UNL     1      -4.792  -6.777   0.322  0.00  0.00    -0.354 N 
ATOM      3  C   UNL     1      -4.519  -5.713  -0.380  0.00  0.00    +0.169 C 
ATOM      4  N   UNL     1      -4.675  -4.465   0.175  0.00  0.00    -0.371 N 
ATOM      5  N   UNL     1      -4.074  -5.839  -1.675  0.00  0.00    -0.357 N 
ATOM      6  H   UNL     1      -4.989  -4.376   1.088  0.00  0.00    +0.159 HD
ATOM      7  H   UNL     1      -4.472  -3.673  -0.347  0.00  0.00    +0.159 HD
ATOM      8  H   UNL     1      -3.964  -6.720  -2.066  0.00  0.00    +0.162 HD
ATOM      9  H   UNL     1      -4.682  -7.658  -0.069  0.00  0.00    +0.163 HD
BRANCH   2  10
ATOM     10  C   UNL     1      -5.266  -6.643   1.702  0.00  0.00    +0.142 C 
BRANCH  10  12
ATOM     11  C   UNL     1      -4.920  -8.358   3.404  0.00  0.00    +0.005 C 
ATOM     12  C   UNL     1      -5.507  -8.011   2.286  0.00  0.00    -0.014 C 
ENDBRANCH  10  12
ENDBRANCH   2  10
ENDBRANCH   1   5
BRANCH   1  13
ATOM     13  C   UNL     1      -3.184  -5.060  -3.815  0.00  0.00    +0.013 C 
ATOM     14  C   UNL     1      -3.217  -3.943  -4.871  0.00  0.00    +0.013 C 
ATOM     15  C   UNL     1      -4.615  -4.455  -5.256  0.00  0.00    +0.002 C 
ATOM     16  C   UNL     1      -4.179  -5.823  -4.706  0.00  0.00    +0.013 C 
BRANCH  13  17
ATOM     17  C   UNL     1      -1.843  -5.736  -3.691  0.00  0.00    -0.039 A 
ATOM     18  C   UNL     1      -1.706  -7.069  -4.034  0.00  0.00    +0.005 A 
ATOM     19  C   UNL     1      -0.477  -7.689  -3.920  0.00  0.00    +0.015 A 
ATOM     20  C   UNL     1       0.618  -6.977  -3.464  0.00  0.00    +0.018 A 
ATOM     21  C   UNL     1       0.480  -5.644  -3.120  0.00  0.00    +0.015 A 
ATOM     22  C   UNL     1      -0.749  -5.023  -3.239  0.00  0.00    +0.005 A 
ATOM     23 BR   UNL     1       2.300  -7.825  -3.308  0.00  0.00    -0.050 Br
ENDBRANCH  13  17
ENDBRANCH   1  13
TORSDOF 5
