REMARK  Name = ZINC36500352
REMARK  15 active torsions:
REMARK  status: ('A' for Active; 'I' for Inactive)
REMARK    1  A    between atoms: C_1  and  C_2
REMARK    2  A    between atoms: C_2  and  C_3
REMARK    3  A    between atoms: C_2  and  C_4
REMARK    4  A    between atoms: C_2  and  C_5
REMARK    5  A    between atoms: C_5  and  C_6
REMARK    6  A    between atoms: C_6  and  C_7
REMARK    7  A    between atoms: C_6  and  C_8
REMARK    8  A    between atoms: C_6  and  N_9
REMARK    9  A    between atoms: C_10  and  C_12
REMARK   10  A    between atoms: C_12  and  C_14
REMARK   11  A    between atoms: C_12  and  N_22
REMARK   12  A    between atoms: N_22  and  C_23
REMARK   13  A    between atoms: C_23  and  C_24
REMARK   14  A    between atoms: C_29  and  C_31
REMARK   15  A    between atoms: C_34  and  O_37
REMARK                            x       y       z     vdW  Elec       q    Type
REMARK                         _______ _______ _______ _____ _____    ______ ____
ROOT
ATOM      1  C   UNL     1       4.827   0.752  -4.424  0.00  0.00    +0.196 C 
ENDROOT
BRANCH   1   2
ATOM      2  C   UNL     1       4.273   2.006  -5.051  0.00  0.00    +0.018 A 
ATOM      3  C   UNL     1       4.938   3.209  -4.895  0.00  0.00    +0.048 A 
ATOM      4  C   UNL     1       4.430   4.360  -5.471  0.00  0.00    +0.020 A 
ATOM      5  C   UNL     1       3.257   4.308  -6.200  0.00  0.00    +0.003 A 
ATOM      6  C   UNL     1       2.592   3.106  -6.356  0.00  0.00    +0.020 A 
ATOM      7  C   UNL     1       3.103   1.953  -5.787  0.00  0.00    +0.048 A 
ATOM      8 CL   UNL     1       2.272   0.443  -5.989  0.00  0.00    -0.083 Cl
ATOM      9 CL   UNL     1       6.410   3.274  -3.978  0.00  0.00    -0.083 Cl
ENDBRANCH   1   2
BRANCH   1  11
ATOM     10  N   UNL     1       3.679   1.008  -2.248  0.00  0.00    -0.308 N 
ATOM     11  C   UNL     1       4.840   0.903  -2.925  0.00  0.00    +0.239 C 
ATOM     12  O   UNL     1       5.895   0.930  -2.328  0.00  0.00    -0.273 OA
ATOM     13  H   UNL     1       2.835   0.987  -2.726  0.00  0.00    +0.149 HD
BRANCH  10  14
ATOM     14  C   UNL     1       3.692   1.155  -0.790  0.00  0.00    +0.030 C 
ATOM     15  C   UNL     1       4.728   2.209  -0.393  0.00  0.00    +0.031 C 
ATOM     16  C   UNL     1       4.055  -0.184  -0.146  0.00  0.00    +0.031 C 
BRANCH  14  17
ATOM     17  C   UNL     1       2.308   1.595  -0.310  0.00  0.00    +0.031 C 
BRANCH  17  19
ATOM     18  C   UNL     1       1.148   1.968  -2.491  0.00  0.00    +0.010 C 
ATOM     19  C   UNL     1       1.749   2.654  -1.262  0.00  0.00    -0.036 C 
ATOM     20  C   UNL     1       2.877   3.590  -1.701  0.00  0.00    +0.010 C 
ATOM     21  C   UNL     1       0.665   3.462  -0.547  0.00  0.00    +0.010 C 
ENDBRANCH  17  19
ENDBRANCH  14  17
ENDBRANCH  10  14
ENDBRANCH   1  11
BRANCH   1  22
ATOM     22  N   UNL     1       6.192   0.528  -4.905  0.00  0.00    -0.275 N 
ATOM     23  C   UNL     1       6.870  -0.572  -4.521  0.00  0.00    +0.248 C 
ATOM     24  O   UNL     1       8.004  -0.757  -4.918  0.00  0.00    -0.270 OA
BRANCH  23  25
ATOM     25  C   UNL     1       6.234  -1.553  -3.618  0.00  0.00    +0.037 A 
ATOM     26  C   UNL     1       4.900  -1.391  -3.235  0.00  0.00    +0.016 A 
ATOM     27  C   UNL     1       4.311  -2.307  -2.393  0.00  0.00    +0.046 A 
ATOM     28  C   UNL     1       5.042  -3.393  -1.924  0.00  0.00    +0.117 A 
ATOM     29  C   UNL     1       6.369  -3.558  -2.303  0.00  0.00    +0.046 A 
ATOM     30  C   UNL     1       6.964  -2.648  -3.149  0.00  0.00    +0.016 A 
BRANCH  28  31
ATOM     31  O   UNL     1       4.458  -4.294  -1.094  0.00  0.00    -0.507 OA
ATOM     32  H   UNL     1       4.031  -5.030  -1.552  0.00  0.00    +0.292 HD
ENDBRANCH  28  31
ENDBRANCH  23  25
BRANCH  22  33
ATOM     33  C   UNL     1       6.822   1.499  -5.803  0.00  0.00    +0.183 C 
BRANCH  33  34
ATOM     34  C   UNL     1       7.084   0.852  -7.138  0.00  0.00    +0.122 A 
ATOM     35  C   UNL     1       6.278   0.913  -8.214  0.00  0.00    +0.046 A 
ATOM     36  C   UNL     1       6.907   0.172  -9.240  0.00  0.00    +0.041 A 
ATOM     37  C   UNL     1       8.060  -0.298  -8.730  0.00  0.00    +0.195 A 
ATOM     38  O   UNL     1       8.164   0.122  -7.459  0.00  0.00    -0.466 OA
ENDBRANCH  33  34
ENDBRANCH  22  33
ENDBRANCH   1  22
TORSDOF 10
