REMARK  Name = ZINC08974095
REMARK  4 active torsions:
REMARK  status: ('A' for Active; 'I' for Inactive)
REMARK    1  A    between atoms: C_4  and  N_7
REMARK    2  A    between atoms: N_7  and  C_8
REMARK    3  A    between atoms: C_9  and  C_10
REMARK    4  A    between atoms: N_16  and  C_19
REMARK                            x       y       z     vdW  Elec       q    Type
REMARK                         _______ _______ _______ _____ _____    ______ ____
ROOT
ATOM      1  C   UNL     1       5.171  -4.143   0.996  0.00  0.00    +0.019 C 
ATOM      2  C   UNL     1       6.223  -4.784   0.337  0.00  0.00    +0.101 C 
ATOM      3  C   UNL     1       7.325  -4.017  -0.268  0.00  0.00    +0.276 C 
ATOM      4  N   UNL     1       8.310  -4.689  -0.890  0.00  0.00    -0.123 NA
ATOM      5  C   UNL     1       8.301  -5.998  -0.963  0.00  0.00    +0.340 C 
ATOM      6  O   UNL     1       9.316  -6.614  -1.599  0.00  0.00    -0.250 OA
ATOM      7  N   UNL     1       7.312  -6.762  -0.424  0.00  0.00    -0.188 N 
ATOM      8  C   UNL     1       6.273  -6.203   0.230  0.00  0.00    +0.264 C 
ATOM      9  O   UNL     1       5.396  -6.896   0.713  0.00  0.00    -0.269 OA
ATOM     10  O   UNL     1       7.344  -2.798  -0.208  0.00  0.00    -0.268 OA
ENDROOT
BRANCH   7  11
ATOM     11  C   UNL     1       7.378  -8.157  -0.545  0.00  0.00    +0.046 A 
ATOM     12  C   UNL     1       6.851  -8.782  -1.668  0.00  0.00    +0.024 A 
ATOM     13  C   UNL     1       6.918 -10.157  -1.785  0.00  0.00    +0.002 A 
ATOM     14  C   UNL     1       7.506 -10.910  -0.785  0.00  0.00    +0.000 A 
ATOM     15  C   UNL     1       8.031 -10.290   0.333  0.00  0.00    +0.002 A 
ATOM     16  C   UNL     1       7.974  -8.915   0.453  0.00  0.00    +0.024 A 
ENDBRANCH   7  11
BRANCH   1  18
ATOM     17  C   UNL     1       4.111  -2.122   1.693  0.00  0.00    +0.072 C 
ATOM     18  C   UNL     1       5.068  -2.755   0.958  0.00  0.00    +0.016 C 
BRANCH  17  19
ATOM     19  N   UNL     1       4.010  -0.766   1.656  0.00  0.00    -0.321 N 
ATOM     20  H   UNL     1       4.619  -0.249   1.106  0.00  0.00    +0.152 HD
BRANCH  19  24
ATOM     21  C   UNL     1       1.085   1.166   3.903  0.00  0.00    +0.000 A 
ATOM     22  C   UNL     1       1.953   1.905   3.120  0.00  0.00    +0.002 A 
ATOM     23  C   UNL     1       2.925   1.267   2.373  0.00  0.00    +0.023 A 
ATOM     24  C   UNL     1       3.029  -0.118   2.410  0.00  0.00    +0.031 A 
ATOM     25  C   UNL     1       2.155  -0.857   3.198  0.00  0.00    +0.023 A 
ATOM     26  C   UNL     1       1.186  -0.213   3.942  0.00  0.00    +0.002 A 
ENDBRANCH  19  24
ENDBRANCH  17  19
ENDBRANCH   1  18
TORSDOF 4
