REMARK  Name = ZINC66682199
REMARK  13 active torsions:
REMARK  status: ('A' for Active; 'I' for Inactive)
REMARK    1  A    between atoms: C_1  and  C_2
REMARK    2  A    between atoms: C_4  and  N_14
REMARK    3  A    between atoms: C_7  and  C_8
REMARK    4  A    between atoms: N_10  and  C_11
REMARK    5  A    between atoms: C_11  and  C_12
REMARK    6  A    between atoms: C_11  and  C_13
REMARK    7  A    between atoms: N_17  and  C_18
REMARK    8  A    between atoms: C_18  and  C_19
REMARK    9  A    between atoms: C_19  and  C_21
REMARK   10  A    between atoms: C_19  and  N_25
REMARK   11  A    between atoms: C_21  and  C_22
REMARK   12  A    between atoms: C_22  and  C_23
REMARK   13  A    between atoms: C_22  and  C_24
REMARK                            x       y       z     vdW  Elec       q    Type
REMARK                         _______ _______ _______ _____ _____    ______ ____
ROOT
ATOM      1  N   UNL     1       0.348  -3.120  -1.868  0.00  0.00    -0.269 N 
ATOM      2  C   UNL     1       0.210  -4.455  -1.997  0.00  0.00    +0.304 C 
ATOM      3  O   UNL     1      -0.015  -5.141  -1.019  0.00  0.00    -0.253 OA
ATOM      4  N   UNL     1       0.322  -5.029  -3.212  0.00  0.00    -0.301 N 
ATOM      5  H   UNL     1       0.603  -2.583  -2.634  0.00  0.00    +0.156 HD
ATOM      6  H   UNL     1       0.501  -4.482  -3.992  0.00  0.00    +0.150 HD
ENDROOT
BRANCH   1  10
ATOM      7  C   UNL     1      -2.136  -2.961   2.364  0.00  0.00    +0.044 C 
ATOM      8  C   UNL     1      -1.077  -2.417   1.440  0.00  0.00    -0.037 A 
ATOM      9  C   UNL     1      -0.854  -3.014   0.220  0.00  0.00    +0.027 A 
ATOM     10  C   UNL     1       0.124  -2.513  -0.633  0.00  0.00    +0.035 A 
ATOM     11  C   UNL     1       0.880  -1.407  -0.257  0.00  0.00    +0.024 A 
ATOM     12  C   UNL     1       0.662  -0.805   0.962  0.00  0.00    +0.015 A 
ATOM     13  C   UNL     1      -0.323  -1.303   1.819  0.00  0.00    +0.040 A 
BRANCH  13  14
ATOM     14  C   UNL     1      -0.563  -0.657   3.124  0.00  0.00    +0.245 C 
ATOM     15  O   UNL     1      -1.404  -1.106   3.880  0.00  0.00    -0.270 OA
ATOM     16  N   UNL     1       0.149   0.431   3.479  0.00  0.00    -0.309 N 
ATOM     17  H   UNL     1       0.819   0.789   2.876  0.00  0.00    +0.149 HD
BRANCH  16  18
ATOM     18  C   UNL     1      -0.090   1.072   4.774  0.00  0.00    +0.067 C 
ATOM     19  C   UNL     1       0.732   0.364   5.853  0.00  0.00    +0.027 C 
ATOM     20  C   UNL     1       0.326   2.543   4.700  0.00  0.00    +0.027 C 
ENDBRANCH  16  18
ENDBRANCH  13  14
ENDBRANCH   1  10
BRANCH   4  21
ATOM     21  C   UNL     1       0.172  -6.480  -3.352  0.00  0.00    +0.090 C 
BRANCH  21  22
ATOM     22  C   UNL     1       0.453  -6.883  -4.801  0.00  0.00    -0.051 C 
BRANCH  22  23
ATOM     23  N   UNL     1      -0.430  -6.127  -5.700  0.00  0.00    +0.383 N 
ATOM     24  C   UNL     1      -0.175  -6.512  -7.111  0.00  0.00    -0.078 C 
ATOM     25  C   UNL     1      -1.485  -6.104  -7.832  0.00  0.00    -0.020 C 
ATOM     26  C   UNL     1      -2.574  -6.450  -6.791  0.00  0.00    -0.020 C 
ATOM     27  C   UNL     1      -1.843  -6.472  -5.436  0.00  0.00    -0.078 C 
ATOM     28  H   UNL     1      -0.285  -5.136  -5.577  0.00  0.00    -0.081 HD
ENDBRANCH  22  23
BRANCH  22  29
ATOM     29  C   UNL     1       0.192  -8.381  -4.973  0.00  0.00    -0.011 C 
BRANCH  29  30
ATOM     30  C   UNL     1       1.182  -9.172  -4.114  0.00  0.00    -0.019 C 
ATOM     31  C   UNL     1       0.825 -10.659  -4.165  0.00  0.00    +0.007 C 
ATOM     32  C   UNL     1       2.599  -8.969  -4.652  0.00  0.00    +0.007 C 
ENDBRANCH  29  30
ENDBRANCH  22  29
ENDBRANCH  21  22
ENDBRANCH   4  21
TORSDOF 8
