REMARK  Name = ZINC23248983
REMARK  9 active torsions:
REMARK  status: ('A' for Active; 'I' for Inactive)
REMARK    1  A    between atoms: C_1  and  C_2
REMARK    2  A    between atoms: C_2  and  C_27
REMARK    3  A    between atoms: C_5  and  C_24
REMARK    4  A    between atoms: C_6  and  N_13
REMARK    5  A    between atoms: C_9  and  C_11
REMARK    6  A    between atoms: C_9  and  C_12
REMARK    7  A    between atoms: C_14  and  C_16
REMARK    8  A    between atoms: C_16  and  N_17
REMARK    9  A    between atoms: N_20  and  C_23
REMARK                            x       y       z     vdW  Elec       q    Type
REMARK                         _______ _______ _______ _____ _____    ______ ____
ROOT
ATOM      1  C   UNL     1      -0.019   1.526   0.010  0.00  0.00    -0.010 C 
ATOM      2  C   UNL     1       0.002  -0.004   0.002  0.00  0.00    -0.069 C 
ATOM      3  C   UNL     1      -1.433  -0.534  -0.098  0.00  0.00    +0.024 C 
ATOM      4  C   UNL     1      -2.142  -0.151   1.192  0.00  0.00    -0.024 A 
ATOM      5  C   UNL     1      -3.552   0.131   1.358  0.00  0.00    +0.095 A 
ATOM      6  C   UNL     1      -3.979   0.466   2.640  0.00  0.00    +0.086 A 
ATOM      7  S   UNL     1      -2.581   0.406   3.568  0.00  0.00    -0.079 S 
ATOM      8  C   UNL     1      -1.413  -0.065   2.328  0.00  0.00    -0.016 A 
ATOM      9  C   UNL     1       0.050  -0.329   2.463  0.00  0.00    -0.041 C 
ATOM     10  N   UNL     1       0.699  -0.528   1.169  0.00  0.00    +0.389 N 
ATOM     11  C   UNL     1       0.712   0.833   3.217  0.00  0.00    -0.005 C 
ATOM     12  C   UNL     1       0.234  -1.605   3.308  0.00  0.00    -0.005 C 
ATOM     13  C   UNL     1       0.760  -0.459  -1.260  0.00  0.00    -0.010 C 
ATOM     14  H   UNL     1       0.851  -1.529   1.033  0.00  0.00    -0.084 HD
ATOM     15  H   UNL     1       1.631  -0.111   1.204  0.00  0.00    -0.084 HD
ENDROOT
BRANCH   6  16
ATOM     16  N   UNL     1      -5.264   0.775   3.053  0.00  0.00    -0.278 N 
ATOM     17  C   UNL     1      -5.502   1.078   4.345  0.00  0.00    +0.232 C 
ATOM     18  O   UNL     1      -4.591   1.079   5.145  0.00  0.00    -0.274 OA
ATOM     19  H   UNL     1      -5.993   0.775   2.413  0.00  0.00    +0.155 HD
BRANCH  17  20
ATOM     20  C   UNL     1      -6.900   1.415   4.795  0.00  0.00    +0.180 C 
BRANCH  20  21
ATOM     21  N   UNL     1      -6.895   1.705   6.235  0.00  0.00    -0.298 NA
ATOM     22  C   UNL     1      -6.564   0.503   7.013  0.00  0.00    +0.066 C 
ATOM     23  C   UNL     1      -6.510   0.860   8.500  0.00  0.00    -0.064 C 
ATOM     24  N   UNL     1      -7.812   1.395   8.922  0.00  0.00    +0.379 N 
ATOM     25  C   UNL     1      -8.117   2.608   8.154  0.00  0.00    -0.064 C 
ATOM     26  C   UNL     1      -8.184   2.266   6.664  0.00  0.00    +0.066 C 
ATOM     27  C   UNL     1      -7.765   1.720  10.354  0.00  0.00    -0.096 C 
ATOM     28  H   UNL     1      -8.528   0.703   8.758  0.00  0.00    -0.082 HD
ENDBRANCH  20  21
ENDBRANCH  17  20
ENDBRANCH   6  16
BRANCH   5  29
ATOM     29  C   UNL     1      -4.465   0.072   0.275  0.00  0.00    +0.389 C 
ATOM     30  O   UNL     1      -4.068  -0.227  -0.845  0.00  0.00    -0.240 OA
ATOM     31  O   UNL     1      -5.651   0.319   0.458  0.00  0.00    -0.240 OA
ENDBRANCH   5  29
TORSDOF 4
