REMARK  Name = ZINC08793186
REMARK  5 active torsions:
REMARK  status: ('A' for Active; 'I' for Inactive)
REMARK    1  A    between atoms: C_1  and  C_2
REMARK    2  A    between atoms: C_2  and  N_45
REMARK    3  A    between atoms: C_8  and  N_13
REMARK    4  A    between atoms: C_9  and  C_10
REMARK    5  A    between atoms: C_14  and  C_16
REMARK                            x       y       z     vdW  Elec       q    Type
REMARK                         _______ _______ _______ _____ _____    ______ ____
ROOT
ATOM      1  C   UNL     1       7.085  11.319  -0.446  0.00  0.00    -0.074 C 
ATOM      2  C   UNL     1       7.375   9.878  -0.017  0.00  0.00    +0.018 C 
ATOM      3  C   UNL     1       6.058   9.111  -0.005  0.00  0.00    -0.027 A 
ATOM      4  C   UNL     1       4.883   9.781   0.010  0.00  0.00    -0.021 A 
ATOM      5  S   UNL     1       3.644   8.519   0.006  0.00  0.00    -0.079 S 
ATOM      6  C   UNL     1       4.668   7.121  -0.003  0.00  0.00    +0.085 A 
ATOM      7  C   UNL     1       5.946   7.665  -0.012  0.00  0.00    +0.068 A 
ATOM      8  C   UNL     1       4.708  11.267   0.022  0.00  0.00    -0.035 C 
ATOM      9  N   UNL     1       6.008  11.874   0.399  0.00  0.00    +0.383 N 
ATOM     10  H   UNL     1       6.207  11.653   1.382  0.00  0.00    -0.081 HD
ENDROOT
BRANCH   7  11
ATOM     11  C   UNL     1       7.137   6.810  -0.028  0.00  0.00    +0.244 C 
ATOM     12  O   UNL     1       7.621   6.460  -1.088  0.00  0.00    -0.270 OA
ATOM     13  N   UNL     1       7.695   6.411   1.132  0.00  0.00    -0.325 N 
ATOM     14  H   UNL     1       7.309   6.689   1.978  0.00  0.00    +0.145 HD
ATOM     15  H   UNL     1       8.483   5.845   1.122  0.00  0.00    +0.145 HD
ENDBRANCH   7  11
BRANCH   6  16
ATOM     16  N   UNL     1       4.301   5.785  -0.007  0.00  0.00    -0.275 N 
ATOM     17  C   UNL     1       2.997   5.445   0.004  0.00  0.00    +0.257 C 
ATOM     18  O   UNL     1       2.142   6.311   0.016  0.00  0.00    -0.269 OA
ATOM     19  H   UNL     1       4.982   5.095  -0.017  0.00  0.00    +0.156 HD
BRANCH  17  20
ATOM     20  C   UNL     1       2.608   4.030  -0.000  0.00  0.00    +0.094 A 
ATOM     21  C   UNL     1       1.357   3.494   0.008  0.00  0.00    +0.068 A 
ATOM     22  C   UNL     1       1.193   2.096   0.002  0.00  0.00    +0.008 A 
ATOM     23  C   UNL     1      -0.016   1.354   0.009  0.00  0.00    +0.010 A 
ATOM     24  C   UNL     1       0.002  -0.004   0.002  0.00  0.00    +0.001 A 
ATOM     25  C   UNL     1       1.195  -0.717  -0.013  0.00  0.00    +0.001 A 
ATOM     26  C   UNL     1       2.394  -0.034  -0.021  0.00  0.00    +0.016 A 
ATOM     27  C   UNL     1       2.392   1.345  -0.013  0.00  0.00    +0.021 A 
ATOM     28  S   UNL     1       3.659   2.588  -0.018  0.00  0.00    -0.082 S 
ATOM     29 CL   UNL     1      -0.034   4.533   0.027  0.00  0.00    -0.082 Cl
ENDBRANCH  17  20
ENDBRANCH   6  16
BRANCH   9  31
ATOM     30  C   UNL     1       5.755  13.713  -1.233  0.00  0.00    -0.017 C 
ATOM     31  C   UNL     1       5.945  13.343   0.239  0.00  0.00    -0.082 C 
ENDBRANCH   9  31
TORSDOF 4
