REMARK  Name = ZINC27842096
REMARK  5 active torsions:
REMARK  status: ('A' for Active; 'I' for Inactive)
REMARK    1  A    between atoms: C_1  and  C_2
REMARK    2  A    between atoms: C_2  and  C_20
REMARK    3  A    between atoms: N_9  and  C_10
REMARK    4  A    between atoms: C_13  and  S_16
REMARK    5  A    between atoms: S_16  and  N_19
REMARK                            x       y       z     vdW  Elec       q    Type
REMARK                         _______ _______ _______ _____ _____    ______ ____
ROOT
ATOM      1  C   UNL     1       1.184   2.109  -0.242  0.00  0.00    +0.040 A 
ATOM      2  C   UNL     1       0.352   1.257   0.474  0.00  0.00    +0.027 A 
ATOM      3  C   UNL     1       0.376  -0.101   0.222  0.00  0.00    +0.030 A 
ATOM      4  C   UNL     1       1.227  -0.613  -0.741  0.00  0.00    +0.105 A 
ATOM      5  C   UNL     1       2.056   0.233  -1.455  0.00  0.00    +0.030 A 
ATOM      6  C   UNL     1       2.038   1.591  -1.208  0.00  0.00    +0.027 A 
ENDROOT
BRANCH   1  15
ATOM      7  C   UNL     1       4.442   5.787  -1.705  0.00  0.00    +0.011 C 
ATOM      8  C   UNL     1       4.753   5.695  -0.210  0.00  0.00    -0.028 C 
ATOM      9  C   UNL     1       4.854   4.227   0.202  0.00  0.00    +0.013 C 
ATOM     10  C   UNL     1       3.525   3.540   0.098  0.00  0.00    +0.057 C 
ATOM     11  C   UNL     1       2.364   4.195   0.107  0.00  0.00    +0.059 C 
ATOM     12  C   UNL     1       2.336   5.663   0.226  0.00  0.00    +0.176 C 
ATOM     13  O   UNL     1       1.313   6.288   0.037  0.00  0.00    -0.291 OA
ATOM     14  C   UNL     1       3.627   6.364   0.591  0.00  0.00    +0.087 C 
ATOM     15  N   UNL     1       1.163   3.483   0.009  0.00  0.00    -0.356 N 
ATOM     16  C   UNL     1       6.079   6.402   0.081  0.00  0.00    +0.011 C 
ATOM     17  H   UNL     1       0.202   4.005   0.130  0.00  0.00    +0.166 HD
ENDBRANCH   1  15
BRANCH   4  18
ATOM     18  S   UNL     1       1.254  -2.345  -1.058  0.00  0.00    +0.056 S 
ATOM     19  O   UNL     1       2.526  -2.635  -1.621  0.00  0.00    -0.153 OA
ATOM     20  O   UNL     1       0.780  -2.982   0.121  0.00  0.00    -0.153 OA
BRANCH  18  21
ATOM     21  N   UNL     1       0.133  -2.645  -2.240  0.00  0.00    -0.204 NA
ATOM     22  H   UNL     1       0.119  -3.721  -2.468  0.00  0.00    +0.144 HD
ATOM     23  H   UNL     1       0.398  -2.081  -3.147  0.00  0.00    +0.144 HD
ENDBRANCH  18  21
ENDBRANCH   4  18
TORSDOF 3
