REMARK  Name = ZINC34756486
REMARK  5 active torsions:
REMARK  status: ('A' for Active; 'I' for Inactive)
REMARK    1  A    between atoms: C_9  and  S_13
REMARK    2  A    between atoms: S_13  and  C_14
REMARK    3  A    between atoms: C_14  and  C_15
REMARK    4  A    between atoms: N_21  and  C_24
REMARK    5  A    between atoms: C_24  and  C_25
REMARK                            x       y       z     vdW  Elec       q    Type
REMARK                         _______ _______ _______ _____ _____    ______ ____
ROOT
ATOM      1  C   UNL     1       0.016   1.515  -0.022  0.00  0.00    +0.005 C 
ATOM      2  C   UNL     1       1.454   2.042  -0.039  0.00  0.00    +0.005 C 
ATOM      3  C   UNL     1       2.099   1.751   1.323  0.00  0.00    +0.043 C 
ATOM      4  C   UNL     1       1.823   0.324   1.685  0.00  0.00    -0.004 A 
ATOM      5  C   UNL     1       0.914  -0.502   1.120  0.00  0.00    -0.025 A 
ATOM      6  C   UNL     1       0.840  -1.853   1.655  0.00  0.00    +0.051 A 
ATOM      7  C   UNL     1      -0.032  -2.897   1.230  0.00  0.00    +0.134 A 
ATOM      8  N   UNL     1       0.088  -4.055   1.875  0.00  0.00    -0.206 NA
ATOM      9  C   UNL     1       0.950  -4.266   2.860  0.00  0.00    +0.191 A 
ATOM     10  N   UNL     1       1.791  -3.330   3.304  0.00  0.00    -0.214 NA
ATOM     11  C   UNL     1       1.734  -2.152   2.713  0.00  0.00    +0.115 A 
ATOM     12  S   UNL     1       2.617  -0.643   2.943  0.00  0.00    -0.073 S 
ATOM     13  N   UNL     1      -0.946  -2.719   0.208  0.00  0.00    -0.318 N 
ATOM     14  C   UNL     1      -0.550  -2.887  -1.199  0.00  0.00    +0.088 C 
ATOM     15  C   UNL     1      -1.553  -3.826  -1.878  0.00  0.00    -0.059 C 
ATOM     16  N   UNL     1      -2.913  -3.306  -1.689  0.00  0.00    +0.387 N 
ATOM     17  C   UNL     1      -3.261  -3.321  -0.262  0.00  0.00    -0.059 C 
ATOM     18  C   UNL     1      -2.344  -2.363   0.497  0.00  0.00    +0.088 C 
ATOM     19  C   UNL     1       0.024  -0.014  -0.020  0.00  0.00    +0.037 C 
ATOM     20  H   UNL     1      -2.962  -2.360  -2.035  0.00  0.00    -0.081 HD
ENDROOT
BRANCH   9  21
ATOM     21  S   UNL     1       0.987  -5.857   3.617  0.00  0.00    -0.077 S 
BRANCH  21  22
ATOM     22  C   UNL     1       2.278  -5.710   4.882  0.00  0.00    +0.172 C 
BRANCH  22  23
ATOM     23  C   UNL     1       2.415  -7.020   5.614  0.00  0.00    +0.221 C 
ATOM     24  O   UNL     1       1.710  -7.960   5.313  0.00  0.00    -0.275 OA
ATOM     25  N   UNL     1       3.320  -7.147   6.605  0.00  0.00    -0.329 N 
ATOM     26  H   UNL     1       3.883  -6.396   6.846  0.00  0.00    +0.145 HD
ATOM     27  H   UNL     1       3.408  -7.991   7.077  0.00  0.00    +0.145 HD
ENDBRANCH  22  23
ENDBRANCH  21  22
ENDBRANCH   9  21
BRANCH  16  28
ATOM     28  C   UNL     1      -3.864  -4.145  -2.431  0.00  0.00    +0.018 C 
BRANCH  28  29
ATOM     29  C   UNL     1      -5.243  -3.544  -2.339  0.00  0.00    +0.194 C 
ATOM     30  O   UNL     1      -5.417  -2.517  -1.717  0.00  0.00    -0.278 OA
ATOM     31  N   UNL     1      -6.282  -4.147  -2.949  0.00  0.00    -0.331 N 
ATOM     32  H   UNL     1      -6.143  -4.967  -3.447  0.00  0.00    +0.145 HD
ATOM     33  H   UNL     1      -7.170  -3.760  -2.890  0.00  0.00    +0.145 HD
ENDBRANCH  28  29
ENDBRANCH  16  28
TORSDOF 5
