REMARK  Name = ZINC59165495
REMARK  10 active torsions:
REMARK  status: ('A' for Active; 'I' for Inactive)
REMARK    1  A    between atoms: C_1  and  C_2
REMARK    2  A    between atoms: C_2  and  C_3
REMARK    3  A    between atoms: C_2  and  C_4
REMARK    4  A    between atoms: C_4  and  C_5
REMARK    5  A    between atoms: C_5  and  C_7
REMARK    6  A    between atoms: C_5  and  N_31
REMARK    7  A    between atoms: N_9  and  N_10
REMARK    8  A    between atoms: N_18  and  C_21
REMARK    9  A    between atoms: C_21  and  C_22
REMARK   10  A    between atoms: C_25  and  N_28
REMARK                            x       y       z     vdW  Elec       q    Type
REMARK                         _______ _______ _______ _____ _____    ______ ____
ROOT
ATOM      1  N   UNL     1      -4.675  -3.232   1.358  0.00  0.00    -0.175 NA
ATOM      2  C   UNL     1      -5.211  -3.376   2.545  0.00  0.00    +0.153 C 
ATOM      3  C   UNL     1      -6.564  -3.885   2.869  0.00  0.00    +0.028 A 
ATOM      4  C   UNL     1      -7.622  -4.340   2.089  0.00  0.00    +0.012 A 
ATOM      5  C   UNL     1      -8.788  -4.761   2.696  0.00  0.00    +0.001 A 
ATOM      6  C   UNL     1      -8.903  -4.730   4.076  0.00  0.00    +0.002 A 
ATOM      7  C   UNL     1      -7.859  -4.280   4.858  0.00  0.00    +0.024 A 
ATOM      8  C   UNL     1      -6.676  -3.852   4.265  0.00  0.00    +0.046 A 
ATOM      9  N   UNL     1      -5.495  -3.361   4.809  0.00  0.00    -0.261 N 
ATOM     10  C   UNL     1      -4.596  -3.071   3.853  0.00  0.00    +0.272 C 
ATOM     11  O   UNL     1      -3.476  -2.631   4.032  0.00  0.00    -0.268 OA
ENDROOT
BRANCH   1  14
ATOM     12  C   UNL     1      -2.819  -2.590   0.013  0.00  0.00    +0.218 C 
ATOM     13  O   UNL     1      -3.452  -2.886  -0.978  0.00  0.00    -0.276 OA
ATOM     14  N   UNL     1      -3.370  -2.737   1.234  0.00  0.00    -0.208 N 
ATOM     15  H   UNL     1      -2.864  -2.501   2.026  0.00  0.00    +0.177 HD
BRANCH  12  16
ATOM     16  C   UNL     1      -1.416  -2.058  -0.121  0.00  0.00    +0.015 C 
BRANCH  16  17
ATOM     17  N   UNL     1      -0.875  -2.427  -1.436  0.00  0.00    +0.386 N 
ATOM     18  H   UNL     1      -0.863  -3.432  -1.524  0.00  0.00    -0.089 HD
ATOM     19  H   UNL     1      -1.455  -2.033  -2.161  0.00  0.00    -0.089 HD
ATOM     20  H   UNL     1       0.065  -2.071  -1.526  0.00  0.00    -0.089 HD
ENDBRANCH  16  17
BRANCH  16  21
ATOM     21  C   UNL     1      -1.433  -0.534   0.013  0.00  0.00    -0.004 C 
BRANCH  21  23
ATOM     22  C   UNL     1      -0.019   1.526   0.010  0.00  0.00    +0.007 C 
ATOM     23  C   UNL     1       0.002  -0.004   0.002  0.00  0.00    -0.018 C 
ATOM     24  C   UNL     1       0.742  -0.511   1.242  0.00  0.00    +0.007 C 
ENDBRANCH  21  23
ENDBRANCH  16  21
ENDBRANCH  12  16
ENDBRANCH   1  14
BRANCH   9  25
ATOM     25  C   UNL     1      -5.256  -3.189   6.245  0.00  0.00    +0.149 C 
BRANCH  25  26
ATOM     26  C   UNL     1      -4.660  -4.452   6.810  0.00  0.00    -0.030 A 
ATOM     27  C   UNL     1      -5.485  -5.449   7.296  0.00  0.00    +0.007 A 
ATOM     28  C   UNL     1      -4.937  -6.608   7.814  0.00  0.00    +0.033 A 
ATOM     29  C   UNL     1      -3.565  -6.770   7.846  0.00  0.00    +0.126 A 
ATOM     30  C   UNL     1      -2.740  -5.774   7.359  0.00  0.00    +0.033 A 
ATOM     31  C   UNL     1      -3.287  -4.617   6.837  0.00  0.00    +0.007 A 
BRANCH  29  32
ATOM     32  N   UNL     1      -2.979  -8.010   8.402  0.00  0.00    +0.056 N 
ATOM     33  O   UNL     1      -3.700  -8.882   8.828  0.00  0.00    -0.126 OA
ATOM     34  O   UNL     1      -1.778  -8.152   8.430  0.00  0.00    -0.126 OA
ENDBRANCH  29  32
ENDBRANCH  25  26
ENDBRANCH   9  25
TORSDOF 8
