REMARK  Name = ZINC10002020
REMARK  10 active torsions:
REMARK  status: ('A' for Active; 'I' for Inactive)
REMARK    1  A    between atoms: C_1  and  C_2
REMARK    2  A    between atoms: C_2  and  C_3
REMARK    3  A    between atoms: C_2  and  C_4
REMARK    4  A    between atoms: C_4  and  C_5
REMARK    5  A    between atoms: C_5  and  C_7
REMARK    6  A    between atoms: C_5  and  N_22
REMARK    7  A    between atoms: N_9  and  N_10
REMARK    8  A    between atoms: C_11  and  C_12
REMARK    9  A    between atoms: C_16  and  N_18
REMARK   10  A    between atoms: C_23  and  C_25
REMARK                            x       y       z     vdW  Elec       q    Type
REMARK                         _______ _______ _______ _____ _____    ______ ____
ROOT
ATOM      1  C   UNL     1      -3.865   6.187   0.054  0.00  0.00    +0.161 C 
ENDROOT
BRANCH   1   2
ATOM      2  C   UNL     1      -2.552   5.448   0.044  0.00  0.00    +0.253 C 
ATOM      3  O   UNL     1      -1.508   6.066   0.042  0.00  0.00    -0.272 OA
ATOM      4  N   UNL     1      -2.537   4.100   0.036  0.00  0.00    -0.205 N 
ATOM      5  H   UNL     1      -3.372   3.606   0.038  0.00  0.00    +0.177 HD
BRANCH   4   6
ATOM      6  N   UNL     1      -1.316   3.413   0.027  0.00  0.00    -0.188 NA
ATOM      7  C   UNL     1      -1.302   2.116   0.020  0.00  0.00    +0.138 C 
BRANCH   7   8
ATOM      8  C   UNL     1      -0.017   1.393   0.010  0.00  0.00    -0.003 A 
ATOM      9  C   UNL     1       1.187   2.101   0.002  0.00  0.00    +0.011 A 
ATOM     10  C   UNL     1       2.385   1.419  -0.013  0.00  0.00    +0.018 A 
ATOM     11  C   UNL     1       2.397   0.034  -0.020  0.00  0.00    +0.048 A 
ATOM     12  C   UNL     1       1.208  -0.674  -0.013  0.00  0.00    +0.141 A 
ATOM     13  C   UNL     1       0.002  -0.004   0.002  0.00  0.00    +0.043 A 
ATOM     14 BR   UNL     1       4.045  -0.893  -0.041  0.00  0.00    -0.048 Br
BRANCH  12  15
ATOM     15  N   UNL     1       1.230  -2.154  -0.021  0.00  0.00    +0.058 N 
ATOM     16  O   UNL     1       0.184  -2.779  -0.015  0.00  0.00    -0.126 OA
ATOM     17  O   UNL     1       2.293  -2.747  -0.035  0.00  0.00    -0.126 OA
ENDBRANCH  12  15
ENDBRANCH   7   8
ENDBRANCH   4   6
ENDBRANCH   1   2
BRANCH   1  18
ATOM     18  N   UNL     1      -3.614   7.630   0.061  0.00  0.00    -0.300 N 
ATOM     19  C   UNL     1      -4.538   8.473   0.563  0.00  0.00    +0.245 C 
ATOM     20  O   UNL     1      -5.580   8.036   1.010  0.00  0.00    -0.270 OA
ATOM     21  H   UNL     1      -2.782   7.979  -0.296  0.00  0.00    +0.150 HD
BRANCH  19  22
ATOM     22  C   UNL     1      -4.284   9.929   0.570  0.00  0.00    +0.037 A 
ATOM     23  C   UNL     1      -3.085  10.434   0.062  0.00  0.00    +0.014 A 
ATOM     24  C   UNL     1      -2.857  11.793   0.065  0.00  0.00    +0.021 A 
ATOM     25  C   UNL     1      -3.808  12.657   0.582  0.00  0.00    +0.041 A 
ATOM     26  C   UNL     1      -4.996  12.162   1.093  0.00  0.00    +0.021 A 
ATOM     27  C   UNL     1      -5.239  10.805   1.089  0.00  0.00    +0.014 A 
ATOM     28 CL   UNL     1      -3.510  14.367   0.589  0.00  0.00    -0.084 Cl
ENDBRANCH  19  22
ENDBRANCH   1  18
BRANCH   1  29
ATOM     29  C   UNL     1      -4.670   5.815  -1.193  0.00  0.00    +0.034 C 
BRANCH  29  31
ATOM     30  C   UNL     1      -6.810   6.199  -2.424  0.00  0.00    +0.007 C 
ATOM     31  C   UNL     1      -6.052   6.467  -1.122  0.00  0.00    -0.015 C 
ATOM     32  C   UNL     1      -6.834   5.878   0.054  0.00  0.00    +0.007 C 
ENDBRANCH  29  31
ENDBRANCH   1  29
TORSDOF 8
