REMARK  Name = ZINC31545053
REMARK  11 active torsions:
REMARK  status: ('A' for Active; 'I' for Inactive)
REMARK    1  A    between atoms: C_1  and  C_2
REMARK    2  A    between atoms: C_7  and  N_12
REMARK    3  A    between atoms: C_9  and  C_11
REMARK    4  A    between atoms: N_12  and  C_13
REMARK    5  A    between atoms: C_13  and  N_15
REMARK    6  A    between atoms: N_15  and  N_16
REMARK    7  A    between atoms: C_17  and  C_19
REMARK    8  A    between atoms: C_19  and  C_20
REMARK    9  A    between atoms: C_20  and  N_21
REMARK   10  A    between atoms: C_22  and  C_24
REMARK   11  A    between atoms: C_27  and  C_29
REMARK                            x       y       z     vdW  Elec       q    Type
REMARK                         _______ _______ _______ _____ _____    ______ ____
ROOT
ATOM      1  N   UNL     1       0.703  -1.080   3.447  0.00  0.00    -0.246 N 
ATOM      2  H   UNL     1       0.165  -1.197   4.399  0.00  0.00    +0.172 HD
ENDROOT
BRANCH   1   3
ATOM      3  N   UNL     1       2.066  -1.394   3.370  0.00  0.00    -0.235 N 
ATOM      4  C   UNL     1       2.718  -1.841   4.462  0.00  0.00    +0.231 C 
ATOM      5  O   UNL     1       2.125  -1.970   5.511  0.00  0.00    -0.274 OA
ATOM      6  H   UNL     1       2.604  -1.277   2.418  0.00  0.00    +0.173 HD
BRANCH   4   7
ATOM      7  C   UNL     1       4.184  -2.179   4.378  0.00  0.00    +0.116 C 
BRANCH   7   8
ATOM      8  C   UNL     1       4.676  -2.658   5.745  0.00  0.00    +0.113 C 
BRANCH   8   9
ATOM      9  N   UNL     1       6.101  -2.987   5.664  0.00  0.00    -0.315 N 
ATOM     10  C   UNL     1       6.753  -3.433   6.756  0.00  0.00    +0.216 C 
ATOM     11  O   UNL     1       6.160  -3.563   7.806  0.00  0.00    -0.276 OA
ATOM     12  H   UNL     1       6.639  -2.869   4.712  0.00  0.00    +0.149 HD
BRANCH  10  13
ATOM     13  C   UNL     1       8.219  -3.771   6.673  0.00  0.00    +0.078 C 
ATOM     14  C   UNL     1       8.613  -5.245   6.797  0.00  0.00    +0.017 C 
ATOM     15  C   UNL     1       8.902  -4.275   7.946  0.00  0.00    -0.002 C 
ATOM     16  C   UNL     1       8.043  -4.397   9.207  0.00  0.00    +0.008 C 
ENDBRANCH  10  13
ENDBRANCH   8   9
ENDBRANCH   7   8
ENDBRANCH   4   7
ENDBRANCH   1   3
BRANCH   1  17
ATOM     17  C   UNL     1       0.051  -0.633   2.355  0.00  0.00    +0.147 C 
ATOM     18  S   UNL     1      -1.615  -0.249   2.450  0.00  0.00    -0.017 S 
BRANCH  17  19
ATOM     19  N   UNL     1       0.711  -0.489   1.189  0.00  0.00    -0.322 N 
ATOM     20  H   UNL     1       1.781  -0.736   1.128  0.00  0.00    +0.148 HD
BRANCH  19  26
ATOM     21  C   UNL     1       2.870  -0.461  -2.526  0.00  0.00    +0.008 C 
ATOM     22  C   UNL     1       2.154   0.032  -1.268  0.00  0.00    -0.009 C 
ATOM     23  C   UNL     1       2.133   1.562  -1.259  0.00  0.00    +0.003 C 
ATOM     24  C   UNL     1       1.417   2.055  -0.000  0.00  0.00    +0.002 C 
ATOM     25  C   UNL     1      -0.019   1.526   0.010  0.00  0.00    +0.022 C 
ATOM     26  C   UNL     1       0.002  -0.004   0.002  0.00  0.00    +0.075 C 
ATOM     27  C   UNL     1       0.718  -0.497  -1.257  0.00  0.00    +0.009 C 
ATOM     28  C   UNL     1       0.739  -2.027  -1.265  0.00  0.00    +0.009 C 
ENDBRANCH  19  26
ENDBRANCH  17  19
ENDBRANCH   1  17
TORSDOF 8
