REMARK  Name = ZINC37172259
REMARK  11 active torsions:
REMARK  status: ('A' for Active; 'I' for Inactive)
REMARK    1  A    between atoms: C_1  and  C_2
REMARK    2  A    between atoms: C_2  and  C_3
REMARK    3  A    between atoms: C_3  and  C_5
REMARK    4  A    between atoms: C_3  and  C_6
REMARK    5  A    between atoms: C_6  and  N_7
REMARK    6  A    between atoms: N_7  and  C_8
REMARK    7  A    between atoms: N_7  and  C_9
REMARK    8  A    between atoms: C_9  and  C_10
REMARK    9  A    between atoms: C_10  and  C_11
REMARK   10  A    between atoms: N_13  and  C_14
REMARK   11  A    between atoms: C_15  and  N_22
REMARK                            x       y       z     vdW  Elec       q    Type
REMARK                         _______ _______ _______ _____ _____    ______ ____
ROOT
ATOM      1  C   UNL     1       3.318  -5.999  -2.775  0.00  0.00    +0.215 C 
ATOM      2  O   UNL     1       2.980  -6.600  -1.777  0.00  0.00    -0.276 OA
ATOM      3  N   UNL     1       3.777  -6.677  -3.846  0.00  0.00    -0.283 N 
ATOM      4  H   UNL     1       4.094  -6.194  -4.626  0.00  0.00    +0.155 HD
ENDROOT
BRANCH   3   5
ATOM      5  C   UNL     1       3.797  -8.079  -3.834  0.00  0.00    +0.073 A 
ATOM      6  C   UNL     1       4.912  -8.767  -4.311  0.00  0.00    +0.049 A 
ATOM      7  C   UNL     1       4.927 -10.153  -4.295  0.00  0.00    +0.044 A 
ATOM      8  C   UNL     1       3.836 -10.851  -3.807  0.00  0.00    +0.044 A 
ATOM      9  C   UNL     1       2.729 -10.169  -3.334  0.00  0.00    +0.042 A 
ATOM     10  C   UNL     1       2.710  -8.786  -3.341  0.00  0.00    +0.065 A 
ATOM     11 CL   UNL     1       1.322  -7.934  -2.739  0.00  0.00    -0.082 Cl
ATOM     12 CL   UNL     1       3.856 -12.587  -3.790  0.00  0.00    -0.083 Cl
BRANCH   6  13
ATOM     13  N   UNL     1       6.014  -8.060  -4.804  0.00  0.00    -0.356 N 
ATOM     14  H   UNL     1       6.003  -7.090  -4.815  0.00  0.00    +0.142 HD
ATOM     15  H   UNL     1       6.789  -8.539  -5.136  0.00  0.00    +0.142 HD
ENDBRANCH   6  13
ENDBRANCH   3   5
BRANCH   1  16
ATOM     16  C   UNL     1       3.224  -4.496  -2.818  0.00  0.00    +0.077 C 
BRANCH  16  17
ATOM     17  C   UNL     1       2.677  -3.981  -1.485  0.00  0.00    -0.070 C 
BRANCH  17  18
ATOM     18  N   UNL     1       2.586  -2.516  -1.526  0.00  0.00    +0.378 N 
ATOM     19  C   UNL     1       1.595  -2.115  -2.534  0.00  0.00    -0.096 C 
ATOM     20  H   UNL     1       3.486  -2.129  -1.768  0.00  0.00    -0.082 HD
BRANCH  18  21
ATOM     21  C   UNL     1       2.174  -2.013  -0.209  0.00  0.00    -0.076 C 
BRANCH  21  22
ATOM     22  C   UNL     1       2.217  -0.484  -0.210  0.00  0.00    -0.031 C 
ATOM     23  C   UNL     1       1.660   0.043   1.114  0.00  0.00    +0.005 C 
BRANCH  22  25
ATOM     24  C   UNL     1       3.695   1.510  -0.503  0.00  0.00    +0.004 C 
ATOM     25  C   UNL     1       3.664  -0.015  -0.377  0.00  0.00    -0.002 C 
ENDBRANCH  22  25
ENDBRANCH  21  22
ENDBRANCH  18  21
ENDBRANCH  17  18
ENDBRANCH  16  17
ENDBRANCH   1  16
TORSDOF 8
