REMARK  Name = ZINC15936863
REMARK  12 active torsions:
REMARK  status: ('A' for Active; 'I' for Inactive)
REMARK    1  A    between atoms: C_1  and  C_2
REMARK    2  A    between atoms: C_8  and  N_10
REMARK    3  A    between atoms: N_10  and  C_11
REMARK    4  A    between atoms: C_11  and  C_12
REMARK    5  A    between atoms: N_14  and  C_15
REMARK    6  A    between atoms: C_18  and  N_34
REMARK    7  A    between atoms: C_20  and  C_21
REMARK    8  A    between atoms: N_23  and  C_24
REMARK    9  A    between atoms: C_26  and  O_32
REMARK   10  A    between atoms: C_28  and  O_30
REMARK   11  A    between atoms: O_30  and  C_31
REMARK   12  A    between atoms: O_32  and  C_33
REMARK                            x       y       z     vdW  Elec       q    Type
REMARK                         _______ _______ _______ _____ _____    ______ ____
ROOT
ATOM      1  C   UNL     1      -0.205   0.018   7.207  0.00  0.00    +0.046 A 
ATOM      2  C   UNL     1      -1.296   0.863   7.050  0.00  0.00    +0.026 A 
ATOM      3  C   UNL     1      -1.936   1.379   8.159  0.00  0.00    +0.034 A 
ATOM      4  C   UNL     1      -1.497   1.060   9.434  0.00  0.00    +0.127 A 
ATOM      5  C   UNL     1      -0.416   0.224   9.609  0.00  0.00    +0.047 A 
ATOM      6  C   UNL     1       0.238  -0.311   8.497  0.00  0.00    +0.060 A 
ENDROOT
BRANCH   1   9
ATOM      7  C   UNL     1      -0.223  -0.638   4.926  0.00  0.00    +0.200 C 
ATOM      8  O   UNL     1      -1.412  -0.402   4.877  0.00  0.00    -0.278 OA
ATOM      9  N   UNL     1       0.443  -0.504   6.090  0.00  0.00    -0.286 N 
ATOM     10  H   UNL     1       1.374  -0.771   6.149  0.00  0.00    +0.155 HD
BRANCH   7  11
ATOM     11  C   UNL     1       0.509  -1.081   3.685  0.00  0.00    +0.016 C 
BRANCH  11  12
ATOM     12  N   UNL     1      -0.433  -1.148   2.560  0.00  0.00    +0.387 N 
ATOM     13  H   UNL     1      -0.837  -0.237   2.404  0.00  0.00    -0.085 HD
ATOM     14  H   UNL     1      -1.165  -1.809   2.772  0.00  0.00    -0.085 HD
BRANCH  12  21
ATOM     15  C   UNL     1      -1.437  -0.448  -0.067  0.00  0.00    +0.006 C 
ATOM     16  C   UNL     1      -0.720  -1.771   0.208  0.00  0.00    -0.028 C 
ATOM     17  C   UNL     1       0.024  -2.220  -1.051  0.00  0.00    +0.002 C 
ATOM     18  C   UNL     1       1.050  -1.156  -1.445  0.00  0.00    +0.000 C 
ATOM     19  C   UNL     1       2.050  -0.965  -0.303  0.00  0.00    -0.002 C 
ATOM     20  C   UNL     1       1.307  -0.516   0.956  0.00  0.00    -0.015 C 
ATOM     21  C   UNL     1       0.281  -1.580   1.350  0.00  0.00    -0.068 C 
ENDBRANCH  12  21
ENDBRANCH  11  12
ENDBRANCH   7  11
ENDBRANCH   1   9
BRANCH   6  22
ATOM     22  C   UNL     1       1.392  -1.212   8.677  0.00  0.00    +0.250 C 
ATOM     23  O   UNL     1       2.017  -1.601   7.709  0.00  0.00    -0.270 OA
ATOM     24  N   UNL     1       1.753  -1.606   9.915  0.00  0.00    -0.281 N 
ATOM     25  H   UNL     1       1.307  -1.232  10.691  0.00  0.00    +0.155 HD
BRANCH  24  26
ATOM     26  C   UNL     1       2.769  -2.552  10.079  0.00  0.00    +0.041 A 
ATOM     27  C   UNL     1       3.506  -2.583  11.256  0.00  0.00    +0.069 A 
ATOM     28  C   UNL     1       4.513  -3.522  11.418  0.00  0.00    +0.125 A 
ATOM     29  C   UNL     1       4.784  -4.430  10.406  0.00  0.00    +0.091 A 
ATOM     30  C   UNL     1       4.049  -4.400   9.230  0.00  0.00    +0.125 A 
ATOM     31  C   UNL     1       3.038  -3.465   9.069  0.00  0.00    +0.069 A 
BRANCH  30  32
ATOM     32  O   UNL     1       4.316  -5.290   8.239  0.00  0.00    -0.495 OA
ATOM     33  C   UNL     1       5.367  -6.229   8.476  0.00  0.00    +0.277 C 
ENDBRANCH  30  32
BRANCH  28  34
ATOM     34  O   UNL     1       5.234  -3.551  12.569  0.00  0.00    -0.495 OA
ATOM     35  C   UNL     1       6.256  -4.545  12.669  0.00  0.00    +0.277 C 
ENDBRANCH  28  34
ENDBRANCH  24  26
ENDBRANCH   6  22
BRANCH   4  36
ATOM     36  N   UNL     1      -2.193   1.621  10.614  0.00  0.00    +0.056 N 
ATOM     37  O   UNL     1      -3.142   2.355  10.463  0.00  0.00    -0.126 OA
ATOM     38  O   UNL     1      -1.813   1.344  11.727  0.00  0.00    -0.126 OA
ENDBRANCH   4  36
TORSDOF 9
