REMARK  Name = ZINC43604524
REMARK  9 active torsions:
REMARK  status: ('A' for Active; 'I' for Inactive)
REMARK    1  A    between atoms: C_1  and  C_2
REMARK    2  A    between atoms: C_6  and  C_37
REMARK    3  A    between atoms: C_6  and  O_38
REMARK    4  A    between atoms: C_7  and  O_36
REMARK    5  A    between atoms: C_17  and  C_19
REMARK    6  A    between atoms: C_19  and  N_20
REMARK    7  A    between atoms: N_23  and  C_26
REMARK    8  A    between atoms: C_30  and  C_32
REMARK    9  A    between atoms: O_38  and  C_39
REMARK                            x       y       z     vdW  Elec       q    Type
REMARK                         _______ _______ _______ _____ _____    ______ ____
ROOT
ATOM      1  C   UNL     1       0.132   1.434   0.040  0.00  0.00    +0.014 C 
ATOM      2  C   UNL     1       0.247  -0.092   0.032  0.00  0.00    +0.003 C 
ATOM      3  C   UNL     1       1.109  -0.538  -1.153  0.00  0.00    +0.010 C 
ATOM      4  C   UNL     1       2.518   0.037  -1.012  0.00  0.00    +0.003 C 
ATOM      5  C   UNL     1       3.146  -0.475   0.287  0.00  0.00    +0.037 C 
ATOM      6  C   UNL     1       2.292  -0.021   1.472  0.00  0.00    +0.095 C 
ATOM      7  C   UNL     1       0.889  -0.569   1.340  0.00  0.00    +0.100 C 
ATOM      8  C   UNL     1       0.050  -0.036   2.503  0.00  0.00    +0.046 C 
ATOM      9  C   UNL     1      -1.379  -0.506   2.430  0.00  0.00    +0.044 C 
ATOM     10  C   UNL     1      -2.044  -0.261   1.060  0.00  0.00    +0.181 C 
ATOM     11  C   UNL     1      -1.144  -0.713  -0.078  0.00  0.00    +0.054 C 
ATOM     12  O   UNL     1      -3.149  -1.207   1.112  0.00  0.00    -0.461 OA
ATOM     13  C   UNL     1      -2.672  -2.360   1.629  0.00  0.00    +0.309 C 
ATOM     14  O   UNL     1      -3.091  -3.467   1.387  0.00  0.00    -0.251 OA
ATOM     15  C   UNL     1      -1.519  -2.035   2.553  0.00  0.00    +0.088 C 
ATOM     16  C   UNL     1       2.921  -0.523   2.773  0.00  0.00    +0.044 C 
ENDROOT
BRANCH   7  17
ATOM     17  O   UNL     1       0.932  -1.997   1.369  0.00  0.00    -0.385 OA
ATOM     18  H   UNL     1       1.380  -2.361   2.145  0.00  0.00    +0.210 HD
ENDBRANCH   7  17
BRANCH   6  19
ATOM     19  O   UNL     1       2.232   1.406   1.495  0.00  0.00    -0.374 OA
ATOM     20  C   UNL     1       3.506   2.040   1.624  0.00  0.00    +0.194 C 
ENDBRANCH   6  19
BRANCH  15  21
ATOM     21  C   UNL     1      -1.863  -2.434   3.989  0.00  0.00    -0.064 C 
BRANCH  21  22
ATOM     22  N   UNL     1      -0.735  -2.108   4.872  0.00  0.00    +0.382 N 
ATOM     23  C   UNL     1       0.417  -2.948   4.521  0.00  0.00    -0.060 C 
ATOM     24  C   UNL     1       1.628  -2.531   5.362  0.00  0.00    +0.086 C 
ATOM     25  N   UNL     1       1.248  -2.583   6.782  0.00  0.00    -0.333 N 
ATOM     26  C   UNL     1       0.012  -1.901   7.195  0.00  0.00    +0.086 C 
ATOM     27  C   UNL     1      -1.122  -2.348   6.267  0.00  0.00    -0.060 C 
ATOM     28  H   UNL     1      -0.488  -1.137   4.755  0.00  0.00    -0.082 HD
BRANCH  25  29
ATOM     29  C   UNL     1       2.040  -3.260   7.713  0.00  0.00    +0.030 A 
ATOM     30  C   UNL     1       3.267  -3.787   7.330  0.00  0.00    +0.023 A 
ATOM     31  C   UNL     1       4.048  -4.456   8.253  0.00  0.00    +0.002 A 
ATOM     32  C   UNL     1       3.609  -4.601   9.556  0.00  0.00    +0.012 A 
ATOM     33  C   UNL     1       2.388  -4.077   9.940  0.00  0.00    +0.057 A 
ATOM     34  C   UNL     1       1.605  -3.402   9.024  0.00  0.00    +0.035 A 
BRANCH  33  35
ATOM     35  C   UNL     1       1.914  -4.239  11.361  0.00  0.00    +0.417 C 
ATOM     36  F   UNL     1       2.872  -4.947  12.095  0.00  0.00    -0.166 F 
ATOM     37  F   UNL     1       1.724  -2.978  11.936  0.00  0.00    -0.166 F 
ATOM     38  F   UNL     1       0.705  -4.943  11.372  0.00  0.00    -0.166 F 
ENDBRANCH  33  35
ENDBRANCH  25  29
ENDBRANCH  21  22
ENDBRANCH  15  21
TORSDOF 6
