REMARK  Name = ZINC04085648
REMARK  3 active torsions:
REMARK  status: ('A' for Active; 'I' for Inactive)
REMARK    1  A    between atoms: C_1  and  O_2
REMARK    2  A    between atoms: O_2  and  C_3
REMARK    3  A    between atoms: C_8  and  C_13
REMARK                            x       y       z     vdW  Elec       q    Type
REMARK                         _______ _______ _______ _____ _____    ______ ____
ROOT
ATOM      1  C   UNL     1      -2.306   4.512   0.122  0.00  0.00    +0.263 C 
ATOM      2  O   UNL     1      -2.349   5.149   1.159  0.00  0.00    -0.268 OA
ATOM      3  N   UNL     1      -1.749   3.285   0.108  0.00  0.00    -0.295 N 
ATOM      4  C   UNL     1      -1.818   2.443  -1.092  0.00  0.00    +0.113 C 
ATOM      5  C   UNL     1      -2.325   1.054  -0.732  0.00  0.00    +0.027 C 
ATOM      6  C   UNL     1      -1.541   0.472   0.445  0.00  0.00    +0.018 C 
ATOM      7  C   UNL     1      -1.703   1.408   1.645  0.00  0.00    +0.054 C 
ATOM      8  C   UNL     1      -1.056   2.759   1.296  0.00  0.00    +0.117 C 
ATOM      9  C   UNL     1      -3.171   1.654   1.904  0.00  0.00    +0.027 A 
ATOM     10  C   UNL     1      -3.542   1.946   3.179  0.00  0.00    +0.022 A 
ATOM     11  C   UNL     1      -4.874   2.253   3.479  0.00  0.00    +0.007 A 
ATOM     12  C   UNL     1      -5.788   2.282   2.467  0.00  0.00    +0.070 A 
ATOM     13  C   UNL     1      -5.372   1.979   1.163  0.00  0.00    +0.251 A 
ATOM     14  O   UNL     1      -6.165   2.067   0.240  0.00  0.00    -0.268 OA
ATOM     15  N   UNL     1      -4.096   1.590   0.919  0.00  0.00    -0.312 N 
ATOM     16  C   UNL     1      -3.809   1.055  -0.414  0.00  0.00    +0.130 C 
ENDROOT
BRANCH   1  22
ATOM     17  C   UNL     1      -4.138   6.383  -5.312  0.00  0.00    +0.122 A 
ATOM     18  C   UNL     1      -4.957   7.231  -4.567  0.00  0.00    +0.046 A 
ATOM     19  C   UNL     1      -4.926   7.205  -3.205  0.00  0.00    +0.013 A 
ATOM     20  C   UNL     1      -4.065   6.318  -2.543  0.00  0.00    +0.001 A 
ATOM     21  C   UNL     1      -3.810   6.053  -1.177  0.00  0.00    +0.040 A 
ATOM     22  C   UNL     1      -2.861   5.081  -1.113  0.00  0.00    +0.103 A 
ATOM     23  N   UNL     1      -2.507   4.710  -2.397  0.00  0.00    -0.350 N 
ATOM     24  H   UNL     1      -1.852   4.033  -2.629  0.00  0.00    +0.166 HD
ATOM     25  C   UNL     1      -3.236   5.459  -3.291  0.00  0.00    +0.050 A 
ATOM     26  C   UNL     1      -3.282   5.501  -4.681  0.00  0.00    +0.071 A 
BRANCH  17  28
ATOM     27  C   UNL     1      -5.089   7.356  -7.261  0.00  0.00    +0.277 C 
ATOM     28  O   UNL     1      -4.183   6.423  -6.669  0.00  0.00    -0.495 OA
ENDBRANCH  17  28
ENDBRANCH   1  22
TORSDOF 2
