REMARK  Name = ZINC01872649
REMARK  11 active torsions:
REMARK  status: ('A' for Active; 'I' for Inactive)
REMARK    1  A    between atoms: C_1  and  O_2
REMARK    2  A    between atoms: O_2  and  C_3
REMARK    3  A    between atoms: C_7  and  O_11
REMARK    4  A    between atoms: C_8  and  O_9
REMARK    5  A    between atoms: O_9  and  C_10
REMARK    6  A    between atoms: O_11  and  C_12
REMARK    7  A    between atoms: C_16  and  N_25
REMARK    8  A    between atoms: C_21  and  N_54
REMARK    9  A    between atoms: N_25  and  C_26
REMARK   10  A    between atoms: C_26  and  C_27
REMARK   11  A    between atoms: C_27  and  O_28
REMARK                            x       y       z     vdW  Elec       q    Type
REMARK                         _______ _______ _______ _____ _____    ______ ____
ROOT
ATOM      1  C   UNL     1      -1.944   1.135   1.387  0.00  0.00    +0.165 A 
ATOM      2  C   UNL     1      -2.546   0.340   0.419  0.00  0.00    +0.054 A 
ATOM      3  C   UNL     1      -3.870  -0.022   0.548  0.00  0.00    -0.033 A 
ATOM      4  C   UNL     1      -4.605   0.413   1.647  0.00  0.00    +0.031 A 
ATOM      5  C   UNL     1      -4.008   1.219   2.620  0.00  0.00    +0.173 A 
ATOM      6  C   UNL     1      -2.674   1.579   2.484  0.00  0.00    +0.204 A 
ATOM      7  C   UNL     1      -6.037   0.013   1.795  0.00  0.00    -0.012 A 
ATOM      8  C   UNL     1      -6.931   1.011   2.087  0.00  0.00    +0.011 A 
ATOM      9  C   UNL     1      -8.265   1.022   2.255  0.00  0.00    +0.027 A 
ATOM     10  C   UNL     1      -9.146  -0.012   2.147  0.00  0.00    +0.075 A 
ATOM     11  C   UNL     1      -8.812  -1.329   1.837  0.00  0.00    +0.200 A 
ATOM     12  O   UNL     1      -9.753  -2.103   1.722  0.00  0.00    -0.286 OA
ATOM     13  C   UNL     1      -7.573  -1.868   1.645  0.00  0.00    +0.055 A 
ATOM     14  C   UNL     1      -6.336  -1.339   1.631  0.00  0.00    -0.050 A 
ATOM     15  C   UNL     1      -5.192  -2.314   1.438  0.00  0.00    -0.043 C 
ATOM     16  C   UNL     1      -4.682  -2.303   0.012  0.00  0.00    -0.007 C 
ATOM     17  C   UNL     1      -4.528  -0.875  -0.505  0.00  0.00    +0.035 C 
ENDROOT
BRANCH  15  20
ATOM     18  H   UNL     1      -4.392  -1.981   3.306  0.00  0.00    -0.089 HD
ATOM     19  H   UNL     1      -3.290  -2.540   2.193  0.00  0.00    -0.089 HD
ATOM     20  N   UNL     1      -4.090  -1.924   2.335  0.00  0.00    +0.383 N 
ATOM     21  H   UNL     1      -3.810  -0.959   2.127  0.00  0.00    -0.089 HD
ENDBRANCH  15  20
BRANCH   1  23
ATOM     22  C   UNL     1       0.054   0.997   0.106  0.00  0.00    +0.277 C 
ATOM     23  O   UNL     1      -0.637   1.486   1.257  0.00  0.00    -0.491 OA
ENDBRANCH   1  23
BRANCH   6  24
ATOM     24  O   UNL     1      -2.081   2.366   3.423  0.00  0.00    -0.488 OA
ATOM     25  C   UNL     1      -2.087   3.775   3.186  0.00  0.00    +0.277 C 
ENDBRANCH   6  24
BRANCH   5  26
ATOM     26  O   UNL     1      -4.727   1.645   3.692  0.00  0.00    -0.491 OA
ATOM     27  C   UNL     1      -4.625   0.874   4.890  0.00  0.00    +0.277 C 
ENDBRANCH   5  26
BRANCH  10  28
ATOM     28  N   UNL     1     -10.485   0.269   2.363  0.00  0.00    -0.339 N 
ATOM     29  H   UNL     1     -11.146  -0.438   2.297  0.00  0.00    +0.146 HD
BRANCH  28  30
ATOM     30  C   UNL     1     -10.902   1.633   2.693  0.00  0.00    +0.129 C 
BRANCH  30  31
ATOM     31  C   UNL     1     -12.420   1.671   2.881  0.00  0.00    +0.174 C 
BRANCH  31  32
ATOM     32  O   UNL     1     -12.779   0.881   4.017  0.00  0.00    -0.393 OA
ATOM     33  H   UNL     1     -13.729   0.859   4.196  0.00  0.00    +0.209 HD
ENDBRANCH  31  32
ENDBRANCH  30  31
ENDBRANCH  28  30
ENDBRANCH  10  28
TORSDOF 8
