REMARK  Name = ZINC37805201
REMARK  7 active torsions:
REMARK  status: ('A' for Active; 'I' for Inactive)
REMARK    1  A    between atoms: C_1  and  C_2
REMARK    2  A    between atoms: C_2  and  C_4
REMARK    3  A    between atoms: C_2  and  N_18
REMARK    4  A    between atoms: C_4  and  C_5
REMARK    5  A    between atoms: C_13  and  C_15
REMARK    6  A    between atoms: C_15  and  C_16
REMARK    7  A    between atoms: C_15  and  C_17
REMARK                            x       y       z     vdW  Elec       q    Type
REMARK                         _______ _______ _______ _____ _____    ______ ____
ROOT
ATOM      1  C   UNL     1      -0.421  -2.847  -2.156  0.00  0.00    +0.214 C 
ATOM      2  O   UNL     1      -0.950  -3.539  -1.311  0.00  0.00    -0.276 OA
ATOM      3  N   UNL     1       0.466  -3.390  -3.013  0.00  0.00    -0.299 N 
ATOM      4  C   UNL     1       1.119  -2.563  -4.037  0.00  0.00    +0.126 C 
ATOM      5  C   UNL     1       2.639  -2.706  -3.887  0.00  0.00    +0.126 C 
ATOM      6  N   UNL     1       2.971  -4.136  -3.814  0.00  0.00    -0.298 N 
ATOM      7  C   UNL     1       2.318  -4.963  -2.790  0.00  0.00    +0.126 C 
ATOM      8  C   UNL     1       0.802  -4.819  -2.936  0.00  0.00    +0.126 C 
ATOM      9  C   UNL     1       3.858  -4.679  -4.671  0.00  0.00    +0.218 C 
ATOM     10  O   UNL     1       4.193  -5.838  -4.544  0.00  0.00    -0.275 OA
ENDROOT
BRANCH   9  11
ATOM     11  C   UNL     1       4.433  -3.847  -5.788  0.00  0.00    +0.069 C 
ATOM     12  C   UNL     1       5.641  -3.064  -5.271  0.00  0.00    +0.017 C 
ATOM     13  C   UNL     1       4.871  -4.762  -6.933  0.00  0.00    +0.017 C 
ENDBRANCH   9  11
BRANCH   1  14
ATOM     14  C   UNL     1      -0.756  -1.381  -2.247  0.00  0.00    +0.079 C 
BRANCH  14  16
ATOM     15  C   UNL     1      -2.214   0.434  -1.338  0.00  0.00    -0.014 C 
ATOM     16  C   UNL     1      -1.780  -1.024  -1.168  0.00  0.00    -0.070 C 
BRANCH  16  17
ATOM     17  N   UNL     1      -1.177  -1.203   0.159  0.00  0.00    +0.380 N 
ATOM     18  H   UNL     1      -1.852  -0.968   0.871  0.00  0.00    -0.090 HD
ATOM     19  H   UNL     1      -0.891  -2.164   0.272  0.00  0.00    -0.090 HD
ATOM     20  H   UNL     1      -0.372  -0.601   0.247  0.00  0.00    -0.090 HD
ENDBRANCH  16  17
ENDBRANCH  14  16
ENDBRANCH   1  14
TORSDOF 4
