REMARK  Name = ZINC08768020
REMARK  10 active torsions:
REMARK  status: ('A' for Active; 'I' for Inactive)
REMARK    1  A    between atoms: C_1  and  C_2
REMARK    2  A    between atoms: C_2  and  C_3
REMARK    3  A    between atoms: C_6  and  N_9
REMARK    4  A    between atoms: C_10  and  C_12
REMARK    5  A    between atoms: C_12  and  C_14
REMARK    6  A    between atoms: C_12  and  N_19
REMARK    7  A    between atoms: C_14  and  C_16
REMARK    8  A    between atoms: C_14  and  C_17
REMARK    9  A    between atoms: C_17  and  C_18
REMARK   10  A    between atoms: C_20  and  C_22
REMARK                            x       y       z     vdW  Elec       q    Type
REMARK                         _______ _______ _______ _____ _____    ______ ____
ROOT
ATOM      1  C   UNL     1      -1.298  -0.551  -0.074  0.00  0.00    +0.162 C 
ENDROOT
BRANCH   1   3
ATOM      2  N   UNL     1      -0.842  -2.622   1.199  0.00  0.00    -0.284 N 
ATOM      3  C   UNL     1      -1.266  -2.053   0.054  0.00  0.00    +0.238 C 
ATOM      4  O   UNL     1      -1.621  -2.748  -0.874  0.00  0.00    -0.273 OA
ATOM      5  H   UNL     1      -0.487  -2.070   1.913  0.00  0.00    +0.155 HD
BRANCH   2   9
ATOM      6  C   UNL     1      -1.060  -6.755   1.676  0.00  0.00    -0.048 A 
ATOM      7  C   UNL     1      -0.028  -6.047   2.262  0.00  0.00    +0.005 A 
ATOM      8  C   UNL     1       0.048  -4.676   2.106  0.00  0.00    +0.023 A 
ATOM      9  C   UNL     1      -0.915  -4.010   1.359  0.00  0.00    +0.033 A 
ATOM     10  C   UNL     1      -1.954  -4.724   0.776  0.00  0.00    +0.023 A 
ATOM     11  C   UNL     1      -2.021  -6.095   0.931  0.00  0.00    +0.005 A 
BRANCH   6  13
ATOM     12  C   UNL     1      -1.963  -8.578   3.094  0.00  0.00    +0.009 C 
ATOM     13  C   UNL     1      -1.139  -8.250   1.847  0.00  0.00    +0.032 C 
ENDBRANCH   6  13
ENDBRANCH   2   9
ENDBRANCH   1   3
BRANCH   1  14
ATOM     14  N   UNL     1      -1.793  -0.185  -1.404  0.00  0.00    -0.305 N 
ATOM     15  C   UNL     1      -2.380   1.012  -1.598  0.00  0.00    +0.200 C 
ATOM     16  O   UNL     1      -2.499   1.787  -0.672  0.00  0.00    -0.278 OA
ATOM     17  H   UNL     1      -1.698  -0.804  -2.144  0.00  0.00    +0.149 HD
BRANCH  15  18
ATOM     18  C   UNL     1      -2.889   1.389  -2.966  0.00  0.00    +0.021 C 
ATOM     19  C   UNL     1      -1.724   1.865  -3.834  0.00  0.00    +0.028 C 
ATOM     20  C   UNL     1      -2.248   2.470  -5.111  0.00  0.00    -0.047 A 
ATOM     21  C   UNL     1      -1.371   2.635  -6.173  0.00  0.00    +0.004 A 
ATOM     22  C   UNL     1      -1.808   3.189  -7.359  0.00  0.00    +0.000 A 
ATOM     23  C   UNL     1      -3.128   3.582  -7.489  0.00  0.00    +0.000 A 
ATOM     24  C   UNL     1      -4.001   3.417  -6.434  0.00  0.00    +0.002 A 
ATOM     25  C   UNL     1      -3.563   2.858  -5.242  0.00  0.00    -0.061 A 
ATOM     26  C   UNL     1      -4.556   2.690  -4.122  0.00  0.00    -0.045 C 
ATOM     27  N   UNL     1      -3.863   2.490  -2.842  0.00  0.00    +0.389 N 
ATOM     28  H   UNL     1      -3.370   3.352  -2.583  0.00  0.00    -0.084 HD
ATOM     29  H   UNL     1      -4.549   2.256  -2.115  0.00  0.00    -0.084 HD
ENDBRANCH  15  18
ENDBRANCH   1  14
BRANCH   1  30
ATOM     30  C   UNL     1       0.113   0.007   0.116  0.00  0.00    +0.015 C 
ATOM     31  C   UNL     1       0.061   1.537   0.111  0.00  0.00    +0.010 C 
BRANCH  30  32
ATOM     32  C   UNL     1       1.012  -0.476  -1.023  0.00  0.00    +0.002 C 
ATOM     33  C   UNL     1       2.450  -0.022  -0.767  0.00  0.00    +0.004 C 
ENDBRANCH  30  32
ENDBRANCH   1  30
TORSDOF 7
