REMARK  Name = ZINC58991967
REMARK  12 active torsions:
REMARK  status: ('A' for Active; 'I' for Inactive)
REMARK    1  A    between atoms: C_1  and  C_2
REMARK    2  A    between atoms: C_2  and  C_24
REMARK    3  A    between atoms: N_3  and  N_4
REMARK    4  A    between atoms: C_5  and  C_7
REMARK    5  A    between atoms: C_7  and  C_8
REMARK    6  A    between atoms: C_8  and  C_9
REMARK    7  A    between atoms: C_9  and  S_10
REMARK    8  A    between atoms: S_10  and  C_11
REMARK    9  A    between atoms: C_14  and  C_17
REMARK   10  A    between atoms: N_15  and  N_16
REMARK   11  A    between atoms: C_28  and  O_30
REMARK   12  A    between atoms: O_30  and  C_31
REMARK                            x       y       z     vdW  Elec       q    Type
REMARK                         _______ _______ _______ _____ _____    ______ ____
ROOT
ATOM      1  C   UNL     1       0.071  -0.899   5.969  0.00  0.00    +0.020 C 
ENDROOT
BRANCH   1   2
ATOM      2  C   UNL     1       0.046   0.101   4.812  0.00  0.00    +0.098 C 
BRANCH   2   4
ATOM      3  N   UNL     1       0.024   0.035   2.339  0.00  0.00    -0.207 N 
ATOM      4  C   UNL     1       0.044  -0.645   3.503  0.00  0.00    +0.232 C 
ATOM      5  O   UNL     1       0.060  -1.858   3.496  0.00  0.00    -0.274 OA
ATOM      6  H   UNL     1       0.011   1.005   2.345  0.00  0.00    +0.177 HD
BRANCH   3   9
ATOM      7  C   UNL     1      -0.018   1.503   0.010  0.00  0.00    +0.068 C 
ATOM      8  C   UNL     1       0.002  -0.004   0.002  0.00  0.00    +0.063 C 
ATOM      9  N   UNL     1       0.022  -0.659   1.122  0.00  0.00    -0.185 NA
BRANCH   8  10
ATOM     10  C   UNL     1      -0.000  -0.735  -1.279  0.00  0.00    +0.001 A 
ATOM     11  C   UNL     1      -0.015  -0.032  -2.487  0.00  0.00    +0.010 A 
ATOM     12  C   UNL     1      -0.017  -0.719  -3.683  0.00  0.00    +0.004 A 
ATOM     13  C   UNL     1      -0.003  -2.102  -3.692  0.00  0.00    +0.045 A 
ATOM     14  C   UNL     1       0.011  -2.809  -2.497  0.00  0.00    +0.121 A 
ATOM     15  C   UNL     1       0.019  -2.130  -1.290  0.00  0.00    +0.055 A 
BRANCH  14  16
ATOM     16  O   UNL     1       0.024  -4.168  -2.512  0.00  0.00    -0.495 OA
ATOM     17  C   UNL     1       0.021  -4.802  -3.792  0.00  0.00    +0.277 C 
ENDBRANCH  14  16
ENDBRANCH   8  10
ENDBRANCH   3   9
ENDBRANCH   2   4
ENDBRANCH   1   2
BRANCH   1  18
ATOM     18  C   UNL     1       0.073  -0.141   7.298  0.00  0.00    +0.078 C 
BRANCH  18  19
ATOM     19  S   UNL     1       0.102  -1.327   8.671  0.00  0.00    -0.084 S 
BRANCH  19  20
ATOM     20  C   UNL     1       0.102  -0.312  10.111  0.00  0.00    +0.209 A 
ATOM     21  N   UNL     1       0.079   1.001  10.139  0.00  0.00    -0.121 NA
ATOM     22  N   UNL     1       0.086   1.417  11.355  0.00  0.00    -0.127 NA
ATOM     23  C   UNL     1       0.115   0.394  12.178  0.00  0.00    +0.182 A 
ATOM     24  N   UNL     1       0.120  -0.745  11.406  0.00  0.00    -0.224 N 
BRANCH  23  25
ATOM     25  C   UNL     1       0.133   0.455  13.655  0.00  0.00    +0.021 A 
ATOM     26  C   UNL     1       0.481  -0.673  14.399  0.00  0.00    +0.013 A 
ATOM     27  C   UNL     1       0.496  -0.610  15.777  0.00  0.00    +0.016 A 
ATOM     28  C   UNL     1       0.165   0.569  16.422  0.00  0.00    +0.018 A 
ATOM     29  C   UNL     1      -0.182   1.692  15.690  0.00  0.00    +0.016 A 
ATOM     30  C   UNL     1      -0.193   1.643  14.311  0.00  0.00    +0.013 A 
ATOM     31 BR   UNL     1       0.187   0.647  18.311  0.00  0.00    -0.050 Br
ENDBRANCH  23  25
BRANCH  24  32
ATOM     32  N   UNL     1       0.142  -2.038  11.845  0.00  0.00    -0.295 N 
ATOM     33  H   UNL     1       1.089  -2.368  11.952  0.00  0.00    +0.163 HD
ATOM     34  H   UNL     1      -0.375  -2.137  12.706  0.00  0.00    +0.163 HD
ENDBRANCH  24  32
ENDBRANCH  19  20
ENDBRANCH  18  19
ENDBRANCH   1  18
TORSDOF 10
