REMARK  Name = ZINC48895946
REMARK  5 active torsions:
REMARK  status: ('A' for Active; 'I' for Inactive)
REMARK    1  A    between atoms: C_1  and  C_2
REMARK    2  A    between atoms: C_2  and  C_4
REMARK    3  A    between atoms: C_2  and  N_15
REMARK    4  A    between atoms: N_6  and  C_7
REMARK    5  A    between atoms: C_12  and  N_13
REMARK                            x       y       z     vdW  Elec       q    Type
REMARK                         _______ _______ _______ _____ _____    ______ ____
ROOT
ATOM      1  C   UNL     1       0.645  -0.488   1.256  0.00  0.00    +0.203 C 
ATOM      2  O   UNL     1       0.030  -1.212   2.010  0.00  0.00    -0.277 OA
ATOM      3  N   UNL     1       1.913  -0.134   1.547  0.00  0.00    -0.285 N 
ATOM      4  H   UNL     1       2.431   0.382   0.909  0.00  0.00    +0.155 HD
ENDROOT
BRANCH   3   5
ATOM      5  C   UNL     1       2.482  -0.509   2.771  0.00  0.00    +0.056 A 
ATOM      6  C   UNL     1       1.670  -0.775   3.863  0.00  0.00    +0.045 A 
ATOM      7  C   UNL     1       2.235  -1.145   5.071  0.00  0.00    +0.043 A 
ATOM      8  C   UNL     1       3.609  -1.252   5.192  0.00  0.00    +0.022 A 
ATOM      9  C   UNL     1       4.425  -0.989   4.108  0.00  0.00    +0.026 A 
ATOM     10  C   UNL     1       3.867  -0.623   2.892  0.00  0.00    +0.046 A 
ATOM     11 CL   UNL     1       1.216  -1.476   6.437  0.00  0.00    -0.083 Cl
BRANCH  10  12
ATOM     12  N   UNL     1       4.691  -0.363   1.792  0.00  0.00    -0.357 N 
ATOM     13  H   UNL     1       4.300  -0.103   0.943  0.00  0.00    +0.142 HD
ATOM     14  H   UNL     1       5.654  -0.442   1.878  0.00  0.00    +0.142 HD
ENDBRANCH  10  12
ENDBRANCH   3   5
BRANCH   1  16
ATOM     15  C   UNL     1       0.042   1.544  -0.031  0.00  0.00    -0.004 C 
ATOM     16  C   UNL     1      -0.007   0.015  -0.006  0.00  0.00    +0.016 C 
BRANCH  16  17
ATOM     17  N   UNL     1      -1.406  -0.431  -0.045  0.00  0.00    +0.388 N 
ATOM     18  C   UNL     1      -1.923  -0.199  -1.398  0.00  0.00    -0.077 C 
ATOM     19  C   UNL     1      -2.776  -1.423  -1.699  0.00  0.00    -0.008 C 
ATOM     20  C   UNL     1      -4.262  -0.995  -1.649  0.00  0.00    +0.067 C 
ATOM     21  S   UNL     1      -4.515   0.203  -0.297  0.00  0.00    -0.163 S 
ATOM     22  C   UNL     1      -3.534  -0.360   1.099  0.00  0.00    +0.050 C 
ATOM     23  C   UNL     1      -2.094   0.203   0.990  0.00  0.00    -0.067 C 
ATOM     24  H   UNL     1      -1.423  -1.425   0.129  0.00  0.00    -0.081 HD
ENDBRANCH  16  17
ENDBRANCH   1  16
TORSDOF 4
