REMARK  Name = ZINC06678612
REMARK  6 active torsions:
REMARK  status: ('A' for Active; 'I' for Inactive)
REMARK    1  A    between atoms: C_1  and  C_2
REMARK    2  A    between atoms: C_11  and  C_26
REMARK    3  A    between atoms: C_14  and  C_16
REMARK    4  A    between atoms: C_19  and  C_22
REMARK    5  A    between atoms: C_22  and  O_24
REMARK    6  A    between atoms: O_24  and  C_25
REMARK                            x       y       z     vdW  Elec       q    Type
REMARK                         _______ _______ _______ _____ _____    ______ ____
ROOT
ATOM      1  C   UNL     1      -1.210  -0.899   0.008  0.00  0.00    +0.068 C 
ATOM      2  C   UNL     1       0.002  -0.004   0.002  0.00  0.00    +0.066 A 
ATOM      3  C   UNL     1       1.345  -0.438  -0.013  0.00  0.00    +0.032 A 
ATOM      4  C   UNL     1       2.132   0.660  -0.012  0.00  0.00    +0.125 A 
ATOM      5  N   UNL     1       1.304   1.750  -0.001  0.00  0.00    -0.263 N 
ATOM      6  H   UNL     1       1.595   2.707  -0.000  0.00  0.00    +0.190 HD
ATOM      7  N   UNL     1      -0.016   1.298   0.009  0.00  0.00    -0.177 NA
ATOM      8  N   UNL     1       3.499   0.808  -0.018  0.00  0.00    -0.270 N 
ATOM      9  C   UNL     1       4.509  -0.006  -0.079  0.00  0.00    +0.231 C 
ATOM     10  O   UNL     1       5.593   0.532  -0.168  0.00  0.00    -0.274 OA
ATOM     11  C   UNL     1       4.550  -1.484  -0.056  0.00  0.00    +0.130 C 
ATOM     12  S   UNL     1       3.197  -2.237  -0.970  0.00  0.00    -0.135 S 
ATOM     13  C   UNL     1       1.709  -1.889  -0.030  0.00  0.00    +0.112 C 
ATOM     14  C   UNL     1       5.873  -1.950  -0.665  0.00  0.00    +0.029 C 
ATOM     15  H   UNL     1       3.772   1.737   0.034  0.00  0.00    +0.156 HD
ENDROOT
BRANCH  13  16
ATOM     16  C   UNL     1       0.565  -2.668  -0.628  0.00  0.00    -0.030 A 
ATOM     17  C   UNL     1       0.147  -2.395  -1.918  0.00  0.00    +0.006 A 
ATOM     18  C   UNL     1      -0.896  -3.107  -2.474  0.00  0.00    +0.015 A 
ATOM     19  C   UNL     1      -1.536  -4.098  -1.727  0.00  0.00    +0.059 A 
ATOM     20  C   UNL     1      -1.112  -4.364  -0.423  0.00  0.00    +0.015 A 
ATOM     21  C   UNL     1      -0.065  -3.648   0.118  0.00  0.00    +0.006 A 
BRANCH  19  22
ATOM     22  C   UNL     1      -2.657  -4.861  -2.313  0.00  0.00    +0.339 C 
ATOM     23  O   UNL     1      -3.212  -5.723  -1.661  0.00  0.00    -0.245 OA
BRANCH  22  24
ATOM     24  O   UNL     1      -3.063  -4.601  -3.571  0.00  0.00    -0.464 OA
ATOM     25  C   UNL     1      -4.170  -5.390  -4.082  0.00  0.00    +0.280 C 
ENDBRANCH  22  24
ENDBRANCH  19  22
ENDBRANCH  13  16
TORSDOF 3
