REMARK  Name = ZINC36495187
REMARK  15 active torsions:
REMARK  status: ('A' for Active; 'I' for Inactive)
REMARK    1  A    between atoms: C_1  and  C_2
REMARK    2  A    between atoms: C_7  and  C_8
REMARK    3  A    between atoms: C_8  and  C_9
REMARK    4  A    between atoms: N_11  and  C_12
REMARK    5  A    between atoms: N_11  and  C_18
REMARK    6  A    between atoms: C_12  and  C_13
REMARK    7  A    between atoms: C_18  and  C_20
REMARK    8  A    between atoms: C_18  and  C_29
REMARK    9  A    between atoms: C_21  and  O_28
REMARK   10  A    between atoms: C_23  and  O_27
REMARK   11  A    between atoms: C_25  and  O_26
REMARK   12  A    between atoms: N_31  and  C_32
REMARK   13  A    between atoms: C_32  and  C_33
REMARK   14  A    between atoms: C_32  and  C_34
REMARK   15  A    between atoms: C_32  and  C_35
REMARK                            x       y       z     vdW  Elec       q    Type
REMARK                         _______ _______ _______ _____ _____    ______ ____
ROOT
ATOM      1  C   UNL     1      -2.594   1.278   4.275  0.00  0.00    +0.200 C 
ENDROOT
BRANCH   1   2
ATOM      2  C   UNL     1      -2.997   0.884   5.673  0.00  0.00    +0.065 A 
ATOM      3  C   UNL     1      -2.075   0.956   6.707  0.00  0.00    +0.129 A 
ATOM      4  C   UNL     1      -2.446   0.593   7.993  0.00  0.00    +0.091 A 
ATOM      5  C   UNL     1      -3.739   0.160   8.246  0.00  0.00    +0.124 A 
ATOM      6  C   UNL     1      -4.661   0.089   7.212  0.00  0.00    +0.091 A 
ATOM      7  C   UNL     1      -4.291   0.455   5.927  0.00  0.00    +0.129 A 
BRANCH   7   8
ATOM      8  O   UNL     1      -5.196   0.390   4.915  0.00  0.00    -0.506 OA
ATOM      9  H   UNL     1      -5.214  -0.462   4.458  0.00  0.00    +0.292 HD
ENDBRANCH   7   8
BRANCH   5  10
ATOM     10  O   UNL     1      -4.101  -0.196   9.506  0.00  0.00    -0.507 OA
ATOM     11  H   UNL     1      -4.454   0.533  10.035  0.00  0.00    +0.292 HD
ENDBRANCH   5  10
BRANCH   3  12
ATOM     12  O   UNL     1      -0.808   1.381   6.459  0.00  0.00    -0.506 OA
ATOM     13  H   UNL     1      -0.670   2.323   6.626  0.00  0.00    +0.292 HD
ENDBRANCH   3  12
ENDBRANCH   1   2
BRANCH   1  14
ATOM     14  C   UNL     1      -2.471   2.777   4.192  0.00  0.00    +0.239 C 
ATOM     15  O   UNL     1      -1.512   3.277   3.643  0.00  0.00    -0.273 OA
ATOM     16  N   UNL     1      -3.428   3.563   4.726  0.00  0.00    -0.309 N 
ATOM     17  H   UNL     1      -4.151   3.167   5.236  0.00  0.00    +0.149 HD
BRANCH  16  18
ATOM     18  C   UNL     1      -3.374   5.014   4.535  0.00  0.00    +0.026 C 
ATOM     19  C   UNL     1      -3.475   5.337   3.043  0.00  0.00    +0.031 C 
ATOM     20  C   UNL     1      -4.540   5.669   5.278  0.00  0.00    +0.031 C 
ATOM     21  C   UNL     1      -2.052   5.553   5.085  0.00  0.00    +0.031 C 
ENDBRANCH  16  18
ENDBRANCH   1  14
BRANCH   1  24
ATOM     22  C   UNL     1      -1.239  -0.652   3.662  0.00  0.00    +0.221 C 
ATOM     23  O   UNL     1      -2.247  -1.328   3.677  0.00  0.00    -0.275 OA
ATOM     24  N   UNL     1      -1.305   0.663   3.947  0.00  0.00    -0.278 N 
BRANCH  22  25
ATOM     25  C   UNL     1       0.086  -1.285   3.324  0.00  0.00    +0.131 C 
BRANCH  25  32
ATOM     26  C   UNL     1      -0.692  -2.166   0.685  0.00  0.00    +0.044 C 
ATOM     27  C   UNL     1      -0.485  -3.174   1.786  0.00  0.00    -0.047 A 
ATOM     28  C   UNL     1      -0.663  -4.522   1.531  0.00  0.00    +0.003 A 
ATOM     29  C   UNL     1      -0.473  -5.447   2.541  0.00  0.00    +0.000 A 
ATOM     30  C   UNL     1      -0.105  -5.024   3.805  0.00  0.00    +0.000 A 
ATOM     31  C   UNL     1       0.073  -3.678   4.059  0.00  0.00    +0.004 A 
ATOM     32  C   UNL     1      -0.113  -2.753   3.048  0.00  0.00    -0.036 A 
ENDBRANCH  25  32
ENDBRANCH  22  25
BRANCH  24  33
ATOM     33  C   UNL     1      -0.088   1.478   3.929  0.00  0.00    +0.183 C 
BRANCH  33  34
ATOM     34  C   UNL     1       0.264   1.823   2.505  0.00  0.00    +0.122 A 
ATOM     35  C   UNL     1       0.019   2.998   1.896  0.00  0.00    +0.046 A 
ATOM     36  C   UNL     1       0.512   2.885   0.576  0.00  0.00    +0.041 A 
ATOM     37  C   UNL     1       1.029   1.649   0.457  0.00  0.00    +0.195 A 
ATOM     38  O   UNL     1       0.881   1.012   1.630  0.00  0.00    -0.466 OA
ENDBRANCH  33  34
ENDBRANCH  24  33
ENDBRANCH   1  24
TORSDOF 11
