REMARK  Name = ZINC07915339
REMARK  11 active torsions:
REMARK  status: ('A' for Active; 'I' for Inactive)
REMARK    1  A    between atoms: C_1  and  C_2
REMARK    2  A    between atoms: C_2  and  C_4
REMARK    3  A    between atoms: C_2  and  N_14
REMARK    4  A    between atoms: C_15  and  C_17
REMARK    5  A    between atoms: C_17  and  N_61
REMARK    6  A    between atoms: C_18  and  N_61
REMARK    7  A    between atoms: C_19  and  C_20
REMARK    8  A    between atoms: C_19  and  N_61
REMARK    9  A    between atoms: N_22  and  C_23
REMARK   10  A    between atoms: C_28  and  S_29
REMARK   11  A    between atoms: S_29  and  C_30
REMARK                            x       y       z     vdW  Elec       q    Type
REMARK                         _______ _______ _______ _____ _____    ______ ____
ROOT
ATOM      1  C   UNL     1       3.674   1.744  -0.291  0.00  0.00    +0.019 C 
ENDROOT
BRANCH   1   3
ATOM      2  N   UNL     1       6.020   1.153  -0.807  0.00  0.00    -0.310 N 
ATOM      3  C   UNL     1       4.765   0.736  -0.545  0.00  0.00    +0.197 C 
ATOM      4  O   UNL     1       4.514  -0.450  -0.515  0.00  0.00    -0.278 OA
ATOM      5  H   UNL     1       6.221   2.102  -0.831  0.00  0.00    +0.149 HD
BRANCH   2   7
ATOM      6  C   UNL     1       7.670  -0.289   0.280  0.00  0.00    +0.033 C 
ATOM      7  C   UNL     1       7.081   0.174  -1.054  0.00  0.00    +0.100 C 
BRANCH   7   8
ATOM      8  C   UNL     1       8.164   0.806  -1.889  0.00  0.00    -0.027 A 
ATOM      9  C   UNL     1       8.552   2.112  -1.649  0.00  0.00    +0.006 A 
ATOM     10  C   UNL     1       9.543   2.685  -2.419  0.00  0.00    +0.004 A 
ATOM     11  C   UNL     1      10.155   1.962  -3.434  0.00  0.00    -0.044 A 
ATOM     12  C   UNL     1       9.772   0.660  -3.670  0.00  0.00    -0.044 A 
ATOM     13  C   UNL     1       8.776   0.084  -2.892  0.00  0.00    +0.009 A 
ATOM     14  C   UNL     1      10.399  -0.186  -4.747  0.00  0.00    +0.035 C 
ATOM     15  C   UNL     1      11.130   0.690  -5.762  0.00  0.00    +0.005 C 
ATOM     16  C   UNL     1      12.069   1.633  -4.999  0.00  0.00    +0.005 C 
ATOM     17  C   UNL     1      11.219   2.654  -4.245  0.00  0.00    +0.035 C 
ENDBRANCH   7   8
ENDBRANCH   2   7
ENDBRANCH   1   3
BRANCH   1  19
ATOM     18  C   UNL     1       2.478   0.277   1.219  0.00  0.00    -0.095 C 
ATOM     19  N   UNL     1       2.405   1.023  -0.054  0.00  0.00    +0.389 N 
ATOM     20  H   UNL     1       2.251   0.359  -0.822  0.00  0.00    -0.081 HD
BRANCH  19  21
ATOM     21  C   UNL     1       1.280   1.981  -0.015  0.00  0.00    +0.019 C 
BRANCH  21  22
ATOM     22  C   UNL     1      -0.014   1.209   0.005  0.00  0.00    +0.201 C 
ATOM     23  O   UNL     1       0.003  -0.004   0.005  0.00  0.00    -0.278 OA
ATOM     24  N   UNL     1      -1.191   1.867   0.018  0.00  0.00    -0.286 N 
ATOM     25  H   UNL     1      -1.205   2.833   0.099  0.00  0.00    +0.155 HD
BRANCH  24  26
ATOM     26  C   UNL     1      -2.393   1.154  -0.086  0.00  0.00    +0.047 A 
ATOM     27  C   UNL     1      -2.413  -0.090  -0.698  0.00  0.00    +0.024 A 
ATOM     28  C   UNL     1      -3.599  -0.794  -0.794  0.00  0.00    +0.002 A 
ATOM     29  C   UNL     1      -4.770  -0.256  -0.292  0.00  0.00    +0.001 A 
ATOM     30  C   UNL     1      -4.761   0.986   0.314  0.00  0.00    +0.016 A 
ATOM     31  C   UNL     1      -3.574   1.697   0.420  0.00  0.00    +0.029 A 
BRANCH  31  32
ATOM     32  S   UNL     1      -3.559   3.281   1.192  0.00  0.00    -0.127 S 
ATOM     33  C   UNL     1      -5.286   3.550   1.676  0.00  0.00    +0.090 C 
ENDBRANCH  31  32
ENDBRANCH  24  26
ENDBRANCH  21  22
ENDBRANCH  19  21
ENDBRANCH   1  19
TORSDOF 8
