REMARK  Name = ZINC47619476
REMARK  9 active torsions:
REMARK  status: ('A' for Active; 'I' for Inactive)
REMARK    1  A    between atoms: C_1  and  C_2
REMARK    2  A    between atoms: N_6  and  C_8
REMARK    3  A    between atoms: C_8  and  C_9
REMARK    4  A    between atoms: C_8  and  C_10
REMARK    5  A    between atoms: C_10  and  N_11
REMARK    6  A    between atoms: N_14  and  C_15
REMARK    7  A    between atoms: C_15  and  C_16
REMARK    8  A    between atoms: C_19  and  S_22
REMARK    9  A    between atoms: S_22  and  N_25
REMARK                            x       y       z     vdW  Elec       q    Type
REMARK                         _______ _______ _______ _____ _____    ______ ____
ROOT
ATOM      1  N   UNL     1       3.070  -0.566   2.172  0.00  0.00    -0.301 N 
ATOM      2  C   UNL     1       4.250   0.042   1.936  0.00  0.00    +0.300 C 
ATOM      3  O   UNL     1       5.254  -0.623   1.773  0.00  0.00    -0.253 OA
ATOM      4  N   UNL     1       4.316   1.387   1.880  0.00  0.00    -0.295 N 
ATOM      5  H   UNL     1       2.268  -0.035   2.302  0.00  0.00    +0.150 HD
ATOM      6  H   UNL     1       3.514   1.918   2.010  0.00  0.00    +0.151 HD
ENDROOT
BRANCH   1   7
ATOM      7  C   UNL     1       2.998  -2.028   2.232  0.00  0.00    +0.090 C 
BRANCH   7   8
ATOM      8  C   UNL     1       1.538  -2.461   2.374  0.00  0.00    -0.054 C 
ATOM      9  C   UNL     1       1.452  -3.988   2.319  0.00  0.00    -0.012 C 
BRANCH   8  15
ATOM     10  C   UNL     1      -2.990  -1.831   0.622  0.00  0.00    +0.005 C 
ATOM     11  C   UNL     1      -1.509  -1.518   0.397  0.00  0.00    -0.031 C 
ATOM     12  C   UNL     1      -1.074  -2.058  -0.969  0.00  0.00    -0.001 C 
ATOM     13  C   UNL     1       0.426  -1.810  -1.151  0.00  0.00    -0.018 C 
ATOM     14  C   UNL     1       1.190  -2.464   0.003  0.00  0.00    -0.078 C 
ATOM     15  N   UNL     1       0.748  -1.886   1.277  0.00  0.00    +0.383 N 
ATOM     16  C   UNL     1      -0.674  -2.183   1.492  0.00  0.00    -0.075 C 
ATOM     17  H   UNL     1       0.882  -0.887   1.257  0.00  0.00    -0.081 HD
ENDBRANCH   8  15
ENDBRANCH   7   8
ENDBRANCH   1   7
BRANCH   4  18
ATOM     18  C   UNL     1       5.598   2.047   1.623  0.00  0.00    +0.141 C 
BRANCH  18  19
ATOM     19  C   UNL     1       5.400   3.541   1.612  0.00  0.00    -0.030 A 
ATOM     20  C   UNL     1       5.087   4.188   0.431  0.00  0.00    +0.007 A 
ATOM     21  C   UNL     1       4.905   5.558   0.420  0.00  0.00    +0.029 A 
ATOM     22  C   UNL     1       5.036   6.282   1.590  0.00  0.00    +0.105 A 
ATOM     23  C   UNL     1       5.348   5.635   2.772  0.00  0.00    +0.029 A 
ATOM     24  C   UNL     1       5.525   4.264   2.783  0.00  0.00    +0.007 A 
BRANCH  22  25
ATOM     25  S   UNL     1       4.805   8.029   1.576  0.00  0.00    +0.056 S 
ATOM     26  O   UNL     1       5.519   8.541   2.693  0.00  0.00    -0.153 OA
ATOM     27  O   UNL     1       5.059   8.461   0.247  0.00  0.00    -0.153 OA
BRANCH  25  28
ATOM     28  N   UNL     1       3.200   8.313   1.869  0.00  0.00    -0.204 NA
ATOM     29  H   UNL     1       2.926   9.126   2.321  0.00  0.00    +0.144 HD
ATOM     30  H   UNL     1       2.534   7.667   1.587  0.00  0.00    +0.144 HD
ENDBRANCH  25  28
ENDBRANCH  22  25
ENDBRANCH  18  19
ENDBRANCH   4  18
TORSDOF 7
