REMARK  Name = ZINC42398656
REMARK  9 active torsions:
REMARK  status: ('A' for Active; 'I' for Inactive)
REMARK    1  A    between atoms: C_1  and  C_2
REMARK    2  A    between atoms: C_2  and  C_3
REMARK    3  A    between atoms: C_3  and  N_4
REMARK    4  A    between atoms: C_7  and  C_10
REMARK    5  A    between atoms: C_7  and  N_12
REMARK    6  A    between atoms: C_10  and  N_11
REMARK    7  A    between atoms: N_12  and  C_13
REMARK    8  A    between atoms: N_12  and  C_14
REMARK    9  A    between atoms: C_14  and  C_15
REMARK                            x       y       z     vdW  Elec       q    Type
REMARK                         _______ _______ _______ _____ _____    ______ ____
ROOT
ATOM      1  N   UNL     1      -1.637  -2.327   0.494  0.00  0.00    +0.380 N 
ATOM      2  C   UNL     1      -0.838  -2.575  -0.712  0.00  0.00    -0.077 C 
ATOM      3  C   UNL     1      -0.753  -4.081  -0.971  0.00  0.00    +0.002 C 
ATOM      4  C   UNL     1      -2.165  -4.640  -1.168  0.00  0.00    +0.003 C 
ATOM      5  C   UNL     1      -3.010  -4.311   0.066  0.00  0.00    +0.002 C 
ATOM      6  C   UNL     1      -3.012  -2.796   0.287  0.00  0.00    -0.077 C 
ATOM      7  H   UNL     1      -1.228  -2.821   1.274  0.00  0.00    -0.082 HD
ENDROOT
BRANCH   4   8
ATOM      8  N   UNL     1      -2.097  -6.098  -1.341  0.00  0.00    -0.297 NA
ATOM      9  C   UNL     1      -1.362  -6.725  -0.235  0.00  0.00    +0.105 C 
BRANCH   8  10
ATOM     10  C   UNL     1      -3.440  -6.675  -1.476  0.00  0.00    +0.127 C 
BRANCH  10  11
ATOM     11  C   UNL     1      -3.332  -8.081  -2.010  0.00  0.00    +0.005 A 
ATOM     12  C   UNL     1      -3.216  -9.246  -1.327  0.00  0.00    +0.027 A 
ATOM     13  C   UNL     1      -3.130 -10.431  -2.034  0.00  0.00    +0.025 A 
ATOM     14  C   UNL     1      -3.164 -10.392  -3.389  0.00  0.00    +0.060 A 
ATOM     15  S   UNL     1      -3.330  -8.642  -3.704  0.00  0.00    -0.099 S 
ATOM     16 BR   UNL     1      -2.966 -12.081  -1.126  0.00  0.00    -0.050 Br
ENDBRANCH  10  11
ENDBRANCH   8  10
ENDBRANCH   4   8
BRANCH   1  17
ATOM     17  C   UNL     1      -1.651  -0.887   0.783  0.00  0.00    -0.079 C 
BRANCH  17  19
ATOM     18  C   UNL     1      -0.248   1.079   1.423  0.00  0.00    +0.002 C 
ATOM     19  C   UNL     1      -0.233  -0.421   1.122  0.00  0.00    -0.022 C 
ENDBRANCH  17  19
ENDBRANCH   1  17
BRANCH   4  20
ATOM     20  C   UNL     1      -2.799  -4.005  -2.407  0.00  0.00    -0.064 C 
BRANCH  20  21
ATOM     21  N   UNL     1      -2.041  -4.399  -3.601  0.00  0.00    +0.379 N 
ATOM     22  H   UNL     1      -1.076  -4.124  -3.493  0.00  0.00    -0.090 HD
ATOM     23  H   UNL     1      -2.094  -5.400  -3.719  0.00  0.00    -0.090 HD
ATOM     24  H   UNL     1      -2.431  -3.944  -4.413  0.00  0.00    -0.090 HD
ENDBRANCH  20  21
ENDBRANCH   4  20
TORSDOF 7
