REMARK  Name = ZINC37605148
REMARK  10 active torsions:
REMARK  status: ('A' for Active; 'I' for Inactive)
REMARK    1  A    between atoms: C_1  and  C_2
REMARK    2  A    between atoms: C_5  and  C_8
REMARK    3  A    between atoms: C_12  and  O_24
REMARK    4  A    between atoms: C_19  and  C_21
REMARK    5  A    between atoms: O_24  and  C_25
REMARK    6  A    between atoms: C_25  and  C_26
REMARK    7  A    between atoms: C_29  and  C_31
REMARK    8  A    between atoms: N_33  and  C_34
REMARK    9  A    between atoms: C_34  and  C_35
REMARK   10  A    between atoms: C_35  and  N_36
REMARK                            x       y       z     vdW  Elec       q    Type
REMARK                         _______ _______ _______ _____ _____    ______ ____
ROOT
ATOM      1  C   UNL     1       0.059  -4.275  -0.021  0.00  0.00    +0.137 C 
ATOM      2  C   UNL     1       1.484  -4.759   0.090  0.00  0.00    -0.016 A 
ATOM      3  C   UNL     1       2.312  -4.588  -1.010  0.00  0.00    +0.051 A 
ATOM      4  C   UNL     1       3.632  -5.003  -0.966  0.00  0.00    +0.121 A 
ATOM      5  C   UNL     1       4.127  -5.592   0.189  0.00  0.00    +0.046 A 
ATOM      6  C   UNL     1       3.300  -5.764   1.278  0.00  0.00    +0.007 A 
ATOM      7  C   UNL     1       1.973  -5.353   1.232  0.00  0.00    -0.040 A 
ATOM      8  C   UNL     1       1.124  -5.599   2.452  0.00  0.00    +0.054 C 
ATOM      9  C   UNL     1      -0.110  -4.699   2.447  0.00  0.00    +0.113 C 
ATOM     10  N   UNL     1      -0.723  -4.780   1.112  0.00  0.00    -0.290 N 
ATOM     11  C   UNL     1      -1.956  -5.296   0.938  0.00  0.00    +0.219 C 
ATOM     12  O   UNL     1      -2.439  -5.351  -0.173  0.00  0.00    -0.275 OA
ENDROOT
BRANCH   1  17
ATOM     13  C   UNL     1      -0.012   1.503   0.009  0.00  0.00    +0.044 C 
ATOM     14  C   UNL     1       0.006  -0.004   0.001  0.00  0.00    -0.050 A 
ATOM     15  C   UNL     1       0.623  -0.693   1.029  0.00  0.00    +0.004 A 
ATOM     16  C   UNL     1       0.640  -2.075   1.022  0.00  0.00    +0.006 A 
ATOM     17  C   UNL     1       0.040  -2.768  -0.013  0.00  0.00    -0.023 A 
ATOM     18  C   UNL     1      -0.577  -2.079  -1.041  0.00  0.00    +0.006 A 
ATOM     19  C   UNL     1      -0.598  -0.697  -1.031  0.00  0.00    +0.004 A 
ENDBRANCH   1  17
BRANCH  11  20
ATOM     20  C   UNL     1      -2.733  -5.806   2.124  0.00  0.00    +0.075 C 
ATOM     21  C   UNL     1      -2.969  -7.315   2.219  0.00  0.00    +0.013 C 
ATOM     22  C   UNL     1      -4.127  -6.380   1.861  0.00  0.00    +0.013 C 
ENDBRANCH  11  20
BRANCH   4  23
ATOM     23  O   UNL     1       4.438  -4.834  -2.047  0.00  0.00    -0.484 OA
BRANCH  23  24
ATOM     24  C   UNL     1       5.788  -5.287  -1.926  0.00  0.00    +0.303 C 
BRANCH  24  25
ATOM     25  C   UNL     1       6.525  -5.019  -3.213  0.00  0.00    +0.143 A 
ATOM     26  C   UNL     1       7.212  -3.893  -3.507  0.00  0.00    +0.049 A 
ATOM     27  C   UNL     1       7.741  -4.057  -4.797  0.00  0.00    +0.055 A 
ATOM     28  C   UNL     1       7.345  -5.290  -5.230  0.00  0.00    +0.190 A 
ATOM     29  O   UNL     1       6.612  -5.860  -4.252  0.00  0.00    -0.452 OA
BRANCH  28  30
ATOM     30  C   UNL     1       7.665  -5.890  -6.529  0.00  0.00    +0.279 C 
ATOM     31  O   UNL     1       8.341  -5.277  -7.333  0.00  0.00    -0.267 OA
ATOM     32  N   UNL     1       7.208  -7.121  -6.833  0.00  0.00    -0.311 N 
ATOM     33  H   UNL     1       6.669  -7.610  -6.192  0.00  0.00    +0.149 HD
BRANCH  32  34
ATOM     34  C   UNL     1       7.528  -7.721  -8.131  0.00  0.00    +0.086 C 
BRANCH  34  35
ATOM     35  C   UNL     1       6.894  -9.111  -8.220  0.00  0.00    -0.060 C 
BRANCH  35  36
ATOM     36  N   UNL     1       7.214  -9.713  -9.521  0.00  0.00    +0.381 N 
ATOM     37  C   UNL     1       8.663 -10.029  -9.597  0.00  0.00    -0.079 C 
ATOM     38  C   UNL     1       8.732 -11.114 -10.701  0.00  0.00    -0.020 C 
ATOM     39  C   UNL     1       7.451 -11.942 -10.452  0.00  0.00    -0.020 C 
ATOM     40  C   UNL     1       6.510 -11.005  -9.673  0.00  0.00    -0.079 C 
ATOM     41  H   UNL     1       6.955  -9.086 -10.268  0.00  0.00    -0.082 HD
ENDBRANCH  35  36
ENDBRANCH  34  35
ENDBRANCH  32  34
ENDBRANCH  28  30
ENDBRANCH  24  25
ENDBRANCH  23  24
ENDBRANCH   4  23
TORSDOF 9
