REMARK  Name = ZINC35644879
REMARK  12 active torsions:
REMARK  status: ('A' for Active; 'I' for Inactive)
REMARK    1  A    between atoms: C_1  and  C_2
REMARK    2  A    between atoms: C_2  and  O_3
REMARK    3  A    between atoms: O_3  and  C_4
REMARK    4  A    between atoms: C_4  and  C_6
REMARK    5  A    between atoms: C_7  and  C_22
REMARK    6  A    between atoms: N_8  and  C_21
REMARK    7  A    between atoms: C_12  and  C_14
REMARK    8  A    between atoms: C_18  and  C_20
REMARK    9  A    between atoms: C_22  and  N_23
REMARK   10  A    between atoms: C_30  and  C_32
REMARK   11  A    between atoms: C_35  and  O_38
REMARK   12  A    between atoms: O_38  and  C_39
REMARK                            x       y       z     vdW  Elec       q    Type
REMARK                         _______ _______ _______ _____ _____    ______ ____
ROOT
ATOM      1  C   UNL     1       0.529  -3.000  -2.734  0.00  0.00    +0.076 C 
ATOM      2  C   UNL     1       1.595  -3.818  -2.594  0.00  0.00    +0.010 C 
ATOM      3  N   UNL     1       2.683  -3.704  -3.411  0.00  0.00    -0.264 N 
ATOM      4  C   UNL     1       2.784  -2.796  -4.391  0.00  0.00    +0.307 C 
ATOM      5  O   UNL     1       3.794  -2.771  -5.067  0.00  0.00    -0.252 OA
ATOM      6  N   UNL     1       1.802  -1.911  -4.652  0.00  0.00    -0.288 N 
ATOM      7  C   UNL     1       0.581  -1.955  -3.830  0.00  0.00    +0.143 C 
ATOM      8  C   UNL     1       3.804  -4.624  -3.203  0.00  0.00    +0.139 C 
ATOM      9  H   UNL     1       1.897  -1.262  -5.367  0.00  0.00    +0.151 HD
ENDROOT
BRANCH   7  10
ATOM     10  C   UNL     1      -0.593  -2.185  -4.747  0.00  0.00    -0.022 A 
ATOM     11  C   UNL     1      -0.537  -3.180  -5.705  0.00  0.00    +0.006 A 
ATOM     12  C   UNL     1      -1.614  -3.390  -6.546  0.00  0.00    +0.001 A 
ATOM     13  C   UNL     1      -2.747  -2.607  -6.427  0.00  0.00    +0.003 A 
ATOM     14  C   UNL     1      -2.803  -1.613  -5.468  0.00  0.00    -0.050 A 
ATOM     15  C   UNL     1      -1.728  -1.405  -4.625  0.00  0.00    +0.009 A 
ATOM     16  C   UNL     1      -4.038  -0.759  -5.340  0.00  0.00    +0.044 C 
ENDBRANCH   7  10
BRANCH   1  17
ATOM     17  C   UNL     1      -0.599  -3.118  -1.889  0.00  0.00    +0.339 C 
ATOM     18  O   UNL     1      -0.672  -4.038  -1.096  0.00  0.00    -0.245 OA
BRANCH  17  19
ATOM     19  O   UNL     1      -1.594  -2.210  -1.962  0.00  0.00    -0.462 OA
BRANCH  19  21
ATOM     20  C   UNL     1      -3.723  -1.272  -1.305  0.00  0.00    +0.048 C 
ATOM     21  C   UNL     1      -2.703  -2.390  -1.079  0.00  0.00    +0.229 C 
ENDBRANCH  19  21
ENDBRANCH  17  19
ENDBRANCH   1  17
BRANCH   2  22
ATOM     22  C   UNL     1       1.582  -4.875  -1.520  0.00  0.00    -0.026 C 
BRANCH  22  23
ATOM     23  N   UNL     1       0.891  -6.072  -2.018  0.00  0.00    +0.384 N 
ATOM     24  C   UNL     1       0.641  -6.963  -0.887  0.00  0.00    -0.077 C 
ATOM     25  C   UNL     1      -0.607  -7.774  -1.158  0.00  0.00    +0.000 C 
ATOM     26  C   UNL     1      -0.217  -9.116  -1.804  0.00  0.00    +0.106 C 
ATOM     27  N   UNL     1       0.874  -8.936  -2.783  0.00  0.00    -0.299 N 
ATOM     28  C   UNL     1       0.913  -7.819  -3.704  0.00  0.00    +0.089 C 
ATOM     29  C   UNL     1       1.665  -6.632  -3.058  0.00  0.00    -0.059 C 
ATOM     30  C   UNL     1       1.869  -9.844  -2.821  0.00  0.00    +0.247 C 
ATOM     31  O   UNL     1       2.836  -9.658  -3.535  0.00  0.00    -0.270 OA
ATOM     32  H   UNL     1       0.002  -5.788  -2.400  0.00  0.00    -0.081 HD
BRANCH  30  33
ATOM     33  C   UNL     1       1.786 -11.065  -1.995  0.00  0.00    +0.037 A 
ATOM     34  C   UNL     1       0.558 -11.706  -1.815  0.00  0.00    +0.016 A 
ATOM     35  C   UNL     1       0.485 -12.845  -1.044  0.00  0.00    +0.046 A 
ATOM     36  C   UNL     1       1.630 -13.357  -0.446  0.00  0.00    +0.120 A 
ATOM     37  C   UNL     1       2.854 -12.722  -0.624  0.00  0.00    +0.046 A 
ATOM     38  C   UNL     1       2.937 -11.586  -1.397  0.00  0.00    +0.016 A 
BRANCH  36  39
ATOM     39  O   UNL     1       1.554 -14.479   0.313  0.00  0.00    -0.495 OA
ATOM     40  C   UNL     1       2.769 -14.950   0.898  0.00  0.00    +0.277 C 
ENDBRANCH  36  39
ENDBRANCH  30  33
ENDBRANCH  22  23
ENDBRANCH   2  22
TORSDOF 8
