REMARK  Name = ZINC39689733
REMARK  10 active torsions:
REMARK  status: ('A' for Active; 'I' for Inactive)
REMARK    1  A    between atoms: C_1  and  C_2
REMARK    2  A    between atoms: C_2  and  C_3
REMARK    3  A    between atoms: C_3  and  C_4
REMARK    4  A    between atoms: C_4  and  C_5
REMARK    5  A    between atoms: C_5  and  C_6
REMARK    6  A    between atoms: C_6  and  C_7
REMARK    7  A    between atoms: C_11  and  C_20
REMARK    8  A    between atoms: N_22  and  C_23
REMARK    9  A    between atoms: C_23  and  C_24
REMARK   10  A    between atoms: N_28  and  C_30
REMARK                            x       y       z     vdW  Elec       q    Type
REMARK                         _______ _______ _______ _____ _____    ______ ____
ROOT
ATOM      1  C   UNL     1       2.007  -4.613   3.490  0.00  0.00    +0.216 C 
ATOM      2  O   UNL     1       2.399  -3.752   4.248  0.00  0.00    -0.276 OA
ATOM      3  N   UNL     1       2.239  -5.911   3.767  0.00  0.00    -0.300 N 
ATOM      4  C   UNL     1       1.847  -7.095   2.966  0.00  0.00    +0.121 C 
ATOM      5  C   UNL     1       3.054  -8.054   3.071  0.00  0.00    +0.100 C 
ATOM      6  C   UNL     1       3.768  -7.646   4.370  0.00  0.00    -0.004 C 
ATOM      7  C   UNL     1       2.949  -6.478   4.939  0.00  0.00    +0.115 C 
ATOM      8  C   UNL     1       3.782  -8.811   5.354  0.00  0.00    -0.010 C 
ATOM      9  C   UNL     1       4.548  -8.399   6.615  0.00  0.00    -0.082 C 
ATOM     10  N   UNL     1       5.919  -8.021   6.255  0.00  0.00    +0.379 N 
ATOM     11  C   UNL     1       5.900  -6.841   5.381  0.00  0.00    -0.082 C 
ATOM     12  C   UNL     1       5.191  -7.187   4.069  0.00  0.00    -0.010 C 
ATOM     13  H   UNL     1       6.439  -7.809   7.093  0.00  0.00    -0.086 HD
ATOM     14  H   UNL     1       6.363  -8.788   5.772  0.00  0.00    -0.086 HD
ENDROOT
BRANCH   5  15
ATOM     15  C   UNL     1       3.970  -7.876   1.887  0.00  0.00    +0.218 C 
ATOM     16  O   UNL     1       4.055  -6.795   1.344  0.00  0.00    -0.275 OA
ATOM     17  N   UNL     1       4.694  -8.918   1.433  0.00  0.00    -0.315 N 
ATOM     18  H   UNL     1       4.625  -9.783   1.868  0.00  0.00    +0.149 HD
BRANCH  17  19
ATOM     19  C   UNL     1       5.584  -8.745   0.283  0.00  0.00    +0.105 C 
BRANCH  19  20
ATOM     20  C   UNL     1       6.283 -10.071  -0.025  0.00  0.00    -0.012 C 
ATOM     21  C   UNL     1       5.269 -11.112  -0.569  0.00  0.00    -0.016 C 
ATOM     22  C   UNL     1       6.188 -12.033  -1.411  0.00  0.00    -0.079 C 
ATOM     23  N   UNL     1       7.175 -11.120  -2.027  0.00  0.00    +0.378 N 
ATOM     24  C   UNL     1       7.278  -9.905  -1.193  0.00  0.00    -0.074 C 
ATOM     25  C   UNL     1       8.484 -11.781  -2.096  0.00  0.00    -0.096 C 
ATOM     26  H   UNL     1       6.872 -10.871  -2.957  0.00  0.00    -0.082 HD
ENDBRANCH  19  20
ENDBRANCH  17  19
ENDBRANCH   5  15
BRANCH   1  27
ATOM     27  C   UNL     1       1.260  -4.231   2.237  0.00  0.00    +0.096 C 
BRANCH  27  28
ATOM     28  C   UNL     1       1.134  -2.708   2.163  0.00  0.00    +0.009 C 
BRANCH  28  29
ATOM     29  C   UNL     1       0.376  -2.321   0.892  0.00  0.00    +0.000 C 
BRANCH  29  30
ATOM     30  C   UNL     1       0.250  -0.798   0.817  0.00  0.00    -0.000 C 
BRANCH  30  32
ATOM     31  C   UNL     1      -0.634   1.112  -0.528  0.00  0.00    +0.004 C 
ATOM     32  C   UNL     1      -0.508  -0.411  -0.454  0.00  0.00    -0.003 C 
ENDBRANCH  30  32
ENDBRANCH  29  30
ENDBRANCH  28  29
ENDBRANCH  27  28
ENDBRANCH   1  27
TORSDOF 8
