REMARK  Name = ZINC63161680
REMARK  7 active torsions:
REMARK  status: ('A' for Active; 'I' for Inactive)
REMARK    1  A    between atoms: C_1  and  C_2
REMARK    2  A    between atoms: C_4  and  C_26
REMARK    3  A    between atoms: N_6  and  C_8
REMARK    4  A    between atoms: C_8  and  C_9
REMARK    5  A    between atoms: C_9  and  N_10
REMARK    6  A    between atoms: N_13  and  C_14
REMARK    7  A    between atoms: C_16  and  C_22
REMARK                            x       y       z     vdW  Elec       q    Type
REMARK                         _______ _______ _______ _____ _____    ______ ____
ROOT
ATOM      1  N   UNL     1       3.752  -2.357   3.454  0.00  0.00    -0.301 N 
ATOM      2  C   UNL     1       5.072  -2.099   3.547  0.00  0.00    +0.304 C 
ATOM      3  O   UNL     1       5.599  -1.337   2.760  0.00  0.00    -0.253 OA
ATOM      4  N   UNL     1       5.807  -2.685   4.513  0.00  0.00    -0.265 N 
ATOM      5  H   UNL     1       3.332  -2.965   4.082  0.00  0.00    +0.150 HD
ATOM      6  H   UNL     1       5.374  -3.234   5.186  0.00  0.00    +0.157 HD
ENDROOT
BRANCH   4   7
ATOM      7  C   UNL     1       7.196  -2.501   4.546  0.00  0.00    +0.100 A 
ATOM      8  C   UNL     1       7.797  -1.958   5.648  0.00  0.00    +0.042 A 
ATOM      9  C   UNL     1       9.188  -1.785   5.655  0.00  0.00    +0.073 A 
ATOM     10  C   UNL     1       9.921  -2.154   4.580  0.00  0.00    +0.098 A 
ATOM     11  N   UNL     1       9.326  -2.693   3.483  0.00  0.00    -0.327 N 
ATOM     12  H   UNL     1       9.869  -2.951   2.721  0.00  0.00    +0.168 HD
ATOM     13  C   UNL     1       7.993  -2.879   3.443  0.00  0.00    +0.270 A 
ATOM     14  O   UNL     1       7.473  -3.370   2.454  0.00  0.00    -0.266 OA
BRANCH   9  15
ATOM     15  C   UNL     1       9.867  -1.189   6.861  0.00  0.00    +0.419 C 
ATOM     16  F   UNL     1      11.246  -1.118   6.632  0.00  0.00    -0.166 F 
ATOM     17  F   UNL     1       9.366   0.097   7.089  0.00  0.00    -0.166 F 
ATOM     18  F   UNL     1       9.621  -1.991   7.980  0.00  0.00    -0.166 F 
ENDBRANCH   9  15
ENDBRANCH   4   7
BRANCH   1  19
ATOM     19  C   UNL     1       2.954  -1.720   2.404  0.00  0.00    +0.087 C 
BRANCH  19  20
ATOM     20  C   UNL     1       1.499  -2.179   2.520  0.00  0.00    -0.060 C 
BRANCH  20  26
ATOM     21  C   UNL     1      -0.116   2.101   0.778  0.00  0.00    +0.005 C 
ATOM     22  C   UNL     1      -0.091   0.589   0.547  0.00  0.00    -0.031 C 
ATOM     23  C   UNL     1      -1.525   0.053   0.512  0.00  0.00    +0.003 C 
ATOM     24  C   UNL     1      -1.486  -1.470   0.358  0.00  0.00    -0.031 C 
ATOM     25  C   UNL     1      -0.669  -2.072   1.504  0.00  0.00    -0.076 C 
ATOM     26  N   UNL     1       0.698  -1.540   1.467  0.00  0.00    +0.381 N 
ATOM     27  C   UNL     1       0.674  -0.089   1.685  0.00  0.00    -0.076 C 
ATOM     28  C   UNL     1      -0.836  -1.833  -0.978  0.00  0.00    +0.005 C 
ATOM     29  H   UNL     1       1.110  -1.738   0.567  0.00  0.00    -0.082 HD
ENDBRANCH  20  26
ENDBRANCH  19  20
ENDBRANCH   1  19
TORSDOF 5
