REMARK  Name = ZINC39404470
REMARK  5 active torsions:
REMARK  status: ('A' for Active; 'I' for Inactive)
REMARK    1  A    between atoms: C_4  and  C_7
REMARK    2  A    between atoms: C_17  and  N_19
REMARK    3  A    between atoms: N_22  and  C_25
REMARK    4  A    between atoms: C_25  and  C_26
REMARK    5  A    between atoms: C_25  and  C_32
REMARK                            x       y       z     vdW  Elec       q    Type
REMARK                         _______ _______ _______ _____ _____    ______ ____
ROOT
ATOM      1  C   UNL     1       5.181  -2.478  -0.254  0.00  0.00    -0.005 C 
ATOM      2  C   UNL     1       5.775  -3.357   0.657  0.00  0.00    +0.003 A 
ATOM      3  C   UNL     1       7.110  -3.779   0.485  0.00  0.00    +0.030 A 
ATOM      4  C   UNL     1       7.664  -4.634   1.387  0.00  0.00    +0.042 A 
ATOM      5  C   UNL     1       6.938  -5.104   2.481  0.00  0.00    +0.022 A 
ATOM      6  C   UNL     1       5.646  -4.733   2.698  0.00  0.00    +0.025 A 
ATOM      7  C   UNL     1       5.009  -3.850   1.807  0.00  0.00    +0.041 A 
ATOM      8  N   UNL     1       3.741  -3.486   2.023  0.00  0.00    -0.283 N 
ATOM      9  C   UNL     1       3.074  -2.665   1.235  0.00  0.00    +0.239 C 
ATOM     10  O   UNL     1       1.920  -2.378   1.494  0.00  0.00    -0.273 OA
ATOM     11  C   UNL     1       3.744  -2.075   0.015  0.00  0.00    +0.175 C 
ATOM     12 CL   UNL     1       9.307  -5.151   1.172  0.00  0.00    -0.084 Cl
ATOM     13  H   UNL     1       3.287  -3.845   2.801  0.00  0.00    +0.155 HD
ENDROOT
BRANCH   1  17
ATOM     14  C   UNL     1       7.280  -1.013  -3.570  0.00  0.00    +0.000 A 
ATOM     15  C   UNL     1       7.013  -2.368  -3.469  0.00  0.00    +0.001 A 
ATOM     16  C   UNL     1       6.324  -2.860  -2.383  0.00  0.00    +0.008 A 
ATOM     17  C   UNL     1       5.892  -1.982  -1.376  0.00  0.00    -0.019 A 
ATOM     18  C   UNL     1       6.168  -0.610  -1.488  0.00  0.00    +0.008 A 
ATOM     19  C   UNL     1       6.858  -0.138  -2.582  0.00  0.00    +0.001 A 
ENDBRANCH   1  17
BRANCH  11  20
ATOM     20  N   UNL     1       2.943  -2.449  -1.158  0.00  0.00    -0.285 NA
ATOM     21  C   UNL     1       1.646  -1.758  -1.152  0.00  0.00    +0.101 C 
ATOM     22  C   UNL     1       0.877  -2.112  -2.427  0.00  0.00    +0.100 C 
ATOM     23  N   UNL     1       0.694  -3.569  -2.497  0.00  0.00    -0.289 NA
ATOM     24  C   UNL     1       1.991  -4.260  -2.502  0.00  0.00    +0.100 C 
ATOM     25  C   UNL     1       2.760  -3.906  -1.228  0.00  0.00    +0.101 C 
BRANCH  23  26
ATOM     26  C   UNL     1      -0.107  -3.943  -3.670  0.00  0.00    +0.117 C 
BRANCH  26  27
ATOM     27  C   UNL     1      -0.273  -5.441  -3.708  0.00  0.00    -0.026 A 
ATOM     28  C   UNL     1      -0.502  -6.141  -2.538  0.00  0.00    +0.005 A 
ATOM     29  C   UNL     1      -0.654  -7.514  -2.573  0.00  0.00    +0.000 A 
ATOM     30  C   UNL     1      -0.577  -8.188  -3.778  0.00  0.00    +0.000 A 
ATOM     31  C   UNL     1      -0.349  -7.488  -4.948  0.00  0.00    +0.000 A 
ATOM     32  C   UNL     1      -0.201  -6.114  -4.913  0.00  0.00    +0.005 A 
ENDBRANCH  26  27
BRANCH  26  33
ATOM     33  C   UNL     1      -1.462  -3.290  -3.582  0.00  0.00    -0.026 A 
ATOM     34  C   UNL     1      -2.113  -3.209  -2.365  0.00  0.00    +0.005 A 
ATOM     35  C   UNL     1      -3.356  -2.610  -2.285  0.00  0.00    +0.000 A 
ATOM     36  C   UNL     1      -3.948  -2.091  -3.421  0.00  0.00    +0.000 A 
ATOM     37  C   UNL     1      -3.297  -2.171  -4.638  0.00  0.00    +0.000 A 
ATOM     38  C   UNL     1      -2.052  -2.767  -4.718  0.00  0.00    +0.005 A 
ENDBRANCH  26  33
ENDBRANCH  23  26
ENDBRANCH  11  20
TORSDOF 5
