REMARK  Name = ZINC08964468
REMARK  11 active torsions:
REMARK  status: ('A' for Active; 'I' for Inactive)
REMARK    1  A    between atoms: C_1  and  C_2
REMARK    2  A    between atoms: C_2  and  C_4
REMARK    3  A    between atoms: C_9  and  C_39
REMARK    4  A    between atoms: C_20  and  C_38
REMARK    5  A    between atoms: C_23  and  O_26
REMARK    6  A    between atoms: O_26  and  C_27
REMARK    7  A    between atoms: C_27  and  C_29
REMARK    8  A    between atoms: C_29  and  C_30
REMARK    9  A    between atoms: C_30  and  N_84
REMARK   10  A    between atoms: C_34  and  C_36
REMARK   11  A    between atoms: C_34  and  C_37
REMARK                            x       y       z     vdW  Elec       q    Type
REMARK                         _______ _______ _______ _____ _____    ______ ____
ROOT
ATOM      1  C   UNL     1     -10.104   0.336   1.693  0.00  0.00    -0.003 C 
ATOM      2  C   UNL     1     -10.713   0.728   0.566  0.00  0.00    -0.019 C 
ATOM      3  C   UNL     1      -9.859   1.746  -0.164  0.00  0.00    +0.032 C 
ATOM      4  C   UNL     1      -8.422   1.478   0.390  0.00  0.00    +0.006 C 
ATOM      5  C   UNL     1      -8.786   1.052   1.824  0.00  0.00    -0.001 C 
ATOM      6  C   UNL     1      -7.715   0.257   2.518  0.00  0.00    +0.012 C 
ATOM      7  C   UNL     1      -7.088  -0.842   1.685  0.00  0.00    +0.005 C 
ATOM      8  C   UNL     1      -6.724  -0.414   0.273  0.00  0.00    -0.001 C 
ATOM      9  C   UNL     1      -7.871   0.300  -0.406  0.00  0.00    -0.003 C 
ATOM     10  C   UNL     1      -7.519   0.735  -1.827  0.00  0.00    +0.004 C 
ATOM     11  C   UNL     1      -6.205   1.516  -1.845  0.00  0.00    +0.004 C 
ATOM     12  C   UNL     1      -5.095   0.633  -1.283  0.00  0.00    -0.001 C 
ATOM     13  C   UNL     1      -5.383   0.299   0.184  0.00  0.00    -0.026 C 
ATOM     14  C   UNL     1      -4.282  -0.650   0.680  0.00  0.00    +0.011 C 
ATOM     15  C   UNL     1      -2.905  -0.010   0.529  0.00  0.00    +0.045 C 
ATOM     16  C   UNL     1      -2.641   0.370  -0.927  0.00  0.00    +0.177 C 
ATOM     17  C   UNL     1      -3.738   1.311  -1.430  0.00  0.00    +0.048 C 
ATOM     18  C   UNL     1      -5.352   1.571   1.026  0.00  0.00    +0.012 C 
ATOM     19  C   UNL     1      -9.027   2.328   2.646  0.00  0.00    +0.016 C 
ENDROOT
BRANCH   1  21
ATOM     20  C   UNL     1     -11.942  -1.351   2.320  0.00  0.00    +0.091 C 
ATOM     21  C   UNL     1     -10.658  -0.630   2.642  0.00  0.00    +0.156 C 
ATOM     22  O   UNL     1     -10.085  -0.851   3.688  0.00  0.00    -0.293 OA
ENDBRANCH   1  21
BRANCH  16  23
ATOM     23  O   UNL     1      -1.354   1.037  -1.026  0.00  0.00    -0.461 OA
BRANCH  23  24
ATOM     24  C   UNL     1      -0.281   0.260  -1.245  0.00  0.00    +0.306 C 
ATOM     25  O   UNL     1      -0.412  -0.936  -1.349  0.00  0.00    -0.251 OA
BRANCH  24  26
ATOM     26  C   UNL     1       1.087   0.881  -1.366  0.00  0.00    +0.102 C 
BRANCH  26  27
ATOM     27  C   UNL     1       2.124  -0.215  -1.617  0.00  0.00    -0.068 C 
BRANCH  27  35
ATOM     28  C   UNL     1       3.880   0.986  -0.461  0.00  0.00    -0.079 C 
ATOM     29  C   UNL     1       5.325   1.476  -0.580  0.00  0.00    -0.018 C 
ATOM     30  C   UNL     1       5.417   2.512  -1.704  0.00  0.00    +0.003 C 
ATOM     31  C   UNL     1       4.926   1.882  -3.010  0.00  0.00    -0.050 C 
ATOM     32  C   UNL     1       3.492   1.380  -2.821  0.00  0.00    -0.072 C 
ATOM     33  C   UNL     1       5.833   0.708  -3.383  0.00  0.00    +0.009 C 
ATOM     34  C   UNL     1       4.958   2.928  -4.126  0.00  0.00    +0.009 C 
ATOM     35  N   UNL     1       3.476   0.368  -1.742  0.00  0.00    +0.380 N 
ATOM     36  H   UNL     1       4.141  -0.378  -1.976  0.00  0.00    -0.082 HD
ENDBRANCH  27  35
ENDBRANCH  26  27
ENDBRANCH  24  26
ENDBRANCH  23  24
ENDBRANCH  16  23
TORSDOF 6
