REMARK  Name = ZINC42636595
REMARK  9 active torsions:
REMARK  status: ('A' for Active; 'I' for Inactive)
REMARK    1  A    between atoms: C_1  and  C_2
REMARK    2  A    between atoms: C_2  and  C_4
REMARK    3  A    between atoms: C_2  and  N_14
REMARK    4  A    between atoms: N_14  and  C_15
REMARK    5  A    between atoms: C_15  and  C_17
REMARK    6  A    between atoms: C_15  and  C_18
REMARK    7  A    between atoms: N_20  and  C_21
REMARK    8  A    between atoms: C_25  and  N_27
REMARK    9  A    between atoms: C_28  and  C_30
REMARK                            x       y       z     vdW  Elec       q    Type
REMARK                         _______ _______ _______ _____ _____    ______ ____
ROOT
ATOM      1  C   UNL     1      -0.343  -0.196   2.553  0.00  0.00    +0.014 C 
ATOM      2  C   UNL     1      -0.913   1.224   2.583  0.00  0.00    -0.004 C 
ENDROOT
BRANCH   1   3
ATOM      3  C   UNL     1       0.373  -0.476   3.848  0.00  0.00    +0.203 C 
ATOM      4  O   UNL     1       1.554  -0.754   3.841  0.00  0.00    -0.277 OA
ATOM      5  N   UNL     1      -0.297  -0.419   5.016  0.00  0.00    -0.287 N 
ATOM      6  H   UNL     1      -1.256  -0.273   5.018  0.00  0.00    +0.155 HD
BRANCH   5   7
ATOM      7  C   UNL     1       0.389  -0.571   6.226  0.00  0.00    +0.035 A 
ATOM      8  C   UNL     1      -0.232  -1.185   7.306  0.00  0.00    +0.023 A 
ATOM      9  C   UNL     1       0.445  -1.336   8.500  0.00  0.00    +0.004 A 
ATOM     10  C   UNL     1       1.742  -0.875   8.625  0.00  0.00    +0.023 A 
ATOM     11  C   UNL     1       2.369  -0.260   7.549  0.00  0.00    +0.035 A 
ATOM     12  C   UNL     1       1.693  -0.112   6.346  0.00  0.00    +0.046 A 
BRANCH  11  13
ATOM     13  N   UNL     1       3.682   0.207   7.676  0.00  0.00    -0.286 N 
ATOM     14  C   UNL     1       4.554  -0.445   8.470  0.00  0.00    +0.214 C 
ATOM     15  O   UNL     1       4.231  -1.487   9.000  0.00  0.00    -0.276 OA
ATOM     16  C   UNL     1       5.933   0.120   8.699  0.00  0.00    +0.109 C 
ATOM     17  H   UNL     1       3.964   0.999   7.194  0.00  0.00    +0.155 HD
ENDBRANCH  11  13
ENDBRANCH   5   7
ENDBRANCH   1   3
BRANCH   1  18
ATOM     18  N   UNL     1       0.600  -0.321   1.434  0.00  0.00    +0.391 N 
ATOM     19  H   UNL     1       1.047  -1.225   1.471  0.00  0.00    -0.084 HD
ATOM     20  H   UNL     1       1.300   0.403   1.501  0.00  0.00    -0.084 HD
BRANCH  18  22
ATOM     21  C   UNL     1       0.873  -0.184  -0.996  0.00  0.00    -0.009 C 
ATOM     22  C   UNL     1      -0.125  -0.185   0.164  0.00  0.00    -0.043 C 
BRANCH  22  23
ATOM     23  C   UNL     1      -1.080  -1.340   0.004  0.00  0.00    -0.061 A 
ATOM     24  C   UNL     1      -0.698  -2.613   0.385  0.00  0.00    +0.002 A 
ATOM     25  C   UNL     1      -1.576  -3.666   0.233  0.00  0.00    +0.004 A 
ATOM     26  C   UNL     1      -2.843  -3.458  -0.299  0.00  0.00    -0.044 A 
ATOM     27  C   UNL     1      -3.224  -2.189  -0.673  0.00  0.00    -0.044 A 
ATOM     28  C   UNL     1      -2.339  -1.130  -0.517  0.00  0.00    +0.006 A 
ATOM     29  C   UNL     1      -4.587  -1.887  -1.241  0.00  0.00    +0.035 C 
ATOM     30  C   UNL     1      -5.258  -3.167  -1.737  0.00  0.00    +0.005 C 
ATOM     31  C   UNL     1      -5.199  -4.210  -0.615  0.00  0.00    +0.005 C 
ATOM     32  C   UNL     1      -3.748  -4.653  -0.444  0.00  0.00    +0.035 C 
ENDBRANCH  22  23
ENDBRANCH  18  22
ENDBRANCH   1  18
TORSDOF 6
