REMARK  Name = ZINC38779472
REMARK  8 active torsions:
REMARK  status: ('A' for Active; 'I' for Inactive)
REMARK    1  A    between atoms: C_1  and  C_2
REMARK    2  A    between atoms: C_4  and  C_33
REMARK    3  A    between atoms: C_9  and  C_24
REMARK    4  A    between atoms: N_13  and  N_14
REMARK    5  A    between atoms: N_14  and  C_15
REMARK    6  A    between atoms: C_27  and  O_32
REMARK    7  A    between atoms: C_28  and  O_30
REMARK    8  A    between atoms: O_30  and  C_31
REMARK                            x       y       z     vdW  Elec       q    Type
REMARK                         _______ _______ _______ _____ _____    ______ ____
ROOT
ATOM      1  C   UNL     1      -0.539   1.448   0.041  0.00  0.00    +0.044 C 
ATOM      2  C   UNL     1      -0.246  -0.030   0.016  0.00  0.00    -0.047 A 
ATOM      3  C   UNL     1      -0.243  -0.709  -1.190  0.00  0.00    +0.007 A 
ATOM      4  C   UNL     1       0.022  -2.064  -1.222  0.00  0.00    -0.038 A 
ATOM      5  C   UNL     1       0.287  -2.741  -0.035  0.00  0.00    +0.042 A 
ATOM      6  C   UNL     1       0.288  -2.055   1.186  0.00  0.00    +0.131 A 
ATOM      7  C   UNL     1       0.022  -0.694   1.198  0.00  0.00    +0.049 A 
ATOM      8  O   UNL     1       0.557  -2.703   2.347  0.00  0.00    -0.483 OA
ATOM      9  C   UNL     1       0.361  -4.115   2.406  0.00  0.00    +0.210 C 
ATOM     10  C   UNL     1       1.116  -4.784   1.248  0.00  0.00    +0.107 C 
ATOM     11  C   UNL     1       0.570  -4.194  -0.041  0.00  0.00    +0.074 C 
ATOM     12  N   UNL     1       0.361  -4.926  -1.092  0.00  0.00    -0.188 NA
ATOM     13  C   UNL     1       0.024  -2.805  -2.534  0.00  0.00    +0.044 C 
ENDROOT
BRANCH   9  14
ATOM     14  C   UNL     1       0.885  -4.641   3.718  0.00  0.00    -0.003 A 
ATOM     15  C   UNL     1       2.002  -4.066   4.294  0.00  0.00    +0.011 A 
ATOM     16  C   UNL     1       2.487  -4.545   5.497  0.00  0.00    +0.049 A 
ATOM     17  C   UNL     1       1.852  -5.603   6.128  0.00  0.00    +0.158 A 
ATOM     18  C   UNL     1       0.727  -6.181   5.548  0.00  0.00    +0.162 A 
ATOM     19  C   UNL     1       0.243  -5.693   4.345  0.00  0.00    +0.056 A 
BRANCH  18  20
ATOM     20  O   UNL     1       0.100  -7.219   6.164  0.00  0.00    -0.491 OA
ATOM     21  C   UNL     1      -1.049  -7.763   5.511  0.00  0.00    +0.277 C 
ENDBRANCH  18  20
BRANCH  17  22
ATOM     22  O   UNL     1       2.327  -6.075   7.311  0.00  0.00    -0.503 OA
ATOM     23  H   UNL     1       1.948  -5.642   8.089  0.00  0.00    +0.292 HD
ENDBRANCH  17  22
ENDBRANCH   9  14
BRANCH  12  24
ATOM     24  N   UNL     1       0.641  -6.299  -1.057  0.00  0.00    -0.229 N 
ATOM     25  H   UNL     1       0.991  -6.702  -0.247  0.00  0.00    +0.172 HD
BRANCH  24  26
ATOM     26  C   UNL     1       0.405  -7.125  -2.244  0.00  0.00    +0.283 C 
ATOM     27  N   UNL     1      -0.936  -7.719  -2.185  0.00  0.00    -0.347 N 
ATOM     28  C   UNL     1      -0.791  -9.013  -2.182  0.00  0.00    +0.061 A 
ATOM     29  C   UNL     1      -1.749 -10.126  -2.136  0.00  0.00    +0.027 A 
ATOM     30  C   UNL     1      -1.294 -11.395  -2.145  0.00  0.00    +0.002 A 
ATOM     31  C   UNL     1       0.075 -11.710  -2.198  0.00  0.00    +0.002 A 
ATOM     32  C   UNL     1       1.037 -10.766  -2.243  0.00  0.00    +0.027 A 
ATOM     33  C   UNL     1       0.659  -9.346  -2.238  0.00  0.00    +0.061 A 
ATOM     34  N   UNL     1       1.353  -8.245  -2.274  0.00  0.00    -0.347 N 
ATOM     35  H   UNL     1      -1.777  -7.237  -2.155  0.00  0.00    +0.163 HD
ATOM     36  H   UNL     1       2.320  -8.178  -2.314  0.00  0.00    +0.163 HD
ENDBRANCH  24  26
ENDBRANCH  12  24
TORSDOF 5
