REMARK  Name = ZINC46342418
REMARK  11 active torsions:
REMARK  status: ('A' for Active; 'I' for Inactive)
REMARK    1  A    between atoms: C_1  and  C_2
REMARK    2  A    between atoms: C_2  and  C_4
REMARK    3  A    between atoms: C_2  and  O_11
REMARK    4  A    between atoms: O_11  and  C_12
REMARK    5  A    between atoms: C_12  and  C_13
REMARK    6  A    between atoms: C_13  and  C_15
REMARK    7  A    between atoms: C_13  and  O_29
REMARK    8  A    between atoms: C_15  and  N_16
REMARK    9  A    between atoms: N_25  and  C_26
REMARK   10  A    between atoms: C_26  and  C_27
REMARK   11  A    between atoms: C_27  and  O_28
REMARK                            x       y       z     vdW  Elec       q    Type
REMARK                         _______ _______ _______ _____ _____    ______ ____
ROOT
ATOM      1  N   UNL     1      -5.372  -1.703  -2.409  0.00  0.00    -0.311 N 
ATOM      2  C   UNL     1      -5.866  -2.997  -2.393  0.00  0.00    +0.068 A 
ATOM      3  C   UNL     1      -5.282  -4.251  -2.489  0.00  0.00    +0.028 A 
ATOM      4  C   UNL     1      -6.070  -5.381  -2.439  0.00  0.00    +0.002 A 
ATOM      5  C   UNL     1      -7.445  -5.273  -2.293  0.00  0.00    +0.002 A 
ATOM      6  C   UNL     1      -8.043  -4.036  -2.197  0.00  0.00    +0.028 A 
ATOM      7  C   UNL     1      -7.258  -2.881  -2.245  0.00  0.00    +0.065 A 
ATOM      8  N   UNL     1      -7.544  -1.554  -2.179  0.00  0.00    -0.327 N 
ATOM      9  C   UNL     1      -6.437  -0.861  -2.269  0.00  0.00    +0.174 A 
ATOM     10  N   UNL     1      -6.359   0.516  -2.231  0.00  0.00    -0.314 N 
ATOM     11  H   UNL     1      -5.498   0.955  -2.307  0.00  0.00    +0.149 HD
ATOM     12  H   UNL     1      -8.432  -1.179  -2.076  0.00  0.00    +0.169 HD
ENDROOT
BRANCH   1  13
ATOM     13  C   UNL     1      -3.966  -1.311  -2.544  0.00  0.00    +0.158 C 
BRANCH  13  14
ATOM     14  C   UNL     1      -3.326  -1.221  -1.157  0.00  0.00    +0.160 C 
BRANCH  14  15
ATOM     15  O   UNL     1      -3.301  -2.519  -0.559  0.00  0.00    -0.388 OA
ATOM     16  H   UNL     1      -2.800  -3.175  -1.063  0.00  0.00    +0.210 HD
ENDBRANCH  14  15
BRANCH  14  17
ATOM     17  C   UNL     1      -1.896  -0.693  -1.289  0.00  0.00    +0.193 C 
BRANCH  17  18
ATOM     18  O   UNL     1      -1.339  -0.499   0.012  0.00  0.00    -0.370 OA
BRANCH  18  20
ATOM     19  C   UNL     1      -0.019   1.526   0.010  0.00  0.00    +0.043 C 
ATOM     20  C   UNL     1       0.002  -0.004   0.002  0.00  0.00    +0.145 C 
BRANCH  20  21
ATOM     21  C   UNL     1       0.731  -0.503   1.223  0.00  0.00    -0.019 A 
ATOM     22  C   UNL     1       0.053  -0.656   2.418  0.00  0.00    +0.007 A 
ATOM     23  C   UNL     1       0.721  -1.114   3.538  0.00  0.00    +0.020 A 
ATOM     24  C   UNL     1       2.068  -1.419   3.463  0.00  0.00    +0.041 A 
ATOM     25  C   UNL     1       2.746  -1.266   2.267  0.00  0.00    +0.020 A 
ATOM     26  C   UNL     1       2.076  -0.813   1.146  0.00  0.00    +0.007 A 
ATOM     27 CL   UNL     1       2.908  -1.994   4.870  0.00  0.00    -0.084 Cl
ENDBRANCH  20  21
ENDBRANCH  18  20
ENDBRANCH  17  18
ENDBRANCH  14  17
ENDBRANCH  13  14
ENDBRANCH   1  13
BRANCH  10  28
ATOM     28  C   UNL     1      -7.578   1.314  -2.076  0.00  0.00    +0.132 C 
BRANCH  28  29
ATOM     29  C   UNL     1      -7.215   2.801  -2.065  0.00  0.00    +0.174 C 
BRANCH  29  30
ATOM     30  O   UNL     1      -6.680   3.170  -3.337  0.00  0.00    -0.393 OA
ATOM     31  H   UNL     1      -6.428   4.101  -3.403  0.00  0.00    +0.209 HD
ENDBRANCH  29  30
ENDBRANCH  28  29
ENDBRANCH  10  28
TORSDOF 10
