REMARK  Name = ZINC09779352
REMARK  6 active torsions:
REMARK  status: ('A' for Active; 'I' for Inactive)
REMARK    1  A    between atoms: C_1  and  N_49
REMARK    2  A    between atoms: C_7  and  C_9
REMARK    3  A    between atoms: C_14  and  N_15
REMARK    4  A    between atoms: C_16  and  C_18
REMARK    5  A    between atoms: C_18  and  O_19
REMARK    6  A    between atoms: O_19  and  C_20
REMARK                            x       y       z     vdW  Elec       q    Type
REMARK                         _______ _______ _______ _____ _____    ______ ____
ROOT
ATOM      1  C   UNL     1      -6.944  -0.774   3.199  0.00  0.00    +0.058 A 
ATOM      2  C   UNL     1      -8.056  -1.612   3.080  0.00  0.00    +0.015 A 
ATOM      3  C   UNL     1      -8.571  -1.897   1.834  0.00  0.00    +0.001 A 
ATOM      4  C   UNL     1      -7.992  -1.357   0.697  0.00  0.00    +0.002 A 
ATOM      5  C   UNL     1      -6.897  -0.524   0.800  0.00  0.00    +0.024 A 
ATOM      6  C   UNL     1      -6.361  -0.230   2.046  0.00  0.00    +0.046 A 
ENDROOT
BRANCH   1  13
ATOM      7  C   UNL     1      -3.441  -4.359   6.893  0.00  0.00    -0.096 C 
ATOM      8  C   UNL     1      -4.199  -2.061   6.818  0.00  0.00    -0.060 C 
ATOM      9  C   UNL     1      -5.446  -1.180   6.678  0.00  0.00    +0.089 C 
ATOM     10  N   UNL     1      -6.074  -1.463   5.378  0.00  0.00    -0.301 N 
ATOM     11  C   UNL     1      -6.356  -2.865   5.032  0.00  0.00    +0.089 C 
ATOM     12  C   UNL     1      -5.068  -3.679   5.234  0.00  0.00    -0.060 C 
ATOM     13  C   UNL     1      -6.388  -0.464   4.530  0.00  0.00    +0.248 C 
ATOM     14  O   UNL     1      -6.214   0.693   4.861  0.00  0.00    -0.270 OA
ATOM     15  N   UNL     1      -4.591  -3.473   6.619  0.00  0.00    +0.380 N 
ATOM     16  H   UNL     1      -5.351  -3.703   7.271  0.00  0.00    -0.082 HD
ENDBRANCH   1  13
BRANCH   6  17
ATOM     17  N   UNL     1      -5.252   0.607   2.151  0.00  0.00    -0.282 N 
ATOM     18  C   UNL     1      -5.077   1.609   1.267  0.00  0.00    +0.255 C 
ATOM     19  O   UNL     1      -5.847   1.739   0.339  0.00  0.00    -0.272 OA
ATOM     20  H   UNL     1      -4.606   0.469   2.861  0.00  0.00    +0.155 HD
BRANCH  18  21
ATOM     21  C   UNL     1      -3.925   2.567   1.431  0.00  0.00    +0.325 C 
BRANCH  21  22
ATOM     22  O   UNL     1      -3.954   3.531   0.377  0.00  0.00    -0.480 OA
BRANCH  22  23
ATOM     23  C   UNL     1      -2.975   4.475   0.378  0.00  0.00    +0.153 A 
ATOM     24  C   UNL     1      -1.784   4.242  -0.295  0.00  0.00    +0.085 A 
ATOM     25  C   UNL     1      -0.793   5.207  -0.299  0.00  0.00    +0.043 A 
ATOM     26  C   UNL     1      -0.987   6.401   0.373  0.00  0.00    +0.044 A 
ATOM     27  C   UNL     1      -2.171   6.633   1.050  0.00  0.00    +0.039 A 
ATOM     28  C   UNL     1      -3.164   5.671   1.056  0.00  0.00    +0.062 A 
ATOM     29 BR   UNL     1      -4.783   5.989   1.981  0.00  0.00    -0.046 Br
ATOM     30 CL   UNL     1       0.259   7.610   0.367  0.00  0.00    -0.083 Cl
ATOM     31 CL   UNL     1      -1.542   2.745  -1.139  0.00  0.00    -0.080 Cl
ENDBRANCH  22  23
ENDBRANCH  21  22
ENDBRANCH  18  21
ENDBRANCH   6  17
TORSDOF 5
