REMARK  Name = ZINC36630476
REMARK  11 active torsions:
REMARK  status: ('A' for Active; 'I' for Inactive)
REMARK    1  A    between atoms: C_1  and  C_2
REMARK    2  A    between atoms: C_2  and  C_3
REMARK    3  A    between atoms: C_8  and  N_9
REMARK    4  A    between atoms: C_12  and  C_17
REMARK    5  A    between atoms: C_17  and  S_18
REMARK    6  A    between atoms: S_18  and  C_19
REMARK    7  A    between atoms: C_22  and  S_24
REMARK    8  A    between atoms: S_24  and  C_25
REMARK    9  A    between atoms: C_25  and  C_26
REMARK   10  A    between atoms: C_29  and  O_32
REMARK   11  A    between atoms: O_32  and  C_33
REMARK                            x       y       z     vdW  Elec       q    Type
REMARK                         _______ _______ _______ _____ _____    ______ ____
ROOT
ATOM      1  N   UNL     1       2.833  -0.268  -0.114  0.00  0.00    -0.283 N 
ATOM      2  C   UNL     1       4.198  -0.480  -0.092  0.00  0.00    +0.224 A 
ATOM      3  N   UNL     1       4.888  -0.259   1.025  0.00  0.00    -0.198 NA
ATOM      4  C   UNL     1       6.194  -0.461   1.047  0.00  0.00    +0.146 A 
ATOM      5  N   UNL     1       6.820  -0.882  -0.039  0.00  0.00    -0.199 NA
ATOM      6  C   UNL     1       6.136  -1.104  -1.159  0.00  0.00    +0.217 A 
ATOM      7  N   UNL     1       4.822  -0.908  -1.183  0.00  0.00    -0.181 NA
ATOM      8  N   UNL     1       6.790  -1.543  -2.292  0.00  0.00    -0.327 N 
ATOM      9  H   UNL     1       2.364  -0.042   0.705  0.00  0.00    +0.155 HD
ATOM     10  H   UNL     1       7.748  -1.690  -2.272  0.00  0.00    +0.145 HD
ATOM     11  H   UNL     1       6.291  -1.705  -3.108  0.00  0.00    +0.145 HD
ENDROOT
BRANCH   1  17
ATOM     12  C   UNL     1       0.796  -0.778  -1.307  0.00  0.00    -0.026 A 
ATOM     13  C   UNL     1       0.101  -0.882  -2.495  0.00  0.00    +0.005 A 
ATOM     14  C   UNL     1       0.729  -0.596  -3.693  0.00  0.00    +0.000 A 
ATOM     15  C   UNL     1       2.056  -0.205  -3.706  0.00  0.00    +0.002 A 
ATOM     16  C   UNL     1       2.757  -0.100  -2.521  0.00  0.00    +0.023 A 
ATOM     17  C   UNL     1       2.127  -0.381  -1.316  0.00  0.00    +0.037 A 
BRANCH  12  19
ATOM     18  C   UNL     1      -0.425   0.206   0.614  0.00  0.00    +0.009 C 
ATOM     19  C   UNL     1       0.111  -1.089  -0.002  0.00  0.00    +0.033 C 
ENDBRANCH  12  19
ENDBRANCH   1  17
BRANCH   4  20
ATOM     20  C   UNL     1       6.972  -0.210   2.313  0.00  0.00    +0.152 C 
BRANCH  20  21
ATOM     21  S   UNL     1       7.026  -1.731   3.300  0.00  0.00    -0.089 S 
BRANCH  21  22
ATOM     22  C   UNL     1       7.957  -1.280   4.727  0.00  0.00    +0.160 A 
ATOM     23  N   UNL     1       8.497  -0.118   5.040  0.00  0.00    -0.134 NA
ATOM     24  N   UNL     1       9.191   0.019   6.219  0.00  0.00    -0.134 NA
ATOM     25  C   UNL     1       9.314  -1.013   7.032  0.00  0.00    +0.160 A 
ATOM     26  S   UNL     1       8.415  -2.272   6.140  0.00  0.00    -0.033 S 
BRANCH  25  27
ATOM     27  S   UNL     1      10.138  -1.119   8.586  0.00  0.00    -0.092 S 
BRANCH  27  28
ATOM     28  C   UNL     1      10.806   0.548   8.843  0.00  0.00    +0.111 C 
BRANCH  28  29
ATOM     29  C   UNL     1      11.545   0.597  10.155  0.00  0.00    -0.037 A 
ATOM     30  C   UNL     1      10.871   0.932  11.315  0.00  0.00    +0.008 A 
ATOM     31  C   UNL     1      11.547   0.978  12.519  0.00  0.00    +0.046 A 
ATOM     32  C   UNL     1      12.903   0.686  12.564  0.00  0.00    +0.120 A 
ATOM     33  C   UNL     1      13.576   0.349  11.399  0.00  0.00    +0.046 A 
ATOM     34  C   UNL     1      12.895   0.300  10.198  0.00  0.00    +0.008 A 
BRANCH  32  35
ATOM     35  O   UNL     1      13.570   0.730  13.747  0.00  0.00    -0.495 OA
ATOM     36  C   UNL     1      14.964   0.418  13.718  0.00  0.00    +0.277 C 
ENDBRANCH  32  35
ENDBRANCH  28  29
ENDBRANCH  27  28
ENDBRANCH  25  27
ENDBRANCH  21  22
ENDBRANCH  20  21
ENDBRANCH   4  20
TORSDOF 9
