REMARK  Name = ZINC58687804
REMARK  6 active torsions:
REMARK  status: ('A' for Active; 'I' for Inactive)
REMARK    1  A    between atoms: C_1  and  C_2
REMARK    2  A    between atoms: C_7  and  C_8
REMARK    3  A    between atoms: C_8  and  C_10
REMARK    4  A    between atoms: C_8  and  N_24
REMARK    5  A    between atoms: C_10  and  C_11
REMARK    6  A    between atoms: N_13  and  C_14
REMARK                            x       y       z     vdW  Elec       q    Type
REMARK                         _______ _______ _______ _____ _____    ______ ____
ROOT
ATOM      1  C   UNL     1       0.069   0.014   2.565  0.00  0.00    +0.114 C 
ENDROOT
BRANCH   1   8
ATOM      2  C   UNL     1      -2.401  -0.787   1.297  0.00  0.00    +0.044 C 
ATOM      3  C   UNL     1      -1.084  -1.299   0.772  0.00  0.00    -0.045 A 
ATOM      4  C   UNL     1      -1.057  -2.147  -0.319  0.00  0.00    +0.004 A 
ATOM      5  C   UNL     1       0.151  -2.616  -0.800  0.00  0.00    +0.000 A 
ATOM      6  C   UNL     1       1.332  -2.237  -0.190  0.00  0.00    +0.000 A 
ATOM      7  C   UNL     1       1.305  -1.389   0.901  0.00  0.00    +0.006 A 
ATOM      8  C   UNL     1       0.098  -0.916   1.379  0.00  0.00    -0.024 A 
ENDBRANCH   1   8
BRANCH   1   9
ATOM      9  N   UNL     1      -0.376  -0.722   3.752  0.00  0.00    -0.292 N 
ATOM     10  C   UNL     1       0.330  -1.782   4.191  0.00  0.00    +0.298 C 
ATOM     11  O   UNL     1       1.389  -2.066   3.667  0.00  0.00    -0.253 OA
ATOM     12  N   UNL     1      -0.137  -2.526   5.213  0.00  0.00    -0.313 N 
ATOM     13  H   UNL     1      -1.179  -0.446   4.220  0.00  0.00    +0.151 HD
ATOM     14  H   UNL     1      -0.983  -2.300   5.631  0.00  0.00    +0.146 HD
ATOM     15  H   UNL     1       0.371  -3.289   5.529  0.00  0.00    +0.146 HD
ENDBRANCH   1   9
BRANCH   1  16
ATOM     16  C   UNL     1       1.471   0.574   2.809  0.00  0.00    +0.123 C 
BRANCH  16  17
ATOM     17  C   UNL     1       1.419   1.596   3.915  0.00  0.00    +0.219 C 
ATOM     18  O   UNL     1       0.364   1.851   4.456  0.00  0.00    -0.275 OA
ATOM     19  N   UNL     1       2.545   2.226   4.304  0.00  0.00    -0.285 N 
ATOM     20  H   UNL     1       3.374   2.079   3.822  0.00  0.00    +0.155 HD
BRANCH  19  21
ATOM     21  C   UNL     1       2.518   3.092   5.402  0.00  0.00    +0.037 A 
ATOM     22  C   UNL     1       1.539   2.945   6.372  0.00  0.00    +0.023 A 
ATOM     23  C   UNL     1       1.514   3.803   7.455  0.00  0.00    +0.002 A 
ATOM     24  C   UNL     1       2.461   4.801   7.562  0.00  0.00    +0.004 A 
ATOM     25  C   UNL     1       3.444   4.954   6.592  0.00  0.00    -0.042 A 
ATOM     26  C   UNL     1       3.481   4.096   5.517  0.00  0.00    -0.023 A 
ATOM     27  C   UNL     1       4.530   4.189   4.441  0.00  0.00    +0.037 C 
ATOM     28  C   UNL     1       5.215   5.553   4.474  0.00  0.00    +0.005 C 
ATOM     29  C   UNL     1       5.680   5.826   5.910  0.00  0.00    +0.005 C 
ATOM     30  C   UNL     1       4.439   6.071   6.772  0.00  0.00    +0.035 C 
ENDBRANCH  19  21
ENDBRANCH  16  17
ENDBRANCH   1  16
TORSDOF 5
