REMARK  Name = ZINC56523916
REMARK  9 active torsions:
REMARK  status: ('A' for Active; 'I' for Inactive)
REMARK    1  A    between atoms: C_1  and  C_2
REMARK    2  A    between atoms: C_2  and  C_4
REMARK    3  A    between atoms: C_2  and  N_17
REMARK    4  A    between atoms: C_7  and  N_10
REMARK    5  A    between atoms: N_13  and  C_16
REMARK    6  A    between atoms: N_20  and  C_21
REMARK    7  A    between atoms: C_26  and  C_27
REMARK    8  A    between atoms: C_27  and  C_28
REMARK    9  A    between atoms: C_27  and  C_29
REMARK                            x       y       z     vdW  Elec       q    Type
REMARK                         _______ _______ _______ _____ _____    ______ ____
ROOT
ATOM      1  C   UNL     1      -0.112   1.540   0.007  0.00  0.00    +0.033 C 
ATOM      2  C   UNL     1      -0.004   0.013  -0.003  0.00  0.00    +0.102 C 
ENDROOT
BRANCH   2   3
ATOM      3  C   UNL     1      -1.384  -0.588   0.064  0.00  0.00    -0.027 A 
ATOM      4  C   UNL     1      -2.042  -0.671   1.278  0.00  0.00    +0.007 A 
ATOM      5  C   UNL     1      -3.306  -1.222   1.343  0.00  0.00    +0.023 A 
ATOM      6  C   UNL     1      -3.918  -1.693   0.188  0.00  0.00    +0.030 A 
ATOM      7  C   UNL     1      -3.254  -1.607  -1.030  0.00  0.00    +0.023 A 
ATOM      8  C   UNL     1      -1.992  -1.050  -1.089  0.00  0.00    +0.007 A 
BRANCH   6   9
ATOM      9  N   UNL     1      -5.197  -2.251   0.250  0.00  0.00    -0.333 N 
ATOM     10  C   UNL     1      -5.907  -2.653  -0.974  0.00  0.00    +0.086 C 
ATOM     11  C   UNL     1      -6.412  -4.088  -0.793  0.00  0.00    -0.060 C 
ATOM     12  N   UNL     1      -7.218  -4.172   0.431  0.00  0.00    +0.380 N 
ATOM     13  C   UNL     1      -6.378  -3.898   1.604  0.00  0.00    -0.060 C 
ATOM     14  C   UNL     1      -5.869  -2.459   1.542  0.00  0.00    +0.086 C 
ATOM     15  C   UNL     1      -7.792  -5.519   0.546  0.00  0.00    -0.096 C 
ATOM     16  H   UNL     1      -7.964  -3.494   0.388  0.00  0.00    -0.082 HD
ENDBRANCH   6   9
ENDBRANCH   2   3
BRANCH   2  17
ATOM     17  N   UNL     1       0.779  -0.429   1.153  0.00  0.00    -0.293 N 
ATOM     18  C   UNL     1       2.124  -0.462   1.084  0.00  0.00    +0.304 C 
ATOM     19  O   UNL     1       2.689  -0.125   0.061  0.00  0.00    -0.252 OA
ATOM     20  N   UNL     1       2.844  -0.869   2.148  0.00  0.00    -0.269 N 
ATOM     21  H   UNL     1       0.329  -0.698   1.969  0.00  0.00    +0.151 HD
ATOM     22  H   UNL     1       2.393  -1.191   2.944  0.00  0.00    +0.156 HD
BRANCH  20  23
ATOM     23  C   UNL     1       4.242  -0.827   2.104  0.00  0.00    +0.038 A 
ATOM     24  C   UNL     1       4.903  -0.894   0.885  0.00  0.00    +0.023 A 
ATOM     25  C   UNL     1       6.283  -0.852   0.845  0.00  0.00    +0.002 A 
ATOM     26  C   UNL     1       7.007  -0.743   2.018  0.00  0.00    +0.000 A 
ATOM     27  C   UNL     1       6.352  -0.676   3.234  0.00  0.00    +0.006 A 
ATOM     28  C   UNL     1       4.972  -0.712   3.280  0.00  0.00    -0.024 A 
BRANCH  28  29
ATOM     29  C   UNL     1       4.259  -0.633   4.606  0.00  0.00    +0.015 C 
ATOM     30  C   UNL     1       4.597  -1.869   5.441  0.00  0.00    +0.012 C 
ATOM     31  C   UNL     1       4.708   0.625   5.352  0.00  0.00    +0.012 C 
ENDBRANCH  28  29
ENDBRANCH  20  23
ENDBRANCH   2  17
TORSDOF 5
