REMARK  Name = ZINC21794835
REMARK  8 active torsions:
REMARK  status: ('A' for Active; 'I' for Inactive)
REMARK    1  A    between atoms: C_1  and  C_2
REMARK    2  A    between atoms: C_2  and  C_3
REMARK    3  A    between atoms: C_3  and  C_5
REMARK    4  A    between atoms: C_3  and  N_13
REMARK    5  A    between atoms: C_10  and  O_11
REMARK    6  A    between atoms: N_13  and  C_14
REMARK    7  A    between atoms: C_14  and  C_16
REMARK    8  A    between atoms: C_14  and  C_17
REMARK                            x       y       z     vdW  Elec       q    Type
REMARK                         _______ _______ _______ _____ _____    ______ ____
ROOT
ATOM      1  C   UNL     1       4.513   4.062  -1.166  0.00  0.00    -0.037 C 
ENDROOT
BRANCH   1   2
ATOM      2  C   UNL     1       5.781   3.266  -1.340  0.00  0.00    -0.019 A 
ATOM      3  C   UNL     1       5.727   1.888  -1.420  0.00  0.00    +0.020 A 
ATOM      4  C   UNL     1       6.890   1.157  -1.579  0.00  0.00    +0.018 A 
ATOM      5  C   UNL     1       8.111   1.804  -1.659  0.00  0.00    +0.019 A 
ATOM      6  C   UNL     1       8.169   3.182  -1.581  0.00  0.00    +0.047 A 
ATOM      7  C   UNL     1       7.003   3.917  -1.427  0.00  0.00    +0.119 A 
ATOM      8 BR   UNL     1       6.813  -0.729  -1.687  0.00  0.00    -0.050 Br
BRANCH   7   9
ATOM      9  O   UNL     1       7.058   5.273  -1.355  0.00  0.00    -0.507 OA
ATOM     10  H   UNL     1       8.027   5.789  -1.423  0.00  0.00    +0.292 HD
ENDBRANCH   7   9
ENDBRANCH   1   2
BRANCH   1  11
ATOM     11  N   UNL     1       3.491   3.221  -0.528  0.00  0.00    +0.388 N 
ATOM     12  H   UNL     1       2.571   3.242  -1.130  0.00  0.00    -0.084 HD
ATOM     13  H   UNL     1       3.860   2.187  -0.456  0.00  0.00    -0.084 HD
BRANCH  11  14
ATOM     14  C   UNL     1       3.181   3.705   0.824  0.00  0.00    -0.042 C 
ATOM     15  C   UNL     1       4.236   3.189   1.805  0.00  0.00    -0.009 C 
BRANCH  14  16
ATOM     16  C   UNL     1       1.822   3.204   1.238  0.00  0.00    -0.043 A 
ATOM     17  C   UNL     1       1.308   2.052   0.671  0.00  0.00    +0.003 A 
ATOM     18  C   UNL     1       0.061   1.591   1.051  0.00  0.00    +0.000 A 
ATOM     19  C   UNL     1      -0.675   2.285   1.993  0.00  0.00    +0.001 A 
ATOM     20  C   UNL     1      -0.160   3.433   2.564  0.00  0.00    +0.020 A 
ATOM     21  C   UNL     1       1.088   3.895   2.185  0.00  0.00    +0.043 A 
ATOM     22 CL   UNL     1       1.732   5.342   2.896  0.00  0.00    -0.083 Cl
ENDBRANCH  14  16
ENDBRANCH  11  14
ENDBRANCH   1  11
BRANCH   1  24
ATOM     23  C   UNL     1       2.806   5.451  -2.349  0.00  0.00    +0.002 C 
ATOM     24  C   UNL     1       4.010   4.525  -2.535  0.00  0.00    -0.014 C 
ENDBRANCH   1  24
TORSDOF 6
