REMARK  Name = ZINC30999506
REMARK  10 active torsions:
REMARK  status: ('A' for Active; 'I' for Inactive)
REMARK    1  A    between atoms: C_1  and  N_2
REMARK    2  A    between atoms: N_2  and  C_3
REMARK    3  A    between atoms: N_2  and  C_21
REMARK    4  A    between atoms: C_3  and  C_4
REMARK    5  A    between atoms: C_4  and  C_5
REMARK    6  A    between atoms: N_7  and  C_8
REMARK    7  A    between atoms: C_13  and  O_14
REMARK    8  A    between atoms: O_14  and  C_15
REMARK    9  A    between atoms: C_21  and  C_22
REMARK   10  A    between atoms: N_24  and  C_25
REMARK                            x       y       z     vdW  Elec       q    Type
REMARK                         _______ _______ _______ _____ _____    ______ ____
ROOT
ATOM      1  C   UNL     1       4.782   0.999   0.200  0.00  0.00    +0.077 C 
ENDROOT
BRANCH   1   2
ATOM      2  C   UNL     1       6.061   1.770   0.403  0.00  0.00    +0.215 C 
ATOM      3  O   UNL     1       6.125   2.936   0.072  0.00  0.00    -0.276 OA
ATOM      4  N   UNL     1       7.133   1.166   0.952  0.00  0.00    -0.283 N 
ATOM      5  H   UNL     1       7.104   0.089   1.173  0.00  0.00    +0.155 HD
BRANCH   4   6
ATOM      6  C   UNL     1       8.285   1.909   1.240  0.00  0.00    +0.076 A 
ATOM      7  C   UNL     1       8.213   3.290   1.348  0.00  0.00    +0.027 A 
ATOM      8  C   UNL     1       9.351   4.021   1.633  0.00  0.00    +0.002 A 
ATOM      9  C   UNL     1      10.563   3.379   1.810  0.00  0.00    +0.004 A 
ATOM     10  C   UNL     1      10.643   2.003   1.704  0.00  0.00    +0.048 A 
ATOM     11  C   UNL     1       9.506   1.262   1.424  0.00  0.00    +0.150 A 
BRANCH  11  12
ATOM     12  O   UNL     1       9.581  -0.092   1.325  0.00  0.00    -0.454 OA
BRANCH  12  13
ATOM     13  C   UNL     1       9.661  -0.637   0.083  0.00  0.00    +0.129 A 
ATOM     14  C   UNL     1       9.769   0.184  -1.030  0.00  0.00    +0.046 A 
ATOM     15  C   UNL     1       9.854  -0.374  -2.292  0.00  0.00    +0.004 A 
ATOM     16  C   UNL     1       9.822  -1.747  -2.445  0.00  0.00    +0.000 A 
ATOM     17  C   UNL     1       9.709  -2.567  -1.338  0.00  0.00    +0.004 A 
ATOM     18  C   UNL     1       9.628  -2.015  -0.074  0.00  0.00    +0.046 A 
ENDBRANCH  12  13
ENDBRANCH  11  12
ENDBRANCH   4   6
ENDBRANCH   1   2
BRANCH   1  19
ATOM     19  C   UNL     1       3.731   1.911  -0.434  0.00  0.00    -0.069 C 
BRANCH  19  21
ATOM     20  C   UNL     1       2.666   0.092  -1.625  0.00  0.00    -0.096 C 
ATOM     21  N   UNL     1       2.485   1.159  -0.632  0.00  0.00    +0.384 N 
ATOM     22  H   UNL     1       2.219   0.689   0.326  0.00  0.00    -0.082 HD
BRANCH  21  23
ATOM     23  C   UNL     1       1.385   2.054  -1.016  0.00  0.00    +0.018 C 
BRANCH  23  24
ATOM     24  C   UNL     1       0.083   1.298  -0.971  0.00  0.00    +0.201 C 
ATOM     25  O   UNL     1       0.071   0.128  -0.650  0.00  0.00    -0.278 OA
ATOM     26  N   UNL     1      -1.069   1.919  -1.292  0.00  0.00    -0.286 N 
ATOM     27  H   UNL     1      -1.071   2.998  -1.508  0.00  0.00    +0.155 HD
BRANCH  26  28
ATOM     28  C   UNL     1      -2.264   1.192  -1.352  0.00  0.00    +0.052 A 
ATOM     29  C   UNL     1      -2.472   0.124  -0.490  0.00  0.00    +0.025 A 
ATOM     30  C   UNL     1      -3.654  -0.588  -0.548  0.00  0.00    +0.002 A 
ATOM     31  C   UNL     1      -4.626  -0.246  -1.470  0.00  0.00    +0.002 A 
ATOM     32  C   UNL     1      -4.420   0.814  -2.335  0.00  0.00    +0.022 A 
ATOM     33  C   UNL     1      -3.241   1.534  -2.279  0.00  0.00    +0.062 A 
ATOM     34 CL   UNL     1      -2.983   2.864  -3.365  0.00  0.00    -0.082 Cl
ENDBRANCH  26  28
ENDBRANCH  23  24
ENDBRANCH  21  23
ENDBRANCH  19  21
ENDBRANCH   1  19
TORSDOF 9
