REMARK  Name = ZINC02707479
REMARK  11 active torsions:
REMARK  status: ('A' for Active; 'I' for Inactive)
REMARK    1  A    between atoms: C_1  and  C_2
REMARK    2  A    between atoms: C_2  and  C_3
REMARK    3  A    between atoms: C_2  and  C_4
REMARK    4  A    between atoms: C_2  and  N_48
REMARK    5  A    between atoms: C_4  and  O_5
REMARK    6  A    between atoms: C_6  and  C_7
REMARK    7  A    between atoms: C_6  and  N_48
REMARK    8  A    between atoms: C_7  and  C_9
REMARK    9  A    between atoms: C_7  and  O_25
REMARK   10  A    between atoms: C_9  and  O_10
REMARK   11  A    between atoms: O_10  and  N_11
REMARK                            x       y       z     vdW  Elec       q    Type
REMARK                         _______ _______ _______ _____ _____    ______ ____
ROOT
ATOM      1  O   UNL     1      -0.721   1.434   3.679  0.00  0.00    -0.391 OA
ENDROOT
BRANCH   1   2
ATOM      2  N   UNL     1      -0.118   1.010   4.888  0.00  0.00    -0.084 NA
ATOM      3  C   UNL     1      -0.686   1.277   6.028  0.00  0.00    +0.118 C 
ATOM      4  C   UNL     1      -1.954   2.018   6.228  0.00  0.00    +0.012 A 
ATOM      5  C   UNL     1      -2.848   2.604   5.338  0.00  0.00    +0.011 A 
ATOM      6  C   UNL     1      -3.975   3.244   5.814  0.00  0.00    +0.001 A 
ATOM      7  C   UNL     1      -4.221   3.307   7.175  0.00  0.00    +0.001 A 
ATOM      8  C   UNL     1      -3.348   2.721   8.072  0.00  0.00    +0.009 A 
ATOM      9  C   UNL     1      -2.204   2.076   7.609  0.00  0.00    -0.008 A 
ATOM     10  C   UNL     1      -1.102   1.388   8.320  0.00  0.00    -0.008 A 
ATOM     11  C   UNL     1      -0.186   0.905   7.372  0.00  0.00    +0.012 A 
ATOM     12  C   UNL     1       0.947   0.215   7.791  0.00  0.00    +0.011 A 
ATOM     13  C   UNL     1       1.167   0.007   9.140  0.00  0.00    +0.001 A 
ATOM     14  C   UNL     1       0.266   0.482  10.076  0.00  0.00    +0.001 A 
ATOM     15  C   UNL     1      -0.864   1.169   9.675  0.00  0.00    +0.009 A 
ENDBRANCH   1   2
BRANCH   1  16
ATOM     16  C   UNL     1       0.011   1.072   2.506  0.00  0.00    +0.292 C 
BRANCH  16  17
ATOM     17  C   UNL     1      -0.729   1.579   1.267  0.00  0.00    +0.138 C 
BRANCH  17  18
ATOM     18  O   UNL     1      -0.748   3.008   1.275  0.00  0.00    -0.390 OA
ATOM     19  H   UNL     1       0.130   3.413   1.268  0.00  0.00    +0.210 HD
ENDBRANCH  17  18
BRANCH  17  20
ATOM     20  C   UNL     1      -0.013   1.086   0.008  0.00  0.00    -0.047 C 
BRANCH  20  21
ATOM     21  N   UNL     1      -0.732   1.579  -1.182  0.00  0.00    +0.386 N 
ATOM     22  H   UNL     1      -1.695   1.223  -1.167  0.00  0.00    -0.085 HD
ATOM     23  H   UNL     1      -0.746   2.605  -1.168  0.00  0.00    -0.085 HD
BRANCH  21  25
ATOM     24  C   UNL     1       1.373   1.647  -2.447  0.00  0.00    -0.008 C 
ATOM     25  C   UNL     1      -0.062   1.117  -2.413  0.00  0.00    -0.050 C 
ATOM     26  C   UNL     1      -0.042  -0.412  -2.445  0.00  0.00    -0.008 C 
BRANCH  25  27
ATOM     27  C   UNL     1      -0.829   1.643  -3.628  0.00  0.00    +0.143 C 
BRANCH  27  28
ATOM     28  O   UNL     1      -0.187   1.200  -4.825  0.00  0.00    -0.396 OA
ATOM     29  H   UNL     1      -0.620   1.496  -5.637  0.00  0.00    +0.209 HD
ENDBRANCH  27  28
ENDBRANCH  25  27
ENDBRANCH  21  25
ENDBRANCH  20  21
ENDBRANCH  17  20
ENDBRANCH  16  17
ENDBRANCH   1  16
TORSDOF 9
