REMARK  Name = ZINC20153544
REMARK  9 active torsions:
REMARK  status: ('A' for Active; 'I' for Inactive)
REMARK    1  A    between atoms: C_1  and  C_2
REMARK    2  A    between atoms: C_2  and  N_3
REMARK    3  A    between atoms: C_11  and  C_28
REMARK    4  A    between atoms: C_14  and  N_19
REMARK    5  A    between atoms: N_21  and  C_22
REMARK    6  A    between atoms: C_22  and  C_23
REMARK    7  A    between atoms: C_23  and  N_24
REMARK    8  A    between atoms: N_24  and  C_25
REMARK    9  A    between atoms: N_24  and  C_26
REMARK                            x       y       z     vdW  Elec       q    Type
REMARK                         _______ _______ _______ _____ _____    ______ ____
ROOT
ATOM      1  N   UNL     1      -1.603  -2.857  -4.558  0.00  0.00    +0.382 N 
ATOM      2  C   UNL     1      -0.465  -2.026  -4.144  0.00  0.00    -0.060 C 
ATOM      3  C   UNL     1       0.693  -2.222  -5.128  0.00  0.00    +0.088 C 
ATOM      4  N   UNL     1       0.991  -3.660  -5.217  0.00  0.00    -0.319 N 
ATOM      5  C   UNL     1      -0.124  -4.585  -5.467  0.00  0.00    +0.088 C 
ATOM      6  C   UNL     1      -1.244  -4.278  -4.467  0.00  0.00    -0.060 C 
ATOM      7  C   UNL     1       2.288  -4.130  -5.069  0.00  0.00    +0.122 A 
ATOM      8  C   UNL     1       3.351  -3.215  -5.056  0.00  0.00    +0.047 A 
ATOM      9  C   UNL     1       4.630  -3.662  -4.910  0.00  0.00    -0.038 A 
ATOM     10  C   UNL     1       4.841  -5.050  -4.776  0.00  0.00    +0.005 A 
ATOM     11  C   UNL     1       6.133  -5.575  -4.622  0.00  0.00    +0.033 A 
ATOM     12  C   UNL     1       6.300  -6.937  -4.493  0.00  0.00    +0.033 A 
ATOM     13  C   UNL     1       5.194  -7.794  -4.515  0.00  0.00    +0.025 A 
ATOM     14  C   UNL     1       3.934  -7.306  -4.663  0.00  0.00    +0.030 A 
ATOM     15  C   UNL     1       3.727  -5.923  -4.797  0.00  0.00    +0.073 A 
ATOM     16  N   UNL     1       2.492  -5.424  -4.938  0.00  0.00    -0.232 NA
ATOM     17  C   UNL     1       5.788  -2.698  -4.894  0.00  0.00    +0.044 C 
ATOM     18  H   UNL     1      -1.851  -2.634  -5.510  0.00  0.00    -0.082 HD
ENDROOT
BRANCH  12  19
ATOM     19  N   UNL     1       7.586  -7.467  -4.340  0.00  0.00    -0.295 N 
ATOM     20  C   UNL     1       7.780  -8.578  -3.565  0.00  0.00    +0.143 C 
ATOM     21  N   UNL     1       8.858  -9.388  -3.789  0.00  0.00    -0.369 N 
ATOM     22  S   UNL     1       6.707  -8.941  -2.352  0.00  0.00    -0.016 SA
ATOM     23  H   UNL     1       8.340  -7.047  -4.782  0.00  0.00    +0.154 HD
ATOM     24  H   UNL     1       9.485  -9.175  -4.498  0.00  0.00    +0.161 HD
BRANCH  21  25
ATOM     25  C   UNL     1       9.066 -10.577  -2.960  0.00  0.00    +0.096 C 
BRANCH  25  26
ATOM     26  C   UNL     1      10.333 -11.302  -3.417  0.00  0.00    -0.058 C 
BRANCH  26  27
ATOM     27  N   UNL     1      10.541 -12.495  -2.584  0.00  0.00    +0.377 N 
ATOM     28  C   UNL     1       9.446 -13.447  -2.810  0.00  0.00    -0.097 C 
ATOM     29  C   UNL     1      11.819 -13.125  -2.943  0.00  0.00    -0.097 C 
ATOM     30  H   UNL     1      10.559 -12.227  -1.612  0.00  0.00    -0.083 HD
ENDBRANCH  26  27
ENDBRANCH  25  26
ENDBRANCH  21  25
ENDBRANCH  12  19
BRANCH   1  32
ATOM     31  C   UNL     1      -3.203  -1.137  -3.865  0.00  0.00    -0.017 C 
ATOM     32  C   UNL     1      -2.749  -2.587  -3.679  0.00  0.00    -0.082 C 
ENDBRANCH   1  32
TORSDOF 5
