REMARK  Name = ZINC20119675
REMARK  10 active torsions:
REMARK  status: ('A' for Active; 'I' for Inactive)
REMARK    1  A    between atoms: C_1  and  C_2
REMARK    2  A    between atoms: C_2  and  C_4
REMARK    3  A    between atoms: C_2  and  O_26
REMARK    4  A    between atoms: N_6  and  C_7
REMARK    5  A    between atoms: C_10  and  N_13
REMARK    6  A    between atoms: N_13  and  C_14
REMARK    7  A    between atoms: C_14  and  N_16
REMARK    8  A    between atoms: C_17  and  C_19
REMARK    9  A    between atoms: C_20  and  C_21
REMARK   10  A    between atoms: O_26  and  C_27
REMARK                            x       y       z     vdW  Elec       q    Type
REMARK                         _______ _______ _______ _____ _____    ______ ____
ROOT
ATOM      1  C   UNL     1      -5.782   3.074  -0.530  0.00  0.00    +0.034 A 
ATOM      2  C   UNL     1      -5.940   1.702  -0.392  0.00  0.00    +0.025 A 
ATOM      3  C   UNL     1      -4.865   0.859  -0.593  0.00  0.00    +0.025 A 
ATOM      4  C   UNL     1      -3.626   1.384  -0.933  0.00  0.00    +0.033 A 
ATOM      5  C   UNL     1      -3.466   2.757  -1.065  0.00  0.00    +0.025 A 
ATOM      6  C   UNL     1      -4.542   3.599  -0.870  0.00  0.00    +0.025 A 
ENDROOT
BRANCH   1   9
ATOM      7  C   UNL     1      -7.010   5.038  -1.081  0.00  0.00    +0.258 C 
ATOM      8  O   UNL     1      -6.158   5.327  -1.895  0.00  0.00    -0.271 OA
ATOM      9  N   UNL     1      -6.873   3.929  -0.327  0.00  0.00    -0.282 N 
ATOM     10  H   UNL     1      -7.617   3.696   0.449  0.00  0.00    +0.155 HD
BRANCH   7  12
ATOM     11  C   UNL     1      -9.485   5.108  -1.213  0.00  0.00    +0.062 C 
ATOM     12  C   UNL     1      -8.222   5.918  -0.914  0.00  0.00    +0.256 C 
BRANCH  12  13
ATOM     13  O   UNL     1      -8.138   7.021  -1.818  0.00  0.00    -0.478 OA
BRANCH  13  14
ATOM     14  C   UNL     1      -8.845   8.137  -1.497  0.00  0.00    +0.140 A 
ATOM     15  C   UNL     1      -9.643   8.152  -0.363  0.00  0.00    +0.047 A 
ATOM     16  C   UNL     1     -10.360   9.287  -0.038  0.00  0.00    +0.004 A 
ATOM     17  C   UNL     1     -10.283  10.409  -0.843  0.00  0.00    +0.002 A 
ATOM     18  C   UNL     1      -9.487  10.398  -1.974  0.00  0.00    +0.023 A 
ATOM     19  C   UNL     1      -8.764   9.266  -2.300  0.00  0.00    +0.083 A 
ATOM     20 CL   UNL     1      -7.760   9.255  -3.716  0.00  0.00    -0.080 Cl
ENDBRANCH  13  14
ENDBRANCH  12  13
ENDBRANCH   7  12
ENDBRANCH   1   9
BRANCH   4  21
ATOM     21  N   UNL     1      -2.535   0.529  -1.136  0.00  0.00    -0.297 N 
ATOM     22  H   UNL     1      -1.551   0.784  -0.715  0.00  0.00    +0.154 HD
BRANCH  21  23
ATOM     23  C   UNL     1      -2.691  -0.605  -1.846  0.00  0.00    +0.141 C 
ATOM     24  S   UNL     1      -4.241  -1.047  -2.424  0.00  0.00    -0.018 S 
BRANCH  23  25
ATOM     25  N   UNL     1      -1.627  -1.392  -2.102  0.00  0.00    -0.264 N 
ATOM     26  C   UNL     1      -1.784  -2.529  -2.808  0.00  0.00    +0.242 C 
ATOM     27  O   UNL     1      -2.887  -2.843  -3.219  0.00  0.00    -0.270 OA
ATOM     28  H   UNL     1      -0.630  -1.106  -1.735  0.00  0.00    +0.157 HD
BRANCH  26  29
ATOM     29  C   UNL     1      -0.670  -3.357  -3.071  0.00  0.00    +0.069 C 
ATOM     30  C   UNL     1      -0.828  -4.503  -3.782  0.00  0.00    +0.020 C 
BRANCH  30  31
ATOM     31  C   UNL     1       0.288  -5.332  -4.045  0.00  0.00    +0.012 A 
ATOM     32  C   UNL     1       0.343  -6.532  -4.745  0.00  0.00    +0.015 A 
ATOM     33  C   UNL     1       1.571  -7.135  -4.852  0.00  0.00    +0.008 A 
ATOM     34  C   UNL     1       2.653  -6.544  -4.281  0.00  0.00    +0.046 A 
ATOM     35  S   UNL     1       1.994  -5.106  -3.573  0.00  0.00    -0.097 S 
ENDBRANCH  30  31
ENDBRANCH  26  29
ENDBRANCH  23  25
ENDBRANCH  21  23
ENDBRANCH   4  21
TORSDOF 9
