REMARK  Name = ZINC63557269
REMARK  11 active torsions:
REMARK  status: ('A' for Active; 'I' for Inactive)
REMARK    1  A    between atoms: C_1  and  C_2
REMARK    2  A    between atoms: C_2  and  O_3
REMARK    3  A    between atoms: O_3  and  C_4
REMARK    4  A    between atoms: C_4  and  C_5
REMARK    5  A    between atoms: C_9  and  N_12
REMARK    6  A    between atoms: C_13  and  C_15
REMARK    7  A    between atoms: N_20  and  C_22
REMARK    8  A    between atoms: C_22  and  C_23
REMARK    9  A    between atoms: C_23  and  C_24
REMARK   10  A    between atoms: C_27  and  O_33
REMARK   11  A    between atoms: O_33  and  C_34
REMARK                            x       y       z     vdW  Elec       q    Type
REMARK                         _______ _______ _______ _____ _____    ______ ____
ROOT
ATOM      1  C   UNL     1      -6.265   2.513  -1.250  0.00  0.00    +0.101 C 
ATOM      2  C   UNL     1      -7.241   2.885  -0.110  0.00  0.00    +0.110 C 
ATOM      3  C   UNL     1      -8.011   4.068  -0.653  0.00  0.00    +0.216 C 
ATOM      4  O   UNL     1      -8.673   4.833   0.016  0.00  0.00    -0.276 OA
ATOM      5  N   UNL     1      -7.855   4.149  -1.986  0.00  0.00    -0.300 N 
ATOM      6  C   UNL     1      -7.000   3.067  -2.490  0.00  0.00    +0.121 C 
ENDROOT
BRANCH   1   8
ATOM      7  N   UNL     1      -5.529   0.337  -0.331  0.00  0.00    -0.290 N 
ATOM      8  C   UNL     1      -6.094   1.018  -1.347  0.00  0.00    +0.220 C 
ATOM      9  O   UNL     1      -6.465   0.429  -2.340  0.00  0.00    -0.275 OA
ATOM     10  H   UNL     1      -5.232   0.808   0.463  0.00  0.00    +0.151 HD
BRANCH   7  14
ATOM     11  C   UNL     1      -2.905  -2.339   0.017  0.00  0.00    +0.155 C 
ATOM     12  N   UNL     1      -3.632  -1.738   1.179  0.00  0.00    -0.239 NA
ATOM     13  N   UNL     1      -5.065  -1.708   0.908  0.00  0.00    -0.226 NA
ATOM     14  C   UNL     1      -5.363  -1.115  -0.425  0.00  0.00    +0.217 C 
ATOM     15  S   UNL     1      -3.838  -1.550  -1.366  0.00  0.00    -0.099 S 
ATOM     16  H   UNL     1      -3.284  -0.814   1.385  0.00  0.00    +0.142 HD
ATOM     17  H   UNL     1      -5.561  -1.220   1.640  0.00  0.00    +0.143 HD
BRANCH  11  18
ATOM     18  C   UNL     1      -1.432  -1.925   0.005  0.00  0.00    +0.190 C 
BRANCH  18  19
ATOM     19  O   UNL     1      -1.339  -0.499   0.012  0.00  0.00    -0.378 OA
BRANCH  19  21
ATOM     20  C   UNL     1      -0.019   1.526   0.010  0.00  0.00    +0.034 C 
ATOM     21  C   UNL     1       0.002  -0.004   0.002  0.00  0.00    +0.156 C 
ENDBRANCH  19  21
ENDBRANCH  18  19
ENDBRANCH  11  18
ENDBRANCH   7  14
ENDBRANCH   1   8
BRANCH   5  22
ATOM     22  C   UNL     1      -8.459   5.185  -2.828  0.00  0.00    +0.112 C 
BRANCH  22  23
ATOM     23  C   UNL     1      -7.505   6.376  -2.934  0.00  0.00    +0.052 C 
BRANCH  23  24
ATOM     24  C   UNL     1      -8.127   7.442  -3.800  0.00  0.00    -0.040 C 
ATOM     25  C   UNL     1      -8.836   8.515  -3.385  0.00  0.00    +0.002 A 
ATOM     26  C   UNL     1      -9.228   8.996  -2.055  0.00  0.00    +0.055 A 
ATOM     27  C   UNL     1      -9.958  10.131  -1.945  0.00  0.00    +0.121 A 
ATOM     28  C   UNL     1     -10.360  10.877  -3.066  0.00  0.00    +0.047 A 
ATOM     29  C   UNL     1     -10.049  10.516  -4.330  0.00  0.00    +0.029 A 
ATOM     30  C   UNL     1      -9.261   9.302  -4.566  0.00  0.00    +0.043 A 
ATOM     31  N   UNL     1      -8.831   8.738  -5.667  0.00  0.00    -0.380 N 
ATOM     32  C   UNL     1      -8.078   7.530  -5.309  0.00  0.00    +0.144 C 
ATOM     33  H   UNL     1      -8.981   9.065  -6.567  0.00  0.00    +0.160 HD
BRANCH  27  34
ATOM     34  O   UNL     1     -10.314  10.564  -0.707  0.00  0.00    -0.495 OA
ATOM     35  C   UNL     1     -11.084  11.767  -0.636  0.00  0.00    +0.277 C 
ENDBRANCH  27  34
ENDBRANCH  23  24
ENDBRANCH  22  23
ENDBRANCH   5  22
TORSDOF 9
