REMARK  Name = ZINC44563411
REMARK  6 active torsions:
REMARK  status: ('A' for Active; 'I' for Inactive)
REMARK    1  A    between atoms: C_1  and  N_2
REMARK    2  A    between atoms: C_7  and  C_9
REMARK    3  A    between atoms: C_9  and  N_10
REMARK    4  A    between atoms: N_10  and  S_11
REMARK    5  A    between atoms: S_11  and  C_14
REMARK    6  A    between atoms: C_17  and  N_21
REMARK                            x       y       z     vdW  Elec       q    Type
REMARK                         _______ _______ _______ _____ _____    ______ ____
ROOT
ATOM      1  S   UNL     1      -1.217   2.018   3.459  0.00  0.00    +0.060 S 
ATOM      2  O   UNL     1      -1.259   3.401   3.137  0.00  0.00    -0.153 OA
ATOM      3  O   UNL     1      -2.389   1.219   3.540  0.00  0.00    -0.153 OA
ENDROOT
BRANCH   1   4
ATOM      4  C   UNL     1      -0.411   1.888   5.021  0.00  0.00    +0.133 A 
ATOM      5  C   UNL     1      -0.636   0.784   5.824  0.00  0.00    +0.047 A 
ATOM      6  C   UNL     1      -0.005   0.680   7.050  0.00  0.00    +0.040 A 
ATOM      7  C   UNL     1       0.854   1.685   7.475  0.00  0.00    +0.027 A 
ATOM      8  C   UNL     1       1.078   2.792   6.666  0.00  0.00    +0.040 A 
ATOM      9  C   UNL     1       0.449   2.888   5.439  0.00  0.00    +0.047 A 
ATOM     10 BR   UNL     1       0.758   4.391   4.334  0.00  0.00    -0.048 Br
ATOM     11 BR   UNL     1      -1.806  -0.583   5.245  0.00  0.00    -0.048 Br
BRANCH   7  12
ATOM     12  N   UNL     1       1.492   1.583   8.713  0.00  0.00    -0.358 N 
ATOM     13  H   UNL     1       1.335   0.810   9.277  0.00  0.00    +0.142 HD
ATOM     14  H   UNL     1       2.092   2.285   9.009  0.00  0.00    +0.142 HD
ENDBRANCH   7  12
ENDBRANCH   1   4
BRANCH   1  15
ATOM     15  N   UNL     1      -0.231   1.300   2.339  0.00  0.00    -0.191 NA
ATOM     16  H   UNL     1       0.168   1.832   1.633  0.00  0.00    +0.148 HD
BRANCH  15  17
ATOM     17  C   UNL     1       0.038  -0.138   2.414  0.00  0.00    +0.090 C 
BRANCH  17  24
ATOM     18  C   UNL     1       2.776   0.094   1.838  0.00  0.00    -0.096 C 
ATOM     19  N   UNL     1       1.799   0.182   0.745  0.00  0.00    +0.381 N 
ATOM     20  C   UNL     1       2.405  -0.321  -0.494  0.00  0.00    -0.079 C 
ATOM     21  C   UNL     1       1.419  -0.156  -1.652  0.00  0.00    -0.019 C 
ATOM     22  C   UNL     1       0.144  -0.948  -1.348  0.00  0.00    -0.003 C 
ATOM     23  C   UNL     1      -0.438  -0.465  -0.016  0.00  0.00    -0.014 C 
ATOM     24  C   UNL     1       0.616  -0.619   1.082  0.00  0.00    -0.053 C 
ATOM     25  H   UNL     1       1.526   1.145   0.616  0.00  0.00    -0.082 HD
ENDBRANCH  17  24
ENDBRANCH  15  17
ENDBRANCH   1  15
TORSDOF 5
