REMARK  Name = ZINC59169764
REMARK  11 active torsions:
REMARK  status: ('A' for Active; 'I' for Inactive)
REMARK    1  A    between atoms: C_1  and  C_2
REMARK    2  A    between atoms: C_5  and  N_9
REMARK    3  A    between atoms: N_9  and  C_10
REMARK    4  A    between atoms: C_10  and  N_12
REMARK    5  A    between atoms: N_12  and  C_13
REMARK    6  A    between atoms: N_12  and  C_21
REMARK    7  A    between atoms: C_13  and  C_14
REMARK    8  A    between atoms: C_23  and  C_29
REMARK    9  A    between atoms: C_23  and  C_30
REMARK   10  A    between atoms: C_25  and  C_27
REMARK   11  A    between atoms: C_25  and  C_28
REMARK                            x       y       z     vdW  Elec       q    Type
REMARK                         _______ _______ _______ _____ _____    ______ ____
ROOT
ATOM      1  N   UNL     1       0.644  -6.189   1.030  0.00  0.00    -0.305 N 
ENDROOT
BRANCH   1   2
ATOM      2  C   UNL     1       0.794  -6.876  -0.259  0.00  0.00    +0.073 C 
ATOM      3  C   UNL     1       1.878  -6.172  -1.079  0.00  0.00    +0.009 C 
ATOM      4  C   UNL     1       2.037  -6.868  -2.430  0.00  0.00    -0.072 C 
ATOM      5  N   UNL     1       0.775  -6.971  -3.147  0.00  0.00    +0.386 N 
ATOM      6  C   UNL     1      -0.386  -7.438  -2.405  0.00  0.00    -0.072 C 
ATOM      7  C   UNL     1      -0.522  -6.791  -1.031  0.00  0.00    +0.009 C 
ATOM      8  C   UNL     1      -1.643  -7.052  -3.220  0.00  0.00    -0.010 C 
ATOM      9  C   UNL     1      -0.394  -8.963  -2.267  0.00  0.00    -0.010 C 
ATOM     10  C   UNL     1       2.709  -8.229  -2.248  0.00  0.00    -0.010 C 
ATOM     11  C   UNL     1       2.988  -5.998  -3.284  0.00  0.00    -0.010 C 
ATOM     12  H   UNL     1       0.555  -6.054  -3.544  0.00  0.00    -0.084 HD
ATOM     13  H   UNL     1       0.912  -7.587  -3.952  0.00  0.00    -0.084 HD
ENDBRANCH   1   2
BRANCH   1  14
ATOM     14  C   UNL     1       0.422  -4.861   1.065  0.00  0.00    +0.138 C 
ATOM     15  S   UNL     1       0.375  -4.039   2.567  0.00  0.00    -0.018 S 
BRANCH  14  16
ATOM     16  N   UNL     1       0.237  -4.178  -0.082  0.00  0.00    -0.297 N 
ATOM     17  H   UNL     1       0.186  -4.654  -0.926  0.00  0.00    +0.154 HD
BRANCH  16  22
ATOM     18  C   UNL     1      -0.241   1.474   0.021  0.00  0.00    +0.045 C 
ATOM     19  C   UNL     1      -0.115  -0.027  -0.006  0.00  0.00    -0.032 A 
ATOM     20  C   UNL     1       0.741  -0.631  -0.909  0.00  0.00    +0.006 A 
ATOM     21  C   UNL     1       0.860  -2.007  -0.936  0.00  0.00    +0.023 A 
ATOM     22  C   UNL     1       0.119  -2.785  -0.056  0.00  0.00    +0.034 A 
ATOM     23  C   UNL     1      -0.740  -2.176   0.850  0.00  0.00    +0.043 A 
ATOM     24  C   UNL     1      -0.850  -0.798   0.876  0.00  0.00    +0.046 A 
ATOM     25 CL   UNL     1      -1.918  -0.036   2.013  0.00  0.00    -0.083 Cl
ENDBRANCH  16  22
ENDBRANCH  14  16
ENDBRANCH   1  14
BRANCH   1  26
ATOM     26  C   UNL     1       0.736  -6.950   2.280  0.00  0.00    +0.142 C 
BRANCH  26  27
ATOM     27  C   UNL     1      -0.634  -7.443   2.669  0.00  0.00    -0.030 A 
ATOM     28  C   UNL     1      -1.448  -6.662   3.467  0.00  0.00    +0.008 A 
ATOM     29  C   UNL     1      -2.705  -7.114   3.825  0.00  0.00    +0.038 A 
ATOM     30  C   UNL     1      -3.148  -8.349   3.382  0.00  0.00    +0.123 A 
ATOM     31  C   UNL     1      -2.331  -9.130   2.582  0.00  0.00    +0.038 A 
ATOM     32  C   UNL     1      -1.077  -8.674   2.222  0.00  0.00    +0.008 A 
ATOM     33  F   UNL     1      -4.376  -8.791   3.731  0.00  0.00    -0.205 F 
ENDBRANCH  26  27
ENDBRANCH   1  26
TORSDOF 6
