REMARK  Name = ZINC64697091
REMARK  7 active torsions:
REMARK  status: ('A' for Active; 'I' for Inactive)
REMARK    1  A    between atoms: C_4  and  N_7
REMARK    2  A    between atoms: C_12  and  N_16
REMARK    3  A    between atoms: N_19  and  C_22
REMARK    4  A    between atoms: C_22  and  C_23
REMARK    5  A    between atoms: N_25  and  C_26
REMARK    6  A    between atoms: C_26  and  C_27
REMARK    7  A    between atoms: C_27  and  C_28
REMARK                            x       y       z     vdW  Elec       q    Type
REMARK                         _______ _______ _______ _____ _____    ______ ____
ROOT
ATOM      1  N   UNL     1       5.776  -1.837   2.177  0.00  0.00    -0.290 NA
ATOM      2  C   UNL     1       5.879  -3.189   2.742  0.00  0.00    +0.100 C 
ATOM      3  C   UNL     1       5.544  -3.143   4.234  0.00  0.00    +0.100 C 
ATOM      4  N   UNL     1       6.466  -2.221   4.912  0.00  0.00    -0.292 NA
ATOM      5  C   UNL     1       6.362  -0.868   4.348  0.00  0.00    +0.100 C 
ATOM      6  C   UNL     1       6.697  -0.914   2.855  0.00  0.00    +0.100 C 
ENDROOT
BRANCH   1  11
ATOM      7  N   UNL     1       3.728  -0.451  -0.021  0.00  0.00    -0.160 N 
ATOM      8  C   UNL     1       3.638  -1.794   0.050  0.00  0.00    +0.259 C 
ATOM      9  O   UNL     1       2.552  -2.330   0.127  0.00  0.00    -0.272 OA
ATOM     10  C   UNL     1       4.896  -2.626   0.033  0.00  0.00    +0.191 C 
ATOM     11  C   UNL     1       6.017  -1.851   0.728  0.00  0.00    +0.126 C 
ATOM     12  C   UNL     1       6.049  -0.437   0.212  0.00  0.00    +0.124 C 
ATOM     13  N   UNL     1       4.977   0.169  -0.125  0.00  0.00    -0.183 NA
ATOM     14 CL   UNL     1       5.367  -2.972  -1.673  0.00  0.00    -0.110 Cl
BRANCH   7  18
ATOM     15  C   UNL     1       0.265   1.864   0.052  0.00  0.00    +0.000 A 
ATOM     16  C   UNL     1       1.227   2.093  -0.915  0.00  0.00    +0.002 A 
ATOM     17  C   UNL     1       2.376   1.327  -0.942  0.00  0.00    +0.025 A 
ATOM     18  C   UNL     1       2.565   0.327   0.004  0.00  0.00    +0.060 A 
ATOM     19  C   UNL     1       1.596   0.101   0.973  0.00  0.00    +0.025 A 
ATOM     20  C   UNL     1       0.449   0.870   0.995  0.00  0.00    +0.002 A 
ENDBRANCH   7  18
ENDBRANCH   1  11
BRANCH   4  21
ATOM     21  C   UNL     1       6.225  -2.207   6.362  0.00  0.00    +0.180 C 
BRANCH  21  22
ATOM     22  C   UNL     1       7.332  -1.450   7.048  0.00  0.00    +0.227 C 
ATOM     23  O   UNL     1       8.234  -0.970   6.394  0.00  0.00    -0.274 OA
ATOM     24  N   UNL     1       7.321  -1.306   8.388  0.00  0.00    -0.314 N 
ATOM     25  H   UNL     1       6.600  -1.690   8.911  0.00  0.00    +0.149 HD
BRANCH  24  26
ATOM     26  C   UNL     1       8.398  -0.571   9.055  0.00  0.00    +0.108 C 
BRANCH  26  27
ATOM     27  C   UNL     1       8.147  -0.556  10.564  0.00  0.00    +0.052 C 
BRANCH  27  28
ATOM     28  C   UNL     1       9.255   0.201  11.250  0.00  0.00    -0.040 C 
ATOM     29  C   UNL     1       9.249   1.506  11.606  0.00  0.00    -0.001 A 
ATOM     30  C   UNL     1       8.248   2.571  11.466  0.00  0.00    +0.010 A 
ATOM     31  C   UNL     1       8.537   3.808  11.930  0.00  0.00    +0.001 A 
ATOM     32  C   UNL     1       9.765   4.098  12.540  0.00  0.00    +0.002 A 
ATOM     33  C   UNL     1      10.734   3.173  12.704  0.00  0.00    +0.026 A 
ATOM     34  C   UNL     1      10.538   1.838  12.254  0.00  0.00    +0.043 A 
ATOM     35  N   UNL     1      11.311   0.780  12.297  0.00  0.00    -0.380 N 
ATOM     36  C   UNL     1      10.596  -0.346  11.685  0.00  0.00    +0.144 C 
ATOM     37  H   UNL     1      12.204   0.746  12.674  0.00  0.00    +0.160 HD
ENDBRANCH  27  28
ENDBRANCH  26  27
ENDBRANCH  24  26
ENDBRANCH  21  22
ENDBRANCH   4  21
TORSDOF 7
