REMARK  Name = ZINC62506791
REMARK  12 active torsions:
REMARK  status: ('A' for Active; 'I' for Inactive)
REMARK    1  A    between atoms: C_1  and  C_2
REMARK    2  A    between atoms: C_2  and  C_3
REMARK    3  A    between atoms: C_2  and  N_8
REMARK    4  A    between atoms: C_3  and  C_4
REMARK    5  A    between atoms: C_4  and  N_5
REMARK    6  A    between atoms: N_5  and  C_6
REMARK    7  A    between atoms: N_5  and  C_7
REMARK    8  A    between atoms: N_11  and  N_12
REMARK    9  A    between atoms: C_13  and  C_15
REMARK   10  A    between atoms: C_15  and  O_16
REMARK   11  A    between atoms: O_16  and  C_17
REMARK   12  A    between atoms: C_22  and  C_23
REMARK                            x       y       z     vdW  Elec       q    Type
REMARK                         _______ _______ _______ _____ _____    ______ ____
ROOT
ATOM      1  N   UNL     1       0.688  -0.476  -1.203  0.00  0.00    -0.296 N 
ATOM      2  C   UNL     1       2.031  -0.587  -1.215  0.00  0.00    +0.316 C 
ATOM      3  O   UNL     1       2.674  -0.294  -0.225  0.00  0.00    -0.251 OA
ATOM      4  N   UNL     1       2.662  -1.022  -2.324  0.00  0.00    -0.218 N 
ATOM      5  H   UNL     1       0.175  -0.710  -1.993  0.00  0.00    +0.151 HD
ATOM      6  H   UNL     1       3.628  -1.101  -2.332  0.00  0.00    +0.174 HD
ENDROOT
BRANCH   4   7
ATOM      7  N   UNL     1       1.921  -1.359  -3.464  0.00  0.00    -0.230 N 
ATOM      8  C   UNL     1       2.552  -1.793  -4.573  0.00  0.00    +0.267 C 
ATOM      9  O   UNL     1       3.761  -1.893  -4.584  0.00  0.00    -0.271 OA
ATOM     10  H   UNL     1       0.955  -1.279  -3.456  0.00  0.00    +0.173 HD
BRANCH   8  11
ATOM     11  C   UNL     1       1.756  -2.156  -5.800  0.00  0.00    +0.326 C 
BRANCH  11  12
ATOM     12  O   UNL     1       2.643  -2.585  -6.835  0.00  0.00    -0.481 OA
BRANCH  12  13
ATOM     13  C   UNL     1       2.083  -2.950  -8.015  0.00  0.00    +0.138 A 
ATOM     14  C   UNL     1       0.707  -2.892  -8.180  0.00  0.00    +0.047 A 
ATOM     15  C   UNL     1       0.138  -3.264  -9.382  0.00  0.00    +0.004 A 
ATOM     16  C   UNL     1       0.933  -3.697 -10.430  0.00  0.00    +0.001 A 
ATOM     17  C   UNL     1       2.302  -3.760 -10.284  0.00  0.00    +0.022 A 
ATOM     18  C   UNL     1       2.892  -3.382  -9.075  0.00  0.00    +0.093 A 
BRANCH  18  19
ATOM     19  C   UNL     1       4.314  -3.440  -8.918  0.00  0.00    +0.103 C 
ATOM     20  N   UNL     1       5.442  -3.486  -8.793  0.00  0.00    -0.191 NA
ENDBRANCH  18  19
ENDBRANCH  12  13
ENDBRANCH  11  12
ENDBRANCH   8  11
ENDBRANCH   4   7
BRANCH   1  22
ATOM     21  C   UNL     1      -0.019   1.526   0.010  0.00  0.00    +0.028 C 
ATOM     22  C   UNL     1       0.002  -0.004   0.002  0.00  0.00    +0.070 C 
BRANCH  22  23
ATOM     23  C   UNL     1      -1.433  -0.534   0.013  0.00  0.00    +0.003 C 
BRANCH  23  24
ATOM     24  C   UNL     1      -1.413  -2.059   0.130  0.00  0.00    -0.078 C 
BRANCH  24  25
ATOM     25  N   UNL     1      -2.791  -2.567   0.141  0.00  0.00    +0.376 N 
ATOM     26  C   UNL     1      -3.427  -2.286  -1.153  0.00  0.00    -0.097 C 
ATOM     27  C   UNL     1      -2.776  -4.018   0.373  0.00  0.00    -0.097 C 
ATOM     28  H   UNL     1      -3.312  -2.114   0.877  0.00  0.00    -0.083 HD
ENDBRANCH  24  25
ENDBRANCH  23  24
ENDBRANCH  22  23
ENDBRANCH   1  22
TORSDOF 9
