REMARK  Name = ZINC20694095
REMARK  10 active torsions:
REMARK  status: ('A' for Active; 'I' for Inactive)
REMARK    1  A    between atoms: C_1  and  C_2
REMARK    2  A    between atoms: C_2  and  O_3
REMARK    3  A    between atoms: O_3  and  C_4
REMARK    4  A    between atoms: C_7  and  N_10
REMARK    5  A    between atoms: N_10  and  S_11
REMARK    6  A    between atoms: S_11  and  C_14
REMARK    7  A    between atoms: C_27  and  C_30
REMARK    8  A    between atoms: C_34  and  O_37
REMARK    9  A    between atoms: C_35  and  O_36
REMARK   10  A    between atoms: O_37  and  C_38
REMARK                            x       y       z     vdW  Elec       q    Type
REMARK                         _______ _______ _______ _____ _____    ______ ____
ROOT
ATOM      1  C   UNL     1       4.183   3.097  -0.669  0.00  0.00    +0.109 A 
ATOM      2  C   UNL     1       3.534   4.240  -1.096  0.00  0.00    +0.030 A 
ATOM      3  C   UNL     1       4.016   5.484  -0.745  0.00  0.00    +0.025 A 
ATOM      4  C   UNL     1       5.164   5.598   0.031  0.00  0.00    +0.031 A 
ATOM      5  C   UNL     1       5.811   4.436   0.466  0.00  0.00    -0.018 A 
ATOM      6  C   UNL     1       5.322   3.199   0.109  0.00  0.00    +0.034 A 
ATOM      7  C   UNL     1       7.006   4.601   1.322  0.00  0.00    +0.049 C 
ATOM      8  C   UNL     1       8.072   3.569   1.390  0.00  0.00    -0.023 C 
ATOM      9  C   UNL     1       9.232   4.171   1.621  0.00  0.00    -0.030 C 
ATOM     10  C   UNL     1       9.030   5.686   1.693  0.00  0.00    +0.033 C 
ATOM     11  C   UNL     1       7.769   5.870   0.838  0.00  0.00    +0.029 C 
ATOM     12  C   UNL     1       6.865   7.042   1.178  0.00  0.00    +0.109 C 
ATOM     13  N   UNL     1       5.658   6.871   0.341  0.00  0.00    -0.336 N 
ATOM     14  H   UNL     1       5.130   7.753  -0.050  0.00  0.00    +0.147 HD
ENDROOT
BRANCH  12  15
ATOM     15  C   UNL     1       7.551   8.342   0.844  0.00  0.00    +0.018 A 
ATOM     16  C   UNL     1       7.298   8.966  -0.364  0.00  0.00    +0.009 A 
ATOM     17  C   UNL     1       7.925  10.158  -0.673  0.00  0.00    +0.004 A 
ATOM     18  C   UNL     1       8.806  10.733   0.224  0.00  0.00    +0.049 A 
ATOM     19  C   UNL     1       9.063  10.113   1.436  0.00  0.00    +0.162 A 
ATOM     20  C   UNL     1       8.428   8.915   1.750  0.00  0.00    +0.163 A 
BRANCH  20  21
ATOM     21  O   UNL     1       8.674   8.305   2.940  0.00  0.00    -0.503 OA
ATOM     22  H   UNL     1       9.371   8.761   3.658  0.00  0.00    +0.292 HD
ENDBRANCH  20  21
BRANCH  19  23
ATOM     23  O   UNL     1       9.930  10.677   2.320  0.00  0.00    -0.491 OA
ATOM     24  C   UNL     1      10.540  11.910   1.933  0.00  0.00    +0.277 C 
ENDBRANCH  19  23
ENDBRANCH  12  15
BRANCH   1  25
ATOM     25  S   UNL     1       3.564   1.510  -1.121  0.00  0.00    +0.072 S 
ATOM     26  O   UNL     1       4.649   0.601  -0.997  0.00  0.00    -0.150 OA
ATOM     27  O   UNL     1       2.852   1.684  -2.338  0.00  0.00    -0.150 OA
BRANCH  25  28
ATOM     28  N   UNL     1       2.448   1.076   0.022  0.00  0.00    -0.216 N 
ATOM     29  H   UNL     1       2.627   0.196   0.659  0.00  0.00    +0.174 HD
BRANCH  28  33
ATOM     30  C   UNL     1      -1.038   3.313   0.490  0.00  0.00    +0.121 A 
ATOM     31  C   UNL     1      -0.897   2.469  -0.602  0.00  0.00    +0.047 A 
ATOM     32  C   UNL     1       0.256   1.723  -0.755  0.00  0.00    +0.028 A 
ATOM     33  C   UNL     1       1.278   1.827   0.179  0.00  0.00    +0.048 A 
ATOM     34  C   UNL     1       1.139   2.676   1.269  0.00  0.00    +0.028 A 
ATOM     35  C   UNL     1      -0.017   3.417   1.423  0.00  0.00    +0.047 A 
BRANCH  30  36
ATOM     36  O   UNL     1      -2.175   4.042   0.643  0.00  0.00    -0.492 OA
BRANCH  36  38
ATOM     37  C   UNL     1      -4.380   4.780  -0.017  0.00  0.00    +0.048 C 
ATOM     38  C   UNL     1      -3.185   3.886  -0.356  0.00  0.00    +0.225 C 
ENDBRANCH  36  38
ENDBRANCH  30  36
ENDBRANCH  28  33
ENDBRANCH  25  28
ENDBRANCH   1  25
TORSDOF 8
