REMARK  Name = ZINC42457135
REMARK  8 active torsions:
REMARK  status: ('A' for Active; 'I' for Inactive)
REMARK    1  A    between atoms: C_1  and  C_2
REMARK    2  A    between atoms: C_2  and  C_4
REMARK    3  A    between atoms: C_2  and  C_17
REMARK    4  A    between atoms: C_4  and  N_5
REMARK    5  A    between atoms: N_5  and  C_6
REMARK    6  A    between atoms: N_5  and  S_7
REMARK    7  A    between atoms: S_7  and  C_10
REMARK    8  A    between atoms: C_17  and  N_19
REMARK                            x       y       z     vdW  Elec       q    Type
REMARK                         _______ _______ _______ _____ _____    ______ ____
ROOT
ATOM      1  N   UNL     1      -1.915  -0.053  -0.973  0.00  0.00    -0.179 NA
ATOM      2  C   UNL     1      -1.654  -0.920  -2.124  0.00  0.00    +0.131 C 
ENDROOT
BRANCH   1   3
ATOM      3  S   UNL     1      -2.639   1.421  -1.193  0.00  0.00    +0.063 S 
ATOM      4  O   UNL     1      -2.147   2.272  -0.167  0.00  0.00    -0.153 OA
ATOM      5  O   UNL     1      -2.507   1.735  -2.573  0.00  0.00    -0.153 OA
BRANCH   3   6
ATOM      6  C   UNL     1      -4.361   1.207  -0.887  0.00  0.00    +0.132 A 
ATOM      7  C   UNL     1      -4.961   1.814   0.201  0.00  0.00    +0.057 A 
ATOM      8  C   UNL     1      -6.289   1.628   0.407  0.00  0.00    +0.081 A 
ATOM      9  S   UNL     1      -6.731   0.570  -0.961  0.00  0.00    -0.063 S 
ATOM     10  C   UNL     1      -5.119   0.449  -1.718  0.00  0.00    +0.106 A 
ATOM     11 CL   UNL     1      -4.644  -0.415  -3.147  0.00  0.00    -0.074 Cl
ATOM     12 CL   UNL     1      -7.297   2.257   1.673  0.00  0.00    -0.076 Cl
ENDBRANCH   3   6
ENDBRANCH   1   3
BRANCH   1  13
ATOM     13  C   UNL     1      -1.537  -0.489   0.373  0.00  0.00    +0.118 C 
BRANCH  13  15
ATOM     14  C   UNL     1      -2.803  -2.634   0.169  0.00  0.00    +0.015 C 
ATOM     15  C   UNL     1      -2.662  -1.337   0.970  0.00  0.00    +0.053 C 
BRANCH  15  16
ATOM     16  C   UNL     1      -2.337  -1.666   2.404  0.00  0.00    +0.050 C 
ATOM     17  S   UNL     1      -0.884  -1.344   2.989  0.00  0.00    -0.040 S 
BRANCH  16  18
ATOM     18  N   UNL     1      -3.271  -2.232   3.194  0.00  0.00    -0.355 N 
ATOM     19  H   UNL     1      -4.152  -2.428   2.840  0.00  0.00    +0.143 HD
ATOM     20  H   UNL     1      -3.062  -2.443   4.117  0.00  0.00    +0.143 HD
ENDBRANCH  16  18
ENDBRANCH  15  16
ENDBRANCH  13  15
ENDBRANCH   1  13
TORSDOF 6
