REMARK  Name = ZINC63214763
REMARK  5 active torsions:
REMARK  status: ('A' for Active; 'I' for Inactive)
REMARK    1  A    between atoms: C_3  and  S_18
REMARK    2  A    between atoms: C_6  and  N_7
REMARK    3  A    between atoms: N_7  and  C_8
REMARK    4  A    between atoms: C_15  and  N_17
REMARK    5  A    between atoms: S_18  and  C_21
REMARK                            x       y       z     vdW  Elec       q    Type
REMARK                         _______ _______ _______ _____ _____    ______ ____
ROOT
ATOM      1  N   UNL     1      -1.132  -0.742   0.061  0.00  0.00    -0.343 N 
ATOM      2  H   UNL     1      -1.967  -0.250   0.106  0.00  0.00    +0.146 HD
ENDROOT
BRANCH   1   3
ATOM      3  C   UNL     1      -1.145  -2.206   0.038  0.00  0.00    +0.056 C 
ATOM      4  C   UNL     1      -1.091  -2.682  -1.427  0.00  0.00    +0.020 C 
ATOM      5  C   UNL     1      -1.525  -4.150  -1.595  0.00  0.00    +0.002 C 
ATOM      6  C   UNL     1      -0.975  -5.041  -0.514  0.00  0.00    +0.000 C 
ATOM      7  C   UNL     1      -2.027  -5.157   0.608  0.00  0.00    -0.002 C 
ATOM      8  C   UNL     1      -2.023  -4.003   1.494  0.00  0.00    -0.014 C 
ATOM      9  C   UNL     1      -2.375  -2.694   0.754  0.00  0.00    -0.055 C 
BRANCH   9  10
ATOM     10  N   UNL     1      -2.815  -1.683   1.724  0.00  0.00    +0.381 N 
ATOM     11  H   UNL     1      -3.138  -0.863   1.232  0.00  0.00    -0.090 HD
ATOM     12  H   UNL     1      -3.567  -2.057   2.283  0.00  0.00    -0.090 HD
ATOM     13  H   UNL     1      -2.043  -1.433   2.323  0.00  0.00    -0.090 HD
ENDBRANCH   9  10
ENDBRANCH   1   3
BRANCH   1  19
ATOM     14  C   UNL     1       0.096   1.336   0.043  0.00  0.00    +0.025 A 
ATOM     15  C   UNL     1       1.299   2.014   0.002  0.00  0.00    +0.029 A 
ATOM     16  C   UNL     1       2.488   1.311  -0.061  0.00  0.00    +0.095 A 
ATOM     17  C   UNL     1       2.478  -0.072  -0.084  0.00  0.00    +0.029 A 
ATOM     18  C   UNL     1       1.279  -0.755  -0.044  0.00  0.00    +0.025 A 
ATOM     19  C   UNL     1       0.082  -0.053   0.020  0.00  0.00    +0.027 A 
BRANCH  16  20
ATOM     20  S   UNL     1       4.021   2.180  -0.114  0.00  0.00    +0.058 S 
ATOM     21  O   UNL     1       4.917   1.294  -0.772  0.00  0.00    -0.164 OA
ATOM     22  O   UNL     1       3.702   3.442  -0.683  0.00  0.00    -0.164 OA
BRANCH  20  23
ATOM     23  C   UNL     1       4.503   2.381   1.623  0.00  0.00    +0.485 C 
ATOM     24  F   UNL     1       3.518   3.109   2.299  0.00  0.00    -0.183 F 
ATOM     25  F   UNL     1       4.641   1.122   2.217  0.00  0.00    -0.183 F 
ENDBRANCH  20  23
ENDBRANCH  16  20
ENDBRANCH   1  19
TORSDOF 5
