REMARK  Name = ZINC63237205
REMARK  7 active torsions:
REMARK  status: ('A' for Active; 'I' for Inactive)
REMARK    1  A    between atoms: C_7  and  C_10
REMARK    2  A    between atoms: C_10  and  C_11
REMARK    3  A    between atoms: C_11  and  C_12
REMARK    4  A    between atoms: N_14  and  C_15
REMARK    5  A    between atoms: C_19  and  C_21
REMARK    6  A    between atoms: N_23  and  C_24
REMARK    7  A    between atoms: C_28  and  C_30
REMARK                            x       y       z     vdW  Elec       q    Type
REMARK                         _______ _______ _______ _____ _____    ______ ____
ROOT
ATOM      1  C   UNL     1      -2.029  -6.214  -2.651  0.00  0.00    +0.034 A 
ATOM      2  C   UNL     1      -2.433  -6.694  -1.411  0.00  0.00    +0.023 A 
ATOM      3  C   UNL     1      -3.231  -7.819  -1.326  0.00  0.00    +0.003 A 
ATOM      4  C   UNL     1      -3.631  -8.475  -2.473  0.00  0.00    +0.013 A 
ATOM      5  C   UNL     1      -3.231  -8.001  -3.724  0.00  0.00    +0.039 A 
ATOM      6  C   UNL     1      -2.431  -6.861  -3.809  0.00  0.00    +0.036 A 
ENDROOT
BRANCH   1   9
ATOM      7  C   UNL     1      -1.388  -4.199  -3.744  0.00  0.00    +0.217 C 
ATOM      8  O   UNL     1      -2.180  -4.442  -4.630  0.00  0.00    -0.275 OA
ATOM      9  N   UNL     1      -1.222  -5.073  -2.731  0.00  0.00    -0.285 N 
ATOM     10  H   UNL     1      -0.542  -4.912  -2.058  0.00  0.00    +0.155 HD
BRANCH   7  11
ATOM     11  C   UNL     1      -0.591  -2.921  -3.774  0.00  0.00    +0.100 C 
BRANCH  11  12
ATOM     12  C   UNL     1      -0.968  -2.115  -5.019  0.00  0.00    +0.042 C 
BRANCH  12  19
ATOM     13  C   UNL     1       2.970  -0.964  -7.075  0.00  0.00    +0.001 A 
ATOM     14  C   UNL     1       3.364   0.359  -6.834  0.00  0.00    +0.002 A 
ATOM     15  C   UNL     1       2.644   1.206  -6.068  0.00  0.00    +0.026 A 
ATOM     16  C   UNL     1       1.432   0.775  -5.463  0.00  0.00    +0.043 A 
ATOM     17  N   UNL     1       0.572   1.395  -4.692  0.00  0.00    -0.380 N 
ATOM     18  C   UNL     1      -0.510   0.464  -4.354  0.00  0.00    +0.144 C 
ATOM     19  C   UNL     1      -0.171  -0.836  -5.049  0.00  0.00    -0.041 C 
ATOM     20  C   UNL     1       0.993  -0.619  -5.703  0.00  0.00    -0.001 A 
ATOM     21  C   UNL     1       1.833  -1.475  -6.548  0.00  0.00    +0.010 A 
ATOM     22  H   UNL     1       0.640   2.316  -4.394  0.00  0.00    +0.160 HD
ENDBRANCH  12  19
ENDBRANCH  11  12
ENDBRANCH   7  11
ENDBRANCH   1   9
BRANCH   5  23
ATOM     23  C   UNL     1      -3.658  -8.701  -4.953  0.00  0.00    +0.248 C 
ATOM     24  O   UNL     1      -3.308  -8.287  -6.041  0.00  0.00    -0.270 OA
ATOM     25  N   UNL     1      -4.435  -9.799  -4.868  0.00  0.00    -0.281 N 
ATOM     26  H   UNL     1      -4.775 -10.087  -4.007  0.00  0.00    +0.155 HD
BRANCH  25  27
ATOM     27  C   UNL     1      -4.751 -10.523  -6.022  0.00  0.00    +0.034 A 
ATOM     28  C   UNL     1      -5.987 -11.147  -6.136  0.00  0.00    +0.023 A 
ATOM     29  C   UNL     1      -6.296 -11.861  -7.276  0.00  0.00    +0.002 A 
ATOM     30  C   UNL     1      -5.376 -11.956  -8.305  0.00  0.00    +0.012 A 
ATOM     31  C   UNL     1      -4.145 -11.336  -8.195  0.00  0.00    +0.057 A 
ATOM     32  C   UNL     1      -3.833 -10.614  -7.060  0.00  0.00    +0.035 A 
BRANCH  31  33
ATOM     33  C   UNL     1      -3.146 -11.442  -9.319  0.00  0.00    +0.417 C 
ATOM     34  F   UNL     1      -3.688 -12.211 -10.354  0.00  0.00    -0.166 F 
ATOM     35  F   UNL     1      -2.845 -10.163  -9.797  0.00  0.00    -0.166 F 
ATOM     36  F   UNL     1      -1.978 -12.051  -8.848  0.00  0.00    -0.166 F 
ENDBRANCH  31  33
ENDBRANCH  25  27
ENDBRANCH   5  23
TORSDOF 7
