REMARK  Name = ZINC12661770
REMARK  10 active torsions:
REMARK  status: ('A' for Active; 'I' for Inactive)
REMARK    1  A    between atoms: C_1  and  C_2
REMARK    2  A    between atoms: C_13  and  O_30
REMARK    3  A    between atoms: C_17  and  C_29
REMARK    4  A    between atoms: C_22  and  C_28
REMARK    5  A    between atoms: C_23  and  C_25
REMARK    6  A    between atoms: C_25  and  C_27
REMARK    7  A    between atoms: O_30  and  C_31
REMARK    8  A    between atoms: C_31  and  C_33
REMARK    9  A    between atoms: C_33  and  C_34
REMARK   10  A    between atoms: C_34  and  N_81
REMARK                            x       y       z     vdW  Elec       q    Type
REMARK                         _______ _______ _______ _____ _____    ______ ____
ROOT
ATOM      1  C   UNL     1      -0.290   1.877   1.325  0.00  0.00    +0.008 C 
ATOM      2  C   UNL     1       0.356   1.258   0.085  0.00  0.00    -0.003 C 
ATOM      3  C   UNL     1       1.866   1.579   0.057  0.00  0.00    +0.008 C 
ATOM      4  C   UNL     1       1.960   2.850  -0.839  0.00  0.00    -0.000 C 
ATOM      5  C   UNL     1       1.507   4.026   0.032  0.00  0.00    +0.000 C 
ATOM      6  C   UNL     1       2.661   4.392   0.957  0.00  0.00    +0.031 C 
ATOM      7  C   UNL     1       2.338   5.644   1.714  0.00  0.00    -0.027 C 
ATOM      8  C   UNL     1       1.449   6.504   1.333  0.00  0.00    -0.064 C 
ATOM      9  C   UNL     1       1.162   7.725   2.195  0.00  0.00    +0.075 C 
ATOM     10  C   UNL     1      -0.317   8.078   1.985  0.00  0.00    +0.180 C 
ATOM     11  C   UNL     1      -1.125   6.795   1.797  0.00  0.00    +0.046 C 
ATOM     12  C   UNL     1      -0.823   6.148   0.446  0.00  0.00    +0.015 C 
ATOM     13  C   UNL     1       0.641   6.370   0.072  0.00  0.00    -0.008 C 
ATOM     14  C   UNL     1       1.147   5.242  -0.822  0.00  0.00    +0.003 C 
ATOM     15  C   UNL     1       0.016   4.857  -1.785  0.00  0.00    +0.005 C 
ATOM     16  C   UNL     1       0.513   3.756  -2.719  0.00  0.00    +0.008 C 
ATOM     17  C   UNL     1       0.928   2.533  -1.933  0.00  0.00    -0.019 C 
ATOM     18  C   UNL     1      -0.246   1.878  -1.193  0.00  0.00    +0.064 C 
ATOM     19  C   UNL     1       1.522   1.500  -2.894  0.00  0.00    +0.012 C 
ATOM     20  C   UNL     1       0.744   7.684  -0.706  0.00  0.00    +0.016 C 
ENDROOT
BRANCH  18  21
ATOM     21  C   UNL     1      -1.276   2.917  -0.830  0.00  0.00    +0.134 C 
ATOM     22  O   UNL     1      -1.233   3.459   0.248  0.00  0.00    -0.297 OA
ATOM     23  C   UNL     1      -2.359   3.279  -1.813  0.00  0.00    +0.086 C 
ENDBRANCH  18  21
BRANCH  10  24
ATOM     24  O   UNL     1      -0.453   8.913   0.806  0.00  0.00    -0.461 OA
BRANCH  24  25
ATOM     25  C   UNL     1      -0.372  10.241   0.986  0.00  0.00    +0.306 C 
ATOM     26  O   UNL     1      -0.194  10.690   2.094  0.00  0.00    -0.251 OA
BRANCH  25  27
ATOM     27  C   UNL     1      -0.503  11.171  -0.192  0.00  0.00    +0.102 C 
BRANCH  27  28
ATOM     28  C   UNL     1      -0.375  12.619   0.285  0.00  0.00    -0.068 C 
BRANCH  28  34
ATOM     29  C   UNL     1       0.620  13.358  -1.794  0.00  0.00    -0.079 C 
ATOM     30  C   UNL     1       0.380  14.209  -3.044  0.00  0.00    -0.019 C 
ATOM     31  C   UNL     1       0.245  15.679  -2.636  0.00  0.00    -0.004 C 
ATOM     32  C   UNL     1      -0.900  15.819  -1.630  0.00  0.00    -0.019 C 
ATOM     33  C   UNL     1      -0.623  14.921  -0.421  0.00  0.00    -0.079 C 
ATOM     34  N   UNL     1      -0.529  13.518  -0.877  0.00  0.00    +0.380 N 
ATOM     35  H   UNL     1      -1.391  13.272  -1.378  0.00  0.00    -0.082 HD
ENDBRANCH  28  34
ENDBRANCH  27  28
ENDBRANCH  25  27
ENDBRANCH  24  25
ENDBRANCH  10  24
TORSDOF 6
