REMARK  Name = ZINC39774344
REMARK  5 active torsions:
REMARK  status: ('A' for Active; 'I' for Inactive)
REMARK    1  A    between atoms: C_5  and  C_7
REMARK    2  A    between atoms: N_8  and  N_9
REMARK    3  A    between atoms: C_10  and  C_11
REMARK    4  A    between atoms: C_14  and  O_19
REMARK    5  A    between atoms: C_16  and  O_17
REMARK                            x       y       z     vdW  Elec       q    Type
REMARK                         _______ _______ _______ _____ _____    ______ ____
ROOT
ATOM      1  C   UNL     1       1.356  -2.039   0.036  0.00  0.00    +0.144 C 
ATOM      2  N   UNL     1       0.323  -2.840   0.175  0.00  0.00    -0.262 N 
ATOM      3  N   UNL     1       2.604  -2.563  -0.244  0.00  0.00    -0.283 N 
ATOM      4  C   UNL     1       2.743  -3.919  -0.519  0.00  0.00    +0.124 A 
ATOM      5  C   UNL     1       4.014  -4.467  -0.662  0.00  0.00    +0.044 A 
ATOM      6  C   UNL     1       4.138  -5.817  -0.935  0.00  0.00    +0.005 A 
ATOM      7  C   UNL     1       2.983  -6.577  -1.058  0.00  0.00    +0.020 A 
ATOM      8  C   UNL     1       1.753  -5.968  -0.904  0.00  0.00    +0.113 A 
ATOM      9  N   UNL     1       1.665  -4.679  -0.638  0.00  0.00    -0.240 NA
ATOM     10  H   UNL     1       3.382  -1.984  -0.249  0.00  0.00    +0.155 HD
ATOM     11  H   UNL     1       0.457  -3.800   0.223  0.00  0.00    +0.190 HD
ENDROOT
BRANCH   1  16
ATOM     12  C   UNL     1       2.117   1.625   0.253  0.00  0.00    +0.004 A 
ATOM     13  C   UNL     1       0.831   2.108   0.450  0.00  0.00    +0.020 A 
ATOM     14  C   UNL     1      -0.228   1.220   0.503  0.00  0.00    +0.111 A 
ATOM     15  N   UNL     1      -0.032  -0.075   0.370  0.00  0.00    -0.252 NA
ATOM     16  C   UNL     1       1.183  -0.580   0.180  0.00  0.00    +0.103 A 
ATOM     17  C   UNL     1       2.296   0.260   0.116  0.00  0.00    +0.031 A 
ENDBRANCH   1  16
BRANCH   2  18
ATOM     18  N   UNL     1      -0.868  -2.350   0.248  0.00  0.00    -0.180 NA
ATOM     19  C   UNL     1      -1.900  -3.150   0.334  0.00  0.00    +0.144 C 
BRANCH  19  20
ATOM     20  C   UNL     1      -3.260  -2.601   0.278  0.00  0.00    +0.039 A 
ATOM     21  C   UNL     1      -4.365  -3.437   0.485  0.00  0.00    +0.032 A 
ATOM     22  C   UNL     1      -5.639  -2.917   0.431  0.00  0.00    +0.061 A 
ATOM     23  C   UNL     1      -5.834  -1.564   0.172  0.00  0.00    +0.148 A 
ATOM     24  C   UNL     1      -4.746  -0.727  -0.036  0.00  0.00    +0.102 A 
ATOM     25  C   UNL     1      -3.460  -1.235   0.021  0.00  0.00    +0.143 A 
ATOM     26 BR   UNL     1      -5.022   1.110  -0.388  0.00  0.00    -0.043 Br
ATOM     27 BR   UNL     1      -7.130  -4.047   0.711  0.00  0.00    -0.046 Br
BRANCH  25  28
ATOM     28  O   UNL     1      -2.395  -0.416  -0.176  0.00  0.00    -0.505 OA
ATOM     29  H   UNL     1      -2.166  -0.285  -1.107  0.00  0.00    +0.292 HD
ENDBRANCH  25  28
BRANCH  23  30
ATOM     30  O   UNL     1      -7.094  -1.060   0.120  0.00  0.00    -0.504 OA
ATOM     31  H   UNL     1      -7.426  -0.743   0.971  0.00  0.00    +0.292 HD
ENDBRANCH  23  30
ENDBRANCH  19  20
ENDBRANCH   2  18
TORSDOF 5
