REMARK  Name = ZINC45725521
REMARK  9 active torsions:
REMARK  status: ('A' for Active; 'I' for Inactive)
REMARK    1  A    between atoms: C_1  and  O_2
REMARK    2  A    between atoms: O_2  and  C_3
REMARK    3  A    between atoms: C_6  and  C_9
REMARK    4  A    between atoms: C_9  and  C_11
REMARK    5  A    between atoms: C_9  and  N_26
REMARK    6  A    between atoms: C_11  and  N_12
REMARK    7  A    between atoms: N_15  and  C_16
REMARK    8  A    between atoms: C_21  and  C_22
REMARK    9  A    between atoms: C_22  and  C_23
REMARK                            x       y       z     vdW  Elec       q    Type
REMARK                         _______ _______ _______ _____ _____    ______ ____
ROOT
ATOM      1  N   UNL     1      -5.370  -1.772   2.215  0.00  0.00    -0.300 N 
ATOM      2  C   UNL     1      -5.530  -1.905   3.547  0.00  0.00    +0.304 C 
ATOM      3  O   UNL     1      -5.636  -3.011   4.039  0.00  0.00    -0.253 OA
ATOM      4  N   UNL     1      -5.571  -0.810   4.332  0.00  0.00    -0.269 N 
ATOM      5  H   UNL     1      -5.285  -0.890   1.822  0.00  0.00    +0.150 HD
ATOM      6  H   UNL     1      -5.400   0.066   3.953  0.00  0.00    +0.156 HD
ENDROOT
BRANCH   4   7
ATOM      7  C   UNL     1      -5.862  -0.938   5.695  0.00  0.00    +0.038 A 
ATOM      8  C   UNL     1      -6.588  -2.030   6.152  0.00  0.00    +0.023 A 
ATOM      9  C   UNL     1      -6.873  -2.154   7.498  0.00  0.00    +0.002 A 
ATOM     10  C   UNL     1      -6.436  -1.191   8.390  0.00  0.00    +0.000 A 
ATOM     11  C   UNL     1      -5.714  -0.102   7.938  0.00  0.00    +0.006 A 
ATOM     12  C   UNL     1      -5.420   0.024   6.594  0.00  0.00    -0.017 A 
BRANCH  12  13
ATOM     13  C   UNL     1      -4.628   1.208   6.103  0.00  0.00    +0.132 C 
BRANCH  13  14
ATOM     14  C   UNL     1      -5.571   2.285   5.636  0.00  0.00    +0.215 C 
ATOM     15  O   UNL     1      -6.770   2.110   5.696  0.00  0.00    -0.276 OA
ATOM     16  N   UNL     1      -5.084   3.445   5.151  0.00  0.00    -0.329 N 
ATOM     17  H   UNL     1      -4.125   3.585   5.103  0.00  0.00    +0.145 HD
ATOM     18  H   UNL     1      -5.691   4.139   4.851  0.00  0.00    +0.145 HD
ENDBRANCH  13  14
ENDBRANCH  12  13
ENDBRANCH   4   7
BRANCH   1  19
ATOM     19  C   UNL     1      -5.325  -2.962   1.361  0.00  0.00    +0.095 C 
BRANCH  19  20
ATOM     20  C   UNL     1      -5.012  -2.545  -0.078  0.00  0.00    -0.020 C 
BRANCH  20  24
ATOM     21  C   UNL     1      -1.195  -0.629  -0.208  0.00  0.00    +0.120 A 
ATOM     22  C   UNL     1      -2.355   0.133  -0.202  0.00  0.00    +0.046 A 
ATOM     23  C   UNL     1      -3.587  -0.489  -0.161  0.00  0.00    +0.005 A 
ATOM     24  C   UNL     1      -3.666  -1.869  -0.124  0.00  0.00    -0.059 A 
ATOM     25  C   UNL     1      -2.511  -2.630  -0.129  0.00  0.00    +0.005 A 
ATOM     26  C   UNL     1      -1.276  -2.013  -0.177  0.00  0.00    +0.046 A 
BRANCH  21  28
ATOM     27  C   UNL     1       0.027   1.409  -0.280  0.00  0.00    +0.277 C 
ATOM     28  O   UNL     1       0.019  -0.019  -0.250  0.00  0.00    -0.495 OA
ENDBRANCH  21  28
ENDBRANCH  20  24
BRANCH  20  29
ATOM     29  N   UNL     1      -4.992  -3.735  -0.939  0.00  0.00    +0.385 N 
ATOM     30  C   UNL     1      -6.361  -4.299  -1.065  0.00  0.00    -0.078 C 
ATOM     31  C   UNL     1      -6.285  -5.125  -2.373  0.00  0.00    -0.020 C 
ATOM     32  C   UNL     1      -5.380  -4.258  -3.278  0.00  0.00    -0.020 C 
ATOM     33  C   UNL     1      -4.581  -3.365  -2.310  0.00  0.00    -0.078 C 
ATOM     34  H   UNL     1      -4.363  -4.428  -0.561  0.00  0.00    -0.081 HD
ENDBRANCH  20  29
ENDBRANCH  19  20
ENDBRANCH   1  19
TORSDOF 8
