REMARK  Name = ZINC43425685
REMARK  4 active torsions:
REMARK  status: ('A' for Active; 'I' for Inactive)
REMARK    1  A    between atoms: C_1  and  C_2
REMARK    2  A    between atoms: C_2  and  C_4
REMARK    3  A    between atoms: C_2  and  N_8
REMARK    4  A    between atoms: C_4  and  C_5
REMARK                            x       y       z     vdW  Elec       q    Type
REMARK                         _______ _______ _______ _____ _____    ______ ____
ROOT
ATOM      1  C   UNL     1      -0.019   1.526   0.010  0.00  0.00    +0.024 C 
ATOM      2  C   UNL     1       0.002  -0.004   0.002  0.00  0.00    +0.061 C 
ENDROOT
BRANCH   2   3
ATOM      3  N   UNL     1       0.690  -0.478  -1.207  0.00  0.00    -0.292 NA
ATOM      4  C   UNL     1       0.102   0.119  -2.416  0.00  0.00    +0.113 C 
ATOM      5  C   UNL     1       0.811  -0.433  -3.654  0.00  0.00    +0.175 C 
ATOM      6  O   UNL     1       2.217  -0.184  -3.550  0.00  0.00    -0.374 OA
ATOM      7  C   UNL     1       2.812  -0.761  -2.386  0.00  0.00    +0.135 C 
ATOM      8  C   UNL     1       2.129  -0.192  -1.140  0.00  0.00    +0.086 C 
ATOM      9  C   UNL     1       2.736  -0.836   0.107  0.00  0.00    +0.021 C 
ATOM     10  C   UNL     1       4.232  -0.517   0.161  0.00  0.00    +0.002 C 
ATOM     11  C   UNL     1       4.921  -1.065  -1.090  0.00  0.00    +0.003 C 
ATOM     12  C   UNL     1       4.303  -0.429  -2.338  0.00  0.00    +0.033 C 
ENDBRANCH   2   3
BRANCH   2  13
ATOM     13  C   UNL     1      -1.433  -0.534   0.013  0.00  0.00    +0.087 C 
BRANCH  13  14
ATOM     14  C   UNL     1      -1.414  -2.036   0.129  0.00  0.00    +0.064 C 
ATOM     15  N   UNL     1      -1.381  -2.782  -0.962  0.00  0.00    -0.391 N 
ATOM     16  N   UNL     1      -1.429  -2.607   1.320  0.00  0.00    -0.348 N 
ATOM     17  H   UNL     1      -1.370  -2.363  -1.837  0.00  0.00    +0.157 HD
ATOM     18  H   UNL     1      -1.452  -2.060   2.120  0.00  0.00    +0.143 HD
ATOM     19  H   UNL     1      -1.416  -3.575   1.395  0.00  0.00    +0.143 HD
ATOM     20  H   UNL     1      -1.369  -3.749  -0.887  0.00  0.00    +0.157 HD
ENDBRANCH  13  14
ENDBRANCH   2  13
TORSDOF 3
