REMARK  Name = ZINC49238381
REMARK  9 active torsions:
REMARK  status: ('A' for Active; 'I' for Inactive)
REMARK    1  A    between atoms: C_1  and  C_2
REMARK    2  A    between atoms: C_2  and  N_3
REMARK    3  A    between atoms: C_4  and  C_6
REMARK    4  A    between atoms: C_6  and  N_7
REMARK    5  A    between atoms: N_7  and  C_8
REMARK    6  A    between atoms: N_7  and  C_9
REMARK    7  A    between atoms: C_9  and  C_11
REMARK    8  A    between atoms: C_9  and  C_12
REMARK    9  A    between atoms: N_14  and  C_15
REMARK                            x       y       z     vdW  Elec       q    Type
REMARK                         _______ _______ _______ _____ _____    ______ ____
ROOT
ATOM      1  C   UNL     1      -4.320  -4.333   0.252  0.00  0.00    +0.017 C 
ATOM      2  C   UNL     1      -4.579  -3.820   1.671  0.00  0.00    -0.004 C 
ENDROOT
BRANCH   1   3
ATOM      3  C   UNL     1      -4.292  -5.840   0.260  0.00  0.00    +0.203 C 
ATOM      4  O   UNL     1      -3.240  -6.426   0.401  0.00  0.00    -0.277 OA
ATOM      5  N   UNL     1      -5.437  -6.535   0.111  0.00  0.00    -0.286 N 
ATOM      6  H   UNL     1      -6.285  -6.068   0.057  0.00  0.00    +0.155 HD
BRANCH   5   7
ATOM      7  C   UNL     1      -5.402  -7.932   0.032  0.00  0.00    +0.047 A 
ATOM      8  C   UNL     1      -4.387  -8.639   0.663  0.00  0.00    +0.024 A 
ATOM      9  C   UNL     1      -4.355 -10.018   0.585  0.00  0.00    +0.002 A 
ATOM     10  C   UNL     1      -5.332 -10.694  -0.122  0.00  0.00    +0.001 A 
ATOM     11  C   UNL     1      -6.344  -9.994  -0.752  0.00  0.00    +0.016 A 
ATOM     12  C   UNL     1      -6.385  -8.615  -0.673  0.00  0.00    +0.035 A 
ATOM     13  I   UNL     1      -7.923  -7.554  -1.621  0.00  0.00    -0.042 I 
ENDBRANCH   5   7
ENDBRANCH   1   3
BRANCH   1  14
ATOM     14  N   UNL     1      -3.028  -3.822  -0.225  0.00  0.00    +0.391 N 
ATOM     15  C   UNL     1      -2.809  -4.261  -1.609  0.00  0.00    -0.094 C 
ATOM     16  H   UNL     1      -2.288  -4.178   0.362  0.00  0.00    -0.080 HD
BRANCH  14  17
ATOM     17  C   UNL     1      -3.032  -2.354  -0.171  0.00  0.00    +0.019 C 
BRANCH  17  19
ATOM     18  N   UNL     1      -1.434  -0.507  -0.562  0.00  0.00    -0.317 N 
ATOM     19  C   UNL     1      -1.667  -1.834  -0.543  0.00  0.00    +0.196 C 
ATOM     20  O   UNL     1      -0.778  -2.610  -0.825  0.00  0.00    -0.278 OA
ATOM     21  H   UNL     1      -2.144   0.114  -0.337  0.00  0.00    +0.149 HD
BRANCH  18  23
ATOM     22  C   UNL     1      -0.111   1.528  -0.868  0.00  0.00    +0.024 C 
ATOM     23  C   UNL     1      -0.107  -0.002  -0.924  0.00  0.00    +0.101 C 
ENDBRANCH  18  23
ENDBRANCH  17  19
ENDBRANCH  14  17
ENDBRANCH   1  14
TORSDOF 6
