REMARK  Name = ZINC15105631
REMARK  14 active torsions:
REMARK  status: ('A' for Active; 'I' for Inactive)
REMARK    1  A    between atoms: C_1  and  C_2
REMARK    2  A    between atoms: C_2  and  C_3
REMARK    3  A    between atoms: C_3  and  C_4
REMARK    4  A    between atoms: C_4  and  N_5
REMARK    5  A    between atoms: N_5  and  C_6
REMARK    6  A    between atoms: C_7  and  N_18
REMARK    7  A    between atoms: N_8  and  C_15
REMARK    8  A    between atoms: C_15  and  C_16
REMARK    9  A    between atoms: C_16  and  C_17
REMARK   10  A    between atoms: C_19  and  C_21
REMARK   11  A    between atoms: C_21  and  N_74
REMARK   12  A    between atoms: C_27  and  C_29
REMARK   13  A    between atoms: C_32  and  O_35
REMARK   14  A    between atoms: O_35  and  C_36
REMARK                            x       y       z     vdW  Elec       q    Type
REMARK                         _______ _______ _______ _____ _____    ______ ____
ROOT
ATOM      1  N   UNL     1      -2.093   0.026   4.318  0.00  0.00    -0.266 N 
ATOM      2  C   UNL     1      -1.859  -0.586   3.138  0.00  0.00    +0.203 C 
ATOM      3  O   UNL     1      -2.449  -1.608   2.858  0.00  0.00    -0.277 OA
ENDROOT
BRANCH   1   4
ATOM      4  C   UNL     1      -2.942  -0.577   5.270  0.00  0.00    +0.140 A 
ATOM      5  C   UNL     1      -4.290  -0.726   5.013  0.00  0.00    +0.127 A 
ATOM      6  N   UNL     1      -5.092  -1.319   5.960  0.00  0.00    -0.280 N 
ATOM      7  C   UNL     1      -4.569  -1.749   7.123  0.00  0.00    +0.331 A 
ATOM      8  O   UNL     1      -5.296  -2.270   7.948  0.00  0.00    -0.246 OA
ATOM      9  N   UNL     1      -3.259  -1.612   7.390  0.00  0.00    -0.273 N 
ATOM     10  H   UNL     1      -2.896  -1.936   8.264  0.00  0.00    +0.173 HD
ATOM     11  C   UNL     1      -2.428  -1.043   6.494  0.00  0.00    +0.277 A 
ATOM     12  O   UNL     1      -1.240  -0.928   6.745  0.00  0.00    -0.266 OA
BRANCH   5  13
ATOM     13  N   UNL     1      -4.824  -0.287   3.825  0.00  0.00    -0.343 N 
ATOM     14  H   UNL     1      -4.245   0.077   3.138  0.00  0.00    +0.144 HD
ATOM     15  H   UNL     1      -5.781  -0.341   3.675  0.00  0.00    +0.144 HD
ENDBRANCH   5  13
BRANCH   6  16
ATOM     16  C   UNL     1      -6.525  -1.483   5.701  0.00  0.00    +0.128 C 
BRANCH  16  17
ATOM     17  C   UNL     1      -6.769  -2.831   5.019  0.00  0.00    +0.018 C 
ATOM     18  C   UNL     1      -8.265  -3.002   4.749  0.00  0.00    +0.005 C 
ENDBRANCH  16  17
ENDBRANCH   6  16
ENDBRANCH   1   4
BRANCH   1  19
ATOM     19  C   UNL     1      -1.465   1.317   4.611  0.00  0.00    +0.114 C 
BRANCH  19  20
ATOM     20  C   UNL     1      -2.426   2.448   4.238  0.00  0.00    +0.019 C 
BRANCH  20  22
ATOM     21  C   UNL     1      -2.731   4.927   4.171  0.00  0.00    +0.004 C 
ATOM     22  C   UNL     1      -1.770   3.796   4.544  0.00  0.00    -0.002 C 
ENDBRANCH  20  22
ENDBRANCH  19  20
ENDBRANCH   1  19
BRANCH   2  23
ATOM     23  C   UNL     1      -0.866   0.001   2.169  0.00  0.00    +0.020 C 
BRANCH  23  30
ATOM     24  C   UNL     1      -2.253  -0.748   0.324  0.00  0.00    -0.077 C 
ATOM     25  C   UNL     1      -2.112  -0.850  -1.174  0.00  0.00    -0.019 C 
ATOM     26  C   UNL     1      -2.235  -2.304  -1.658  0.00  0.00    -0.002 C 
ATOM     27  C   UNL     1      -1.499  -3.287  -0.725  0.00  0.00    -0.001 C 
ATOM     28  C   UNL     1      -0.163  -2.760  -0.267  0.00  0.00    -0.011 C 
ATOM     29  C   UNL     1      -0.345  -2.031   1.082  0.00  0.00    -0.037 C 
ATOM     30  N   UNL     1      -0.867  -0.725   0.886  0.00  0.00    +0.390 N 
ATOM     31  H   UNL     1      -0.257  -0.231   0.224  0.00  0.00    -0.080 HD
BRANCH  29  32
ATOM     32  C   UNL     1       0.998  -1.896   1.752  0.00  0.00    -0.061 A 
ATOM     33  C   UNL     1       1.851  -0.870   1.389  0.00  0.00    +0.005 A 
ATOM     34  C   UNL     1       3.080  -0.741   2.006  0.00  0.00    +0.046 A 
ATOM     35  C   UNL     1       3.464  -1.649   2.982  0.00  0.00    +0.120 A 
ATOM     36  C   UNL     1       2.609  -2.680   3.341  0.00  0.00    +0.046 A 
ATOM     37  C   UNL     1       1.378  -2.802   2.725  0.00  0.00    +0.005 A 
BRANCH  35  38
ATOM     38  O   UNL     1       4.675  -1.527   3.587  0.00  0.00    -0.495 OA
ATOM     39  C   UNL     1       5.503  -0.440   3.167  0.00  0.00    +0.277 C 
ENDBRANCH  35  38
ENDBRANCH  29  32
ENDBRANCH  23  30
ENDBRANCH   2  23
TORSDOF 11
