REMARK  Name = ZINC06509228
REMARK  7 active torsions:
REMARK  status: ('A' for Active; 'I' for Inactive)
REMARK    1  A    between atoms: C_10  and  C_12
REMARK    2  A    between atoms: C_12  and  N_41
REMARK    3  A    between atoms: C_13  and  C_14
REMARK    4  A    between atoms: C_13  and  N_41
REMARK    5  A    between atoms: C_14  and  O_15
REMARK    6  A    between atoms: C_16  and  C_17
REMARK    7  A    between atoms: C_16  and  N_41
REMARK                            x       y       z     vdW  Elec       q    Type
REMARK                         _______ _______ _______ _____ _____    ______ ____
ROOT
ATOM      1  N   UNL     1      -0.402   3.829  -0.049  0.00  0.00    +0.391 N 
ATOM      2  H   UNL     1      -1.002   3.457  -0.794  0.00  0.00    -0.081 HD
ENDROOT
BRANCH   1   3
ATOM      3  C   UNL     1       0.935   3.206  -0.154  0.00  0.00    -0.003 C 
BRANCH   3  13
ATOM      4  C   UNL     1       0.099  -2.423  -0.342  0.00  0.00    +0.023 A 
ATOM      5  C   UNL     1      -1.198  -2.761  -0.262  0.00  0.00    +0.048 A 
ATOM      6  S   UNL     1      -2.027  -1.188  -0.131  0.00  0.00    -0.077 S 
ATOM      7  C   UNL     1      -0.609  -0.124  -0.188  0.00  0.00    +0.115 A 
ATOM      8  C   UNL     1       0.468  -1.020  -0.308  0.00  0.00    +0.072 A 
ATOM      9  C   UNL     1       1.768  -0.420  -0.378  0.00  0.00    +0.260 A 
ATOM     10  O   UNL     1       2.765  -1.113  -0.482  0.00  0.00    -0.267 OA
ATOM     11  N   UNL     1       1.870   0.921  -0.326  0.00  0.00    -0.312 N 
ATOM     12  H   UNL     1       2.774   1.346  -0.376  0.00  0.00    +0.170 HD
ATOM     13  C   UNL     1       0.770   1.709  -0.208  0.00  0.00    +0.094 A 
ATOM     14  N   UNL     1      -0.428   1.193  -0.143  0.00  0.00    -0.229 NA
ENDBRANCH   3  13
ENDBRANCH   1   3
BRANCH   1  15
ATOM     15  C   UNL     1      -1.007   3.509   1.261  0.00  0.00    -0.049 C 
BRANCH  15  16
ATOM     16  C   UNL     1      -2.504   3.819   1.199  0.00  0.00    +0.137 C 
BRANCH  16  17
ATOM     17  O   UNL     1      -3.124   2.980   0.222  0.00  0.00    -0.397 OA
ATOM     18  H   UNL     1      -4.086   3.068   0.182  0.00  0.00    +0.209 HD
ENDBRANCH  16  17
ENDBRANCH  15  16
ENDBRANCH   1  15
BRANCH   1  19
ATOM     19  C   UNL     1      -0.290   5.294  -0.210  0.00  0.00    -0.003 C 
BRANCH  19  20
ATOM     20  C   UNL     1      -0.138   5.609  -1.676  0.00  0.00    +0.094 A 
ATOM     21  N   UNL     1       0.082   6.892  -2.063  0.00  0.00    -0.312 N 
ATOM     22  H   UNL     1       0.136   7.610  -1.370  0.00  0.00    +0.170 HD
ATOM     23  C   UNL     1       0.228   7.215  -3.361  0.00  0.00    +0.260 A 
ATOM     24  O   UNL     1       0.429   8.371  -3.692  0.00  0.00    -0.267 OA
ATOM     25  C   UNL     1       0.137   6.181  -4.349  0.00  0.00    +0.072 A 
ATOM     26  C   UNL     1       0.253   6.273  -5.792  0.00  0.00    +0.023 A 
ATOM     27  C   UNL     1       0.133   5.159  -6.532  0.00  0.00    +0.048 A 
ATOM     28  S   UNL     1      -0.149   3.885  -5.317  0.00  0.00    -0.077 S 
ATOM     29  C   UNL     1      -0.098   4.886  -3.853  0.00  0.00    +0.115 A 
ATOM     30  N   UNL     1      -0.226   4.644  -2.551  0.00  0.00    -0.229 NA
ENDBRANCH  19  20
ENDBRANCH   1  19
TORSDOF 7
