REMARK  Name = ZINC15974768
REMARK  6 active torsions:
REMARK  status: ('A' for Active; 'I' for Inactive)
REMARK    1  A    between atoms: C_1  and  C_2
REMARK    2  A    between atoms: C_2  and  C_3
REMARK    3  A    between atoms: C_2  and  C_4
REMARK    4  A    between atoms: C_2  and  C_5
REMARK    5  A    between atoms: C_5  and  C_7
REMARK    6  A    between atoms: N_26  and  C_29
REMARK                            x       y       z     vdW  Elec       q    Type
REMARK                         _______ _______ _______ _____ _____    ______ ____
ROOT
ATOM      1  C   UNL     1       0.476  -1.876  -1.494  0.00  0.00    +0.172 C 
ATOM      2  C   UNL     1      -0.873  -2.221  -2.158  0.00  0.00    +0.119 C 
ATOM      3  C   UNL     1      -0.537  -3.441  -3.064  0.00  0.00    +0.116 C 
ATOM      4  C   UNL     1       0.970  -3.355  -3.309  0.00  0.00    +0.136 C 
ATOM      5  N   UNL     1       1.506  -2.279  -2.448  0.00  0.00    -0.236 N 
ATOM      6  N   UNL     1       2.787  -1.733  -2.630  0.00  0.00    -0.191 NA
ATOM      7  C   UNL     1       3.239  -1.687  -3.856  0.00  0.00    +0.138 C 
ATOM      8  C   UNL     1       2.401  -2.173  -4.969  0.00  0.00    -0.000 A 
ATOM      9  C   UNL     1       1.274  -3.012  -4.745  0.00  0.00    -0.016 A 
ATOM     10  C   UNL     1       0.496  -3.497  -5.771  0.00  0.00    +0.006 A 
ATOM     11  C   UNL     1       0.792  -3.162  -7.082  0.00  0.00    +0.000 A 
ATOM     12  C   UNL     1       1.869  -2.340  -7.364  0.00  0.00    +0.001 A 
ATOM     13  C   UNL     1       2.705  -1.815  -6.284  0.00  0.00    +0.010 A 
ATOM     14  C   UNL     1      -0.862  -4.612  -2.158  0.00  0.00    +0.232 C 
ATOM     15  O   UNL     1      -0.486  -5.754  -2.316  0.00  0.00    -0.274 OA
ATOM     16  N   UNL     1      -1.633  -4.173  -1.152  0.00  0.00    -0.208 N 
ATOM     17  C   UNL     1      -1.794  -2.820  -1.112  0.00  0.00    +0.232 C 
ATOM     18  O   UNL     1      -2.536  -2.198  -0.383  0.00  0.00    -0.274 OA
ENDROOT
BRANCH  16  19
ATOM     19  C   UNL     1      -2.227  -5.033  -0.218  0.00  0.00    +0.062 A 
ATOM     20  C   UNL     1      -1.555  -5.362   0.951  0.00  0.00    +0.025 A 
ATOM     21  C   UNL     1      -2.143  -6.209   1.870  0.00  0.00    +0.002 A 
ATOM     22  C   UNL     1      -3.401  -6.730   1.626  0.00  0.00    +0.002 A 
ATOM     23  C   UNL     1      -4.074  -6.405   0.463  0.00  0.00    +0.022 A 
ATOM     24  C   UNL     1      -3.493  -5.552  -0.457  0.00  0.00    +0.063 A 
ATOM     25 CL   UNL     1      -4.341  -5.138  -1.914  0.00  0.00    -0.082 Cl
ENDBRANCH  16  19
BRANCH   1  26
ATOM     26  C   UNL     1       0.563  -0.395  -1.232  0.00  0.00    +0.161 C 
ATOM     27  O   UNL     1       0.279   0.391  -2.104  0.00  0.00    -0.295 OA
BRANCH  26  29
ATOM     28  C   UNL     1       1.128   1.631   0.082  0.00  0.00    +0.018 C 
ATOM     29  C   UNL     1       1.004   0.107   0.119  0.00  0.00    +0.023 C 
ATOM     30  C   UNL     1       2.360  -0.508   0.474  0.00  0.00    +0.018 C 
ATOM     31  C   UNL     1      -0.029  -0.295   1.174  0.00  0.00    +0.018 C 
ENDBRANCH  26  29
ENDBRANCH   1  26
TORSDOF 3
