REMARK  Name = ZINC43553403
REMARK  7 active torsions:
REMARK  status: ('A' for Active; 'I' for Inactive)
REMARK    1  A    between atoms: C_1  and  C_2
REMARK    2  A    between atoms: C_5  and  O_39
REMARK    3  A    between atoms: C_7  and  C_36
REMARK    4  A    between atoms: C_7  and  C_37
REMARK    5  A    between atoms: C_25  and  C_27
REMARK    6  A    between atoms: C_27  and  C_28
REMARK    7  A    between atoms: C_37  and  O_38
REMARK                            x       y       z     vdW  Elec       q    Type
REMARK                         _______ _______ _______ _____ _____    ______ ____
ROOT
ATOM      1  C   UNL     1      -0.014   1.546  -0.495  0.00  0.00    +0.012 C 
ATOM      2  C   UNL     1       0.039   0.011  -0.446  0.00  0.00    -0.019 C 
ATOM      3  C   UNL     1      -1.385  -0.522  -0.339  0.00  0.00    +0.010 C 
ATOM      4  C   UNL     1      -2.040   0.048   0.920  0.00  0.00    +0.032 C 
ATOM      5  C   UNL     1      -1.267  -0.315   2.174  0.00  0.00    +0.123 C 
ATOM      6  C   UNL     1       0.232  -0.077   2.094  0.00  0.00    +0.021 C 
ATOM      7  C   UNL     1       0.845  -0.477   0.753  0.00  0.00    +0.011 C 
ATOM      8  C   UNL     1       0.942  -2.016   0.746  0.00  0.00    +0.049 C 
ATOM      9  C   UNL     1       1.043  -2.561  -0.632  0.00  0.00    +0.015 A 
ATOM     10  C   UNL     1       0.918  -1.889  -1.804  0.00  0.00    +0.058 A 
ATOM     11  N   UNL     1       1.026  -2.634  -2.898  0.00  0.00    -0.229 NA
ATOM     12  C   UNL     1       1.259  -3.926  -2.835  0.00  0.00    +0.166 A 
ATOM     13  S   UNL     1       1.349  -4.219  -1.177  0.00  0.00    -0.057 S 
ATOM     14  N   UNL     1       1.399  -4.830  -3.881  0.00  0.00    -0.248 N 
ATOM     15  C   UNL     1       1.638  -6.131  -3.620  0.00  0.00    +0.308 C 
ATOM     16  O   UNL     1       1.638  -6.530  -2.471  0.00  0.00    -0.252 OA
ATOM     17  N   UNL     1       1.877  -6.989  -4.631  0.00  0.00    -0.281 N 
ATOM     18  C   UNL     1       1.782  -6.551  -6.033  0.00  0.00    +0.137 C 
ATOM     19  C   UNL     1       3.064  -6.974  -6.760  0.00  0.00    +0.179 C 
ATOM     20  O   UNL     1       3.289  -8.369  -6.543  0.00  0.00    -0.377 OA
ATOM     21  C   UNL     1       3.500  -8.723  -5.174  0.00  0.00    +0.179 C 
ATOM     22  C   UNL     1       2.246  -8.388  -4.367  0.00  0.00    +0.137 C 
ATOM     23  C   UNL     1       0.703  -0.391  -1.766  0.00  0.00    +0.054 C 
ATOM     24  C   UNL     1       0.561   1.374   2.468  0.00  0.00    +0.016 C 
ATOM     25  H   UNL     1       1.325  -4.526  -4.798  0.00  0.00    +0.158 HD
ENDROOT
BRANCH   5  26
ATOM     26  O   UNL     1      -1.532  -1.677   2.529  0.00  0.00    -0.391 OA
ATOM     27  H   UNL     1      -2.464  -1.863   2.708  0.00  0.00    +0.210 HD
ENDBRANCH   5  26
BRANCH  23  28
ATOM     28  C   UNL     1      -0.140   0.060  -2.955  0.00  0.00    +0.106 C 
BRANCH  28  29
ATOM     29  C   UNL     1       0.596  -0.240  -4.235  0.00  0.00    +0.216 C 
ATOM     30  O   UNL     1       1.690  -0.763  -4.198  0.00  0.00    -0.276 OA
ATOM     31  N   UNL     1       0.040   0.074  -5.422  0.00  0.00    -0.297 N 
ATOM     32  C   UNL     1      -1.283   0.715  -5.492  0.00  0.00    +0.136 C 
ATOM     33  C   UNL     1      -1.176   1.946  -6.400  0.00  0.00    +0.179 C 
ATOM     34  O   UNL     1      -0.589   1.563  -7.646  0.00  0.00    -0.377 OA
ATOM     35  C   UNL     1       0.746   1.062  -7.535  0.00  0.00    +0.179 C 
ATOM     36  C   UNL     1       0.740  -0.209  -6.685  0.00  0.00    +0.136 C 
ENDBRANCH  28  29
ENDBRANCH  23  28
BRANCH   6  37
ATOM     37  C   UNL     1       0.886  -0.942   3.204  0.00  0.00    +0.165 C 
BRANCH  37  38
ATOM     38  O   UNL     1       0.379  -0.543   4.479  0.00  0.00    -0.394 OA
ATOM     39  H   UNL     1       0.746  -1.043   5.222  0.00  0.00    +0.209 HD
ENDBRANCH  37  38
ENDBRANCH   6  37
TORSDOF 5
