REMARK  Name = ZINC26780231
REMARK  10 active torsions:
REMARK  status: ('A' for Active; 'I' for Inactive)
REMARK    1  A    between atoms: C_1  and  C_2
REMARK    2  A    between atoms: C_5  and  N_11
REMARK    3  A    between atoms: C_7  and  C_10
REMARK    4  A    between atoms: N_11  and  C_12
REMARK    5  A    between atoms: C_12  and  N_14
REMARK    6  A    between atoms: N_14  and  C_15
REMARK    7  A    between atoms: C_19  and  S_21
REMARK    8  A    between atoms: S_21  and  N_24
REMARK    9  A    between atoms: N_24  and  C_25
REMARK   10  A    between atoms: N_24  and  C_26
REMARK                            x       y       z     vdW  Elec       q    Type
REMARK                         _______ _______ _______ _____ _____    ______ ____
ROOT
ATOM      1  C   UNL     1      -1.944   5.168  -4.750  0.00  0.00    +0.135 C 
ATOM      2  S   UNL     1      -3.096   4.103  -5.436  0.00  0.00    -0.019 S 
ENDROOT
BRANCH   1   3
ATOM      3  N   UNL     1      -1.680   6.348  -5.345  0.00  0.00    -0.324 N 
ATOM      4  H   UNL     1      -0.940   7.033  -4.905  0.00  0.00    +0.148 HD
BRANCH   3   8
ATOM      5  C   UNL     1      -3.096  10.149  -8.175  0.00  0.00    -0.014 C 
ATOM      6  C   UNL     1      -3.084   8.626  -8.029  0.00  0.00    -0.073 C 
ATOM      7  C   UNL     1      -2.407   8.245  -6.710  0.00  0.00    +0.006 C 
ATOM      8  C   UNL     1      -2.379   6.720  -6.578  0.00  0.00    +0.069 C 
ATOM      9  C   UNL     1      -1.644   6.125  -7.782  0.00  0.00    +0.006 C 
ATOM     10  C   UNL     1      -2.343   6.566  -9.069  0.00  0.00    -0.073 C 
ATOM     11  N   UNL     1      -2.343   8.033  -9.150  0.00  0.00    +0.383 N 
ATOM     12  C   UNL     1      -1.600   5.990 -10.277  0.00  0.00    -0.014 C 
ATOM     13  H   UNL     1      -2.812   8.332 -10.098  0.00  0.00    -0.085 HD
ATOM     14  H   UNL     1      -1.301   8.385  -9.128  0.00  0.00    -0.085 HD
ENDBRANCH   3   8
ENDBRANCH   1   3
BRANCH   1  15
ATOM     15  N   UNL     1      -1.301   4.826  -3.616  0.00  0.00    -0.297 N 
ATOM     16  H   UNL     1      -0.630   5.546  -3.126  0.00  0.00    +0.154 HD
BRANCH  15  17
ATOM     17  C   UNL     1      -1.488   3.555  -3.062  0.00  0.00    +0.034 A 
ATOM     18  C   UNL     1      -1.635   3.410  -1.688  0.00  0.00    +0.023 A 
ATOM     19  C   UNL     1      -1.820   2.154  -1.145  0.00  0.00    +0.004 A 
ATOM     20  C   UNL     1      -1.865   1.042  -1.967  0.00  0.00    +0.028 A 
ATOM     21  C   UNL     1      -1.713   1.183  -3.334  0.00  0.00    +0.107 A 
ATOM     22  C   UNL     1      -1.528   2.437  -3.884  0.00  0.00    +0.051 A 
BRANCH  21  23
ATOM     23  S   UNL     1      -1.763  -0.236  -4.376  0.00  0.00    +0.060 S 
ATOM     24  O   UNL     1      -2.492  -1.232  -3.671  0.00  0.00    -0.153 OA
ATOM     25  O   UNL     1      -2.148   0.220  -5.666  0.00  0.00    -0.153 OA
BRANCH  23  26
ATOM     26  N   UNL     1      -0.211  -0.796  -4.515  0.00  0.00    -0.183 NA
ATOM     27  C   UNL     1       0.300  -1.784  -3.561  0.00  0.00    +0.131 C 
ATOM     28  C   UNL     1       0.651  -0.305  -5.593  0.00  0.00    +0.131 C 
ENDBRANCH  23  26
ENDBRANCH  21  23
ENDBRANCH  15  17
ENDBRANCH   1  15
TORSDOF 6
