REMARK  Name = ZINC49128970
REMARK  10 active torsions:
REMARK  status: ('A' for Active; 'I' for Inactive)
REMARK    1  A    between atoms: C_1  and  C_2
REMARK    2  A    between atoms: C_5  and  O_8
REMARK    3  A    between atoms: O_8  and  C_9
REMARK    4  A    between atoms: C_9  and  C_10
REMARK    5  A    between atoms: C_10  and  C_12
REMARK    6  A    between atoms: C_10  and  O_23
REMARK    7  A    between atoms: C_12  and  N_13
REMARK    8  A    between atoms: N_13  and  C_14
REMARK    9  A    between atoms: C_14  and  C_16
REMARK   10  A    between atoms: C_14  and  C_17
REMARK                            x       y       z     vdW  Elec       q    Type
REMARK                         _______ _______ _______ _____ _____    ______ ____
ROOT
ATOM      1  C   UNL     1      -0.613  -6.112   2.409  0.00  0.00    +0.123 C 
ENDROOT
BRANCH   1   2
ATOM      2  O   UNL     1       0.608  -6.522   1.790  0.00  0.00    -0.391 OA
ATOM      3  H   UNL     1       1.402  -6.267   2.279  0.00  0.00    +0.210 HD
ENDBRANCH   1   2
BRANCH   1   4
ATOM      4  C   UNL     1      -0.633  -4.587   2.538  0.00  0.00    +0.189 C 
BRANCH   4   5
ATOM      5  O   UNL     1      -0.653  -3.999   1.236  0.00  0.00    -0.374 OA
BRANCH   5  10
ATOM      6  C   UNL     1      -0.019   1.526   0.010  0.00  0.00    +0.007 C 
ATOM      7  C   UNL     1       0.002  -0.004   0.002  0.00  0.00    -0.014 C 
ATOM      8  C   UNL     1      -1.433  -0.534   0.013  0.00  0.00    +0.006 C 
ATOM      9  C   UNL     1      -1.413  -2.063   0.004  0.00  0.00    +0.032 C 
ATOM     10  C   UNL     1      -0.673  -2.570   1.244  0.00  0.00    +0.118 C 
ATOM     11  C   UNL     1       0.763  -2.041   1.233  0.00  0.00    +0.032 C 
ATOM     12  C   UNL     1       0.742  -0.511   1.242  0.00  0.00    +0.006 C 
ENDBRANCH   5  10
ENDBRANCH   4   5
ENDBRANCH   1   4
BRANCH   1  13
ATOM     13  C   UNL     1      -0.717  -6.743   3.799  0.00  0.00    -0.048 C 
BRANCH  13  14
ATOM     14  N   UNL     1      -0.699  -8.206   3.675  0.00  0.00    +0.385 N 
ATOM     15  H   UNL     1      -1.479  -8.506   3.110  0.00  0.00    -0.085 HD
ATOM     16  H   UNL     1       0.164  -8.496   3.238  0.00  0.00    -0.085 HD
BRANCH  14  17
ATOM     17  C   UNL     1      -0.798  -8.812   5.010  0.00  0.00    -0.037 C 
ATOM     18  C   UNL     1       0.448  -8.459   5.824  0.00  0.00    -0.008 C 
BRANCH  17  19
ATOM     19  C   UNL     1      -0.903 -10.310   4.875  0.00  0.00    -0.023 A 
ATOM     20  C   UNL     1      -1.679 -11.177   5.570  0.00  0.00    +0.011 A 
ATOM     21  C   UNL     1      -1.610 -12.525   5.272  0.00  0.00    +0.028 A 
ATOM     22  C   UNL     1      -0.767 -12.940   4.293  0.00  0.00    +0.078 A 
ATOM     23  S   UNL     1      -0.042 -11.400   3.754  0.00  0.00    -0.083 S 
ATOM     24 CL   UNL     1      -0.474 -14.549   3.712  0.00  0.00    -0.076 Cl
ENDBRANCH  17  19
ENDBRANCH  14  17
ENDBRANCH  13  14
ENDBRANCH   1  13
TORSDOF 8
