REMARK  Name = ZINC36813071
REMARK  5 active torsions:
REMARK  status: ('A' for Active; 'I' for Inactive)
REMARK    1  A    between atoms: C_1  and  O_2
REMARK    2  A    between atoms: O_2  and  C_3
REMARK    3  A    between atoms: C_7  and  N_9
REMARK    4  A    between atoms: N_9  and  C_10
REMARK    5  A    between atoms: C_19  and  N_20
REMARK                            x       y       z     vdW  Elec       q    Type
REMARK                         _______ _______ _______ _____ _____    ______ ____
ROOT
ATOM      1  C   UNL     1      -3.797  -4.711  -0.047  0.00  0.00    +0.063 A 
ATOM      2  C   UNL     1      -3.932  -6.051   0.380  0.00  0.00    +0.022 A 
ATOM      3  C   UNL     1      -2.811  -6.879   0.546  0.00  0.00    +0.027 A 
ATOM      4  C   UNL     1      -2.980  -8.166   0.960  0.00  0.00    +0.019 A 
ATOM      5  C   UNL     1      -4.253  -8.672   1.220  0.00  0.00    +0.017 A 
ATOM      6  C   UNL     1      -5.360  -7.896   1.067  0.00  0.00    +0.027 A 
ATOM      7  C   UNL     1      -5.226  -6.562   0.643  0.00  0.00    +0.048 A 
ATOM      8  N   UNL     1      -6.299  -5.779   0.487  0.00  0.00    -0.359 N 
ATOM      9  C   UNL     1      -6.193  -4.532   0.092  0.00  0.00    +0.107 A 
ATOM     10  C   UNL     1      -4.955  -3.953  -0.182  0.00  0.00    +0.063 A 
ATOM     11 BR   UNL     1      -1.469  -9.281   1.183  0.00  0.00    -0.050 Br
ATOM     12  H   UNL     1      -7.179  -6.143   0.671  0.00  0.00    +0.165 HD
ENDROOT
BRANCH  10  13
ATOM     13  N   UNL     1      -4.878  -2.615  -0.597  0.00  0.00    -0.355 N 
ATOM     14  H   UNL     1      -4.013  -2.202  -0.744  0.00  0.00    +0.142 HD
ATOM     15  H   UNL     1      -5.690  -2.103  -0.737  0.00  0.00    +0.142 HD
ENDBRANCH  10  13
BRANCH   1  16
ATOM     16  N   UNL     1      -2.546  -4.166  -0.318  0.00  0.00    -0.312 N 
ATOM     17  H   UNL     1      -2.022  -3.775   0.399  0.00  0.00    +0.152 HD
BRANCH  16  22
ATOM     18  C   UNL     1      -0.354  -3.557  -3.209  0.00  0.00    +0.122 A 
ATOM     19  C   UNL     1      -1.057  -4.214  -4.210  0.00  0.00    +0.046 A 
ATOM     20  C   UNL     1      -2.247  -4.852  -3.917  0.00  0.00    +0.005 A 
ATOM     21  C   UNL     1      -2.743  -4.837  -2.628  0.00  0.00    +0.023 A 
ATOM     22  C   UNL     1      -2.045  -4.181  -1.622  0.00  0.00    +0.035 A 
ATOM     23  C   UNL     1      -0.845  -3.545  -1.913  0.00  0.00    +0.068 A 
BRANCH  18  25
ATOM     24  C   UNL     1       1.262  -2.983  -4.855  0.00  0.00    +0.277 C 
ATOM     25  O   UNL     1       0.816  -2.930  -3.498  0.00  0.00    -0.495 OA
ENDBRANCH  18  25
ENDBRANCH  16  22
ENDBRANCH   1  16
TORSDOF 4
