REMARK  Name = ZINC12292612
REMARK  8 active torsions:
REMARK  status: ('A' for Active; 'I' for Inactive)
REMARK    1  A    between atoms: C_1  and  O_2
REMARK    2  A    between atoms: O_2  and  C_3
REMARK    3  A    between atoms: C_8  and  C_9
REMARK    4  A    between atoms: C_9  and  O_28
REMARK    5  A    between atoms: C_14  and  C_15
REMARK    6  A    between atoms: C_14  and  N_59
REMARK    7  A    between atoms: C_15  and  C_17
REMARK    8  A    between atoms: C_15  and  O_27
REMARK                            x       y       z     vdW  Elec       q    Type
REMARK                         _______ _______ _______ _____ _____    ______ ____
ROOT
ATOM      1  C   UNL     1      -5.039   5.165   1.667  0.00  0.00    +0.091 C 
ATOM      2  C   UNL     1      -4.959   3.946   2.591  0.00  0.00    +0.021 C 
ATOM      3  C   UNL     1      -3.503   3.489   2.699  0.00  0.00    -0.076 C 
ATOM      4  C   UNL     1      -3.018   4.315   0.473  0.00  0.00    -0.076 C 
ATOM      5  C   UNL     1      -4.460   4.797   0.298  0.00  0.00    +0.021 C 
ATOM      6  N   UNL     1      -3.013   3.127   1.352  0.00  0.00    +0.382 N 
ATOM      7  H   UNL     1      -3.634   2.414   0.952  0.00  0.00    -0.082 HD
ENDROOT
BRANCH   1  13
ATOM      8  C   UNL     1      -7.403   4.701   0.971  0.00  0.00    +0.126 A 
ATOM      9  C   UNL     1      -8.728   5.087   0.831  0.00  0.00    +0.046 A 
ATOM     10  C   UNL     1      -9.122   6.353   1.219  0.00  0.00    +0.004 A 
ATOM     11  C   UNL     1      -8.197   7.233   1.751  0.00  0.00    +0.001 A 
ATOM     12  C   UNL     1      -6.877   6.849   1.896  0.00  0.00    +0.010 A 
ATOM     13  C   UNL     1      -6.479   5.583   1.509  0.00  0.00    +0.025 A 
BRANCH   8  15
ATOM     14  C   UNL     1      -8.018   2.602   0.038  0.00  0.00    +0.277 C 
ATOM     15  O   UNL     1      -7.012   3.458   0.585  0.00  0.00    -0.495 OA
ENDBRANCH   8  15
ENDBRANCH   1  13
BRANCH   1  16
ATOM     16  O   UNL     1      -4.287   6.241   2.231  0.00  0.00    -0.384 OA
ATOM     17  H   UNL     1      -4.294   7.048   1.697  0.00  0.00    +0.211 HD
ENDBRANCH   1  16
BRANCH   6  18
ATOM     18  C   UNL     1      -1.645   2.574   1.444  0.00  0.00    -0.042 C 
BRANCH  18  19
ATOM     19  C   UNL     1      -1.734   1.129   1.941  0.00  0.00    +0.128 C 
BRANCH  19  20
ATOM     20  C   UNL     1      -0.349   0.544   2.035  0.00  0.00    -0.021 A 
ATOM     21  C   UNL     1       0.284   0.072   0.900  0.00  0.00    +0.006 A 
ATOM     22  C   UNL     1       1.549  -0.469   0.996  0.00  0.00    +0.004 A 
ATOM     23  C   UNL     1       2.193  -0.545   2.225  0.00  0.00    -0.044 A 
ATOM     24  C   UNL     1       1.564  -0.072   3.355  0.00  0.00    -0.044 A 
ATOM     25  C   UNL     1       0.290   0.473   3.256  0.00  0.00    +0.010 A 
ATOM     26  C   UNL     1       2.205  -0.113   4.717  0.00  0.00    +0.035 C 
ATOM     27  C   UNL     1       3.371  -1.100   4.732  0.00  0.00    +0.005 C 
ATOM     28  C   UNL     1       4.293  -0.779   3.550  0.00  0.00    +0.005 C 
ATOM     29  C   UNL     1       3.569  -1.156   2.259  0.00  0.00    +0.035 C 
ENDBRANCH  19  20
BRANCH  19  30
ATOM     30  O   UNL     1      -2.515   0.358   1.025  0.00  0.00    -0.389 OA
ATOM     31  H   UNL     1      -2.155   0.331   0.128  0.00  0.00    +0.210 HD
ENDBRANCH  19  30
ENDBRANCH  18  19
ENDBRANCH   6  18
TORSDOF 7
