REMARK  Name = ZINC13098259
REMARK  12 active torsions:
REMARK  status: ('A' for Active; 'I' for Inactive)
REMARK    1  A    between atoms: C_1  and  C_2
REMARK    2  A    between atoms: C_4  and  O_12
REMARK    3  A    between atoms: C_5  and  C_9
REMARK    4  A    between atoms: C_9  and  C_10
REMARK    5  A    between atoms: C_9  and  C_11
REMARK    6  A    between atoms: O_12  and  C_13
REMARK    7  A    between atoms: C_13  and  C_14
REMARK    8  A    between atoms: N_16  and  C_17
REMARK    9  A    between atoms: C_17  and  C_19
REMARK   10  A    between atoms: C_17  and  C_30
REMARK   11  A    between atoms: C_30  and  C_31
REMARK   12  A    between atoms: C_30  and  C_32
REMARK                            x       y       z     vdW  Elec       q    Type
REMARK                         _______ _______ _______ _____ _____    ______ ____
ROOT
ATOM      1  C   UNL     1      -0.548   3.716   3.627  0.00  0.00    +0.251 C 
ATOM      2  O   UNL     1       0.632   3.444   3.565  0.00  0.00    -0.272 OA
ATOM      3  N   UNL     1      -1.328   3.583   2.535  0.00  0.00    -0.305 N 
ATOM      4  H   UNL     1      -2.272   3.800   2.584  0.00  0.00    +0.149 HD
ENDROOT
BRANCH   1   5
ATOM      5  C   UNL     1      -1.143   4.203   4.923  0.00  0.00    +0.324 C 
BRANCH   5   6
ATOM      6  O   UNL     1      -0.124   4.260   5.923  0.00  0.00    -0.482 OA
BRANCH   6  10
ATOM      7  C   UNL     1      -3.625   5.848   8.931  0.00  0.00    +0.045 C 
ATOM      8  C   UNL     1      -2.192   5.464   8.663  0.00  0.00    -0.029 A 
ATOM      9  C   UNL     1      -1.815   5.035   7.405  0.00  0.00    +0.050 A 
ATOM     10  C   UNL     1      -0.497   4.682   7.160  0.00  0.00    +0.125 A 
ATOM     11  C   UNL     1       0.441   4.756   8.180  0.00  0.00    -0.002 A 
ATOM     12  C   UNL     1       0.061   5.189   9.435  0.00  0.00    +0.027 A 
ATOM     13  C   UNL     1      -1.255   5.542   9.678  0.00  0.00    +0.044 A 
ATOM     14 CL   UNL     1      -1.731   6.080  11.258  0.00  0.00    -0.083 Cl
BRANCH  11  15
ATOM     15  C   UNL     1       1.873   4.367   7.918  0.00  0.00    +0.016 C 
ATOM     16  C   UNL     1       2.785   5.565   8.190  0.00  0.00    +0.012 C 
ATOM     17  C   UNL     1       2.264   3.209   8.838  0.00  0.00    +0.012 C 
ENDBRANCH  11  15
ENDBRANCH   6  10
ENDBRANCH   5   6
ENDBRANCH   1   5
BRANCH   3  18
ATOM     18  C   UNL     1      -0.750   3.109   1.275  0.00  0.00    +0.106 C 
BRANCH  18  19
ATOM     19  C   UNL     1      -1.582   3.607   0.122  0.00  0.00    -0.023 A 
ATOM     20  C   UNL     1      -2.961   3.615   0.221  0.00  0.00    +0.009 A 
ATOM     21  C   UNL     1      -3.732   4.076  -0.831  0.00  0.00    +0.050 A 
ATOM     22  C   UNL     1      -3.117   4.518  -1.990  0.00  0.00    +0.162 A 
ATOM     23  C   UNL     1      -1.733   4.504  -2.092  0.00  0.00    +0.162 A 
ATOM     24  C   UNL     1      -0.965   4.048  -1.035  0.00  0.00    +0.055 A 
ATOM     25  O   UNL     1      -1.137   4.943  -3.238  0.00  0.00    -0.488 OA
ATOM     26  C   UNL     1      -1.335   4.130  -4.396  0.00  0.00    +0.232 C 
ATOM     27  C   UNL     1      -2.649   4.475  -5.080  0.00  0.00    +0.082 C 
ATOM     28  C   UNL     1      -3.855   4.154  -4.211  0.00  0.00    +0.232 C 
ATOM     29  O   UNL     1      -3.866   4.970  -3.038  0.00  0.00    -0.488 OA
ENDBRANCH  18  19
BRANCH  18  30
ATOM     30  C   UNL     1      -0.729   1.579   1.267  0.00  0.00    +0.008 C 
ATOM     31  C   UNL     1      -0.013   1.086   0.008  0.00  0.00    +0.009 C 
ATOM     32  C   UNL     1      -2.164   1.050   1.278  0.00  0.00    +0.009 C 
ENDBRANCH  18  30
ENDBRANCH   3  18
TORSDOF 7
