REMARK  Name = ZINC26603084
REMARK  5 active torsions:
REMARK  status: ('A' for Active; 'I' for Inactive)
REMARK    1  A    between atoms: C_1  and  N_2
REMARK    2  A    between atoms: C_6  and  C_8
REMARK    3  A    between atoms: C_8  and  N_9
REMARK    4  A    between atoms: C_13  and  C_15
REMARK    5  A    between atoms: N_17  and  C_18
REMARK                            x       y       z     vdW  Elec       q    Type
REMARK                         _______ _______ _______ _____ _____    ______ ____
ROOT
ATOM      1  N   UNL     1       4.822   0.959  -0.136  0.00  0.00    +0.393 N 
ATOM      2  C   UNL     1       4.864   0.337  -1.478  0.00  0.00    -0.077 C 
ATOM      3  C   UNL     1       5.202  -1.152  -1.275  0.00  0.00    -0.020 C 
ATOM      4  C   UNL     1       5.316  -1.335   0.256  0.00  0.00    -0.008 C 
ATOM      5  C   UNL     1       4.500  -0.140   0.810  0.00  0.00    +0.020 C 
ATOM      6  H   UNL     1       5.776   1.446   0.112  0.00  0.00    -0.080 HD
ENDROOT
BRANCH   5   7
ATOM      7  C   UNL     1       4.949   0.211   2.205  0.00  0.00    +0.204 C 
ATOM      8  O   UNL     1       5.491   1.274   2.418  0.00  0.00    -0.277 OA
ATOM      9  N   UNL     1       4.748  -0.658   3.216  0.00  0.00    -0.286 N 
ATOM     10  H   UNL     1       4.325  -1.653   3.010  0.00  0.00    +0.155 HD
BRANCH   9  11
ATOM     11  C   UNL     1       5.076  -0.294   4.527  0.00  0.00    +0.053 A 
ATOM     12  C   UNL     1       6.137   0.570   4.764  0.00  0.00    +0.044 A 
ATOM     13  C   UNL     1       6.455   0.932   6.059  0.00  0.00    +0.043 A 
ATOM     14  C   UNL     1       5.725   0.425   7.120  0.00  0.00    +0.021 A 
ATOM     15  C   UNL     1       4.672  -0.440   6.888  0.00  0.00    +0.023 A 
ATOM     16  C   UNL     1       4.345  -0.801   5.594  0.00  0.00    +0.062 A 
ATOM     17 CL   UNL     1       3.022  -1.887   5.303  0.00  0.00    -0.082 Cl
ATOM     18 CL   UNL     1       7.777   2.017   6.357  0.00  0.00    -0.083 Cl
ENDBRANCH   9  11
ENDBRANCH   5   7
BRANCH   1  19
ATOM     19  C   UNL     1       3.805   2.018  -0.079  0.00  0.00    +0.020 C 
BRANCH  19  25
ATOM     20  C   UNL     1       3.295   7.343  -3.071  0.00  0.00    +0.129 C 
ATOM     21  N   UNL     1       2.893   6.232  -2.206  0.00  0.00    -0.302 N 
ATOM     22  C   UNL     1       3.738   5.203  -1.993  0.00  0.00    +0.306 C 
ATOM     23  O   UNL     1       4.833   5.198  -2.519  0.00  0.00    -0.252 OA
ATOM     24  N   UNL     1       3.370   4.184  -1.192  0.00  0.00    -0.242 N 
ATOM     25  C   UNL     1       4.217   3.158  -0.975  0.00  0.00    +0.204 C 
ATOM     26  O   UNL     1       5.309   3.153  -1.500  0.00  0.00    -0.277 OA
ATOM     27  H   UNL     1       1.901   6.237  -1.729  0.00  0.00    +0.150 HD
ATOM     28  H   UNL     1       2.378   4.189  -0.716  0.00  0.00    +0.159 HD
ENDBRANCH  19  25
ENDBRANCH   1  19
TORSDOF 4
