REMARK  Name = ZINC63389832
REMARK  7 active torsions:
REMARK  status: ('A' for Active; 'I' for Inactive)
REMARK    1  A    between atoms: C_1  and  C_2
REMARK    2  A    between atoms: N_4  and  C_5
REMARK    3  A    between atoms: C_8  and  N_11
REMARK    4  A    between atoms: C_12  and  C_14
REMARK    5  A    between atoms: C_14  and  C_15
REMARK    6  A    between atoms: C_15  and  C_16
REMARK    7  A    between atoms: C_16  and  N_17
REMARK                            x       y       z     vdW  Elec       q    Type
REMARK                         _______ _______ _______ _____ _____    ______ ____
ROOT
ATOM      1  C   UNL     1       0.313 -10.602  -3.135  0.00  0.00    +0.106 C 
ENDROOT
BRANCH   1   2
ATOM      2  N   UNL     1       0.447 -11.179  -4.475  0.00  0.00    -0.299 N 
ATOM      3  C   UNL     1       0.546 -12.514  -4.628  0.00  0.00    +0.302 C 
ATOM      4  O   UNL     1       0.429 -13.246  -3.664  0.00  0.00    -0.253 OA
ATOM      5  N   UNL     1       0.775 -13.038  -5.848  0.00  0.00    -0.283 N 
ATOM      6  C   UNL     1       1.039 -12.147  -6.982  0.00  0.00    +0.114 C 
ATOM      7  C   UNL     1       2.405 -12.496  -7.601  0.00  0.00    +0.052 C 
ATOM      8  C   UNL     1       2.453 -13.999  -7.724  0.00  0.00    -0.036 C 
ATOM      9  C   UNL     1       2.730 -14.787  -8.755  0.00  0.00    -0.001 A 
ATOM     10  C   UNL     1       3.196 -14.489 -10.119  0.00  0.00    +0.010 A 
ATOM     11  C   UNL     1       3.364 -15.558 -10.942  0.00  0.00    +0.001 A 
ATOM     12  C   UNL     1       3.116 -16.877 -10.550  0.00  0.00    +0.002 A 
ATOM     13  C   UNL     1       2.693 -17.244  -9.314  0.00  0.00    +0.026 A 
ATOM     14  C   UNL     1       2.490 -16.208  -8.356  0.00  0.00    +0.043 A 
ATOM     15  N   UNL     1       2.116 -16.274  -7.112  0.00  0.00    -0.376 N 
ATOM     16  C   UNL     1       2.133 -14.922  -6.553  0.00  0.00    +0.124 C 
ATOM     17  C   UNL     1       0.763 -14.499  -6.027  0.00  0.00    +0.138 C 
ATOM     18  H   UNL     1       0.464 -10.599  -5.253  0.00  0.00    +0.150 HD
ATOM     19  H   UNL     1       1.869 -17.082  -6.636  0.00  0.00    +0.160 HD
ENDBRANCH   1   2
BRANCH   1  20
ATOM     20  C   UNL     1       0.220  -9.079  -3.242  0.00  0.00    +0.028 C 
BRANCH  20  21
ATOM     21  C   UNL     1       0.080  -8.477  -1.843  0.00  0.00    +0.097 C 
BRANCH  21  23
ATOM     22  N   UNL     1      -0.141  -6.229  -0.834  0.00  0.00    -0.285 N 
ATOM     23  C   UNL     1      -0.012  -6.977  -1.948  0.00  0.00    +0.217 C 
ATOM     24  O   UNL     1       0.031  -6.441  -3.035  0.00  0.00    -0.275 OA
ATOM     25  H   UNL     1      -0.243  -6.660   0.030  0.00  0.00    +0.155 HD
BRANCH  22  29
ATOM     26  C   UNL     1      -0.101  -2.068  -1.098  0.00  0.00    +0.033 A 
ATOM     27  C   UNL     1       0.464  -2.700   0.002  0.00  0.00    +0.025 A 
ATOM     28  C   UNL     1       0.451  -4.077   0.090  0.00  0.00    +0.025 A 
ATOM     29  C   UNL     1      -0.128  -4.832  -0.922  0.00  0.00    +0.033 A 
ATOM     30  C   UNL     1      -0.693  -4.200  -2.022  0.00  0.00    +0.025 A 
ATOM     31  C   UNL     1      -0.685  -2.822  -2.107  0.00  0.00    +0.025 A 
BRANCH  26  35
ATOM     32  C   UNL     1      -1.162   1.486  -1.746  0.00  0.00    +0.109 C 
ATOM     33  C   UNL     1      -1.128  -0.020  -1.745  0.00  0.00    +0.214 C 
ATOM     34  O   UNL     1      -2.036  -0.648  -2.246  0.00  0.00    -0.276 OA
ATOM     35  N   UNL     1      -0.087  -0.670  -1.187  0.00  0.00    -0.286 N 
ATOM     36  H   UNL     1       0.671  -0.170  -0.846  0.00  0.00    +0.155 HD
ENDBRANCH  26  35
ENDBRANCH  22  29
ENDBRANCH  21  23
ENDBRANCH  20  21
ENDBRANCH   1  20
TORSDOF 6
