REMARK  Name = ZINC33250888
REMARK  12 active torsions:
REMARK  status: ('A' for Active; 'I' for Inactive)
REMARK    1  A    between atoms: C_1  and  C_2
REMARK    2  A    between atoms: C_5  and  C_38
REMARK    3  A    between atoms: C_6  and  C_8
REMARK    4  A    between atoms: C_9  and  C_10
REMARK    5  A    between atoms: C_11  and  S_16
REMARK    6  A    between atoms: C_12  and  C_15
REMARK    7  A    between atoms: S_16  and  N_19
REMARK    8  A    between atoms: C_23  and  C_26
REMARK    9  A    between atoms: N_28  and  C_29
REMARK   10  A    between atoms: C_31  and  C_37
REMARK   11  A    between atoms: C_34  and  O_35
REMARK   12  A    between atoms: O_35  and  C_36
REMARK                            x       y       z     vdW  Elec       q    Type
REMARK                         _______ _______ _______ _____ _____    ______ ____
ROOT
ATOM      1  S   UNL     1      -2.684  -3.678  -0.033  0.00  0.00    +0.066 S 
ATOM      2  O   UNL     1      -3.267  -4.851  -0.586  0.00  0.00    -0.153 OA
ATOM      3  O   UNL     1      -1.532  -3.064  -0.592  0.00  0.00    -0.153 OA
ENDROOT
BRANCH   1   5
ATOM      4  C   UNL     1      -3.802  -1.085   0.000  0.00  0.00    +0.187 A 
ATOM      5  C   UNL     1      -3.948  -2.451  -0.009  0.00  0.00    +0.174 A 
ATOM      6  C   UNL     1      -5.343  -2.641   0.009  0.00  0.00    +0.107 A 
ATOM      7  N   UNL     1      -5.882  -1.454   0.017  0.00  0.00    -0.081 NA
ATOM      8  O   UNL     1      -5.050  -0.578   0.013  0.00  0.00    -0.353 OA
ATOM      9  C   UNL     1      -6.072  -3.960   0.012  0.00  0.00    +0.071 C 
BRANCH   4  11
ATOM     10  C   UNL     1      -2.566   1.014  -0.004  0.00  0.00    +0.012 C 
ATOM     11  C   UNL     1      -2.545  -0.332  -0.009  0.00  0.00    +0.051 C 
BRANCH  10  17
ATOM     12  C   UNL     1       2.420   1.082  -0.062  0.00  0.00    +0.044 C 
ATOM     13  C   UNL     1       1.101   1.809  -0.041  0.00  0.00    -0.050 A 
ATOM     14  C   UNL     1       1.075   3.193  -0.036  0.00  0.00    +0.003 A 
ATOM     15  C   UNL     1      -0.132   3.869  -0.017  0.00  0.00    +0.004 A 
ATOM     16  C   UNL     1      -1.320   3.168  -0.003  0.00  0.00    -0.043 A 
ATOM     17  C   UNL     1      -1.302   1.771  -0.013  0.00  0.00    -0.022 A 
ATOM     18  C   UNL     1      -0.078   1.094  -0.027  0.00  0.00    +0.011 A 
ATOM     19  C   UNL     1      -2.633   3.907   0.018  0.00  0.00    +0.044 C 
ENDBRANCH  10  17
ENDBRANCH   4  11
ENDBRANCH   1   5
BRANCH   1  20
ATOM     20  N   UNL     1      -2.315  -4.032   1.543  0.00  0.00    -0.176 NA
ATOM     21  C   UNL     1      -1.262  -3.288   2.249  0.00  0.00    +0.109 C 
ATOM     22  C   UNL     1      -1.850  -2.732   3.555  0.00  0.00    +0.018 C 
ATOM     23  C   UNL     1      -2.460  -3.880   4.363  0.00  0.00    +0.015 C 
ATOM     24  C   UNL     1      -3.593  -4.525   3.562  0.00  0.00    +0.091 C 
ATOM     25  C   UNL     1      -3.028  -5.098   2.258  0.00  0.00    +0.122 C 
BRANCH  24  26
ATOM     26  C   UNL     1      -4.213  -5.634   4.372  0.00  0.00    +0.222 C 
ATOM     27  O   UNL     1      -4.206  -6.771   3.949  0.00  0.00    -0.275 OA
ATOM     28  N   UNL     1      -4.777  -5.362   5.566  0.00  0.00    -0.282 N 
ATOM     29  H   UNL     1      -4.704  -4.351   5.991  0.00  0.00    +0.155 HD
BRANCH  28  30
ATOM     30  C   UNL     1      -5.455  -6.369   6.265  0.00  0.00    +0.076 A 
ATOM     31  C   UNL     1      -5.999  -7.447   5.581  0.00  0.00    +0.030 A 
ATOM     32  C   UNL     1      -6.662  -8.441   6.274  0.00  0.00    -0.048 A 
ATOM     33  C   UNL     1      -6.796  -8.360   7.648  0.00  0.00    +0.007 A 
ATOM     34  C   UNL     1      -6.262  -7.287   8.336  0.00  0.00    +0.048 A 
ATOM     35  C   UNL     1      -5.590  -6.289   7.649  0.00  0.00    +0.141 A 
ATOM     36  C   UNL     1      -7.248  -9.614   5.529  0.00  0.00    +0.044 C 
BRANCH  35  37
ATOM     37  O   UNL     1      -5.063  -5.232   8.325  0.00  0.00    -0.493 OA
ATOM     38  C   UNL     1      -5.240  -5.216   9.743  0.00  0.00    +0.277 C 
ENDBRANCH  35  37
ENDBRANCH  28  30
ENDBRANCH  24  26
ENDBRANCH   1  20
TORSDOF 7
