REMARK  Name = ZINC22159403
REMARK  6 active torsions:
REMARK  status: ('A' for Active; 'I' for Inactive)
REMARK    1  A    between atoms: C_1  and  N_2
REMARK    2  A    between atoms: C_4  and  S_11
REMARK    3  A    between atoms: C_6  and  C_7
REMARK    4  A    between atoms: N_9  and  N_10
REMARK    5  A    between atoms: S_11  and  N_14
REMARK    6  A    between atoms: N_18  and  C_21
REMARK                            x       y       z     vdW  Elec       q    Type
REMARK                         _______ _______ _______ _____ _____    ______ ____
ROOT
ATOM      1  C   UNL     1       2.011  -1.711   0.032  0.00  0.00    +0.149 C 
ATOM      2  N   UNL     1       1.382  -0.388   0.006  0.00  0.00    -0.344 N 
ATOM      3  C   UNL     1       0.049  -0.147   0.018  0.00  0.00    +0.114 A 
ATOM      4  C   UNL     1      -0.154   1.192  -0.015  0.00  0.00    +0.124 A 
ATOM      5  C   UNL     1       1.097   1.815  -0.049  0.00  0.00    +0.061 A 
ATOM      6  C   UNL     1       2.047   0.817  -0.035  0.00  0.00    +0.107 A 
ENDROOT
BRANCH   6   7
ATOM      7  C   UNL     1       3.502   1.003  -0.061  0.00  0.00    +0.274 C 
ATOM      8  O   UNL     1       4.238   0.038  -0.150  0.00  0.00    -0.267 OA
ATOM      9  N   UNL     1       4.024   2.244   0.014  0.00  0.00    -0.248 N 
ATOM     10  H   UNL     1       3.364   3.108   0.179  0.00  0.00    +0.169 HD
BRANCH   9  11
ATOM     11  N   UNL     1       5.371   2.427  -0.115  0.00  0.00    -0.254 NA
ATOM     12  H   UNL     1       5.605   3.498  -0.027  0.00  0.00    +0.140 HD
ATOM     13  H   UNL     1       5.894   1.871   0.676  0.00  0.00    +0.140 HD
ENDBRANCH   9  11
ENDBRANCH   6   7
BRANCH   4  14
ATOM     14  S   UNL     1      -1.718   2.004  -0.022  0.00  0.00    +0.062 S 
ATOM     15  O   UNL     1      -1.510   3.282  -0.608  0.00  0.00    -0.153 OA
ATOM     16  O   UNL     1      -2.657   1.073  -0.540  0.00  0.00    -0.153 OA
BRANCH  14  17
ATOM     17  N   UNL     1      -2.138   2.271   1.557  0.00  0.00    -0.178 NA
ATOM     18  C   UNL     1      -2.898   1.294   2.286  0.00  0.00    +0.107 C 
ATOM     19  C   UNL     1      -4.435   1.433   2.227  0.00  0.00    -0.002 C 
ATOM     20  C   UNL     1      -4.827   2.927   2.342  0.00  0.00    -0.078 C 
ATOM     21  N   UNL     1      -3.970   3.597   3.286  0.00  0.00    +0.379 N 
ATOM     22  C   UNL     1      -2.967   4.304   2.491  0.00  0.00    -0.062 C 
ATOM     23  C   UNL     1      -1.736   3.541   2.251  0.00  0.00    +0.091 C 
ATOM     24  C   UNL     1      -4.735   4.533   4.121  0.00  0.00    -0.096 C 
ATOM     25  H   UNL     1      -3.504   2.867   3.965  0.00  0.00    -0.082 HD
ENDBRANCH  14  17
ENDBRANCH   4  14
TORSDOF 4
