REMARK  Name = ZINC18935168
REMARK  14 active torsions:
REMARK  status: ('A' for Active; 'I' for Inactive)
REMARK    1  A    between atoms: C_1  and  C_2
REMARK    2  A    between atoms: C_2  and  C_3
REMARK    3  A    between atoms: C_3  and  C_4
REMARK    4  A    between atoms: C_4  and  N_5
REMARK    5  A    between atoms: N_5  and  C_6
REMARK    6  A    between atoms: C_7  and  N_19
REMARK    7  A    between atoms: N_8  and  C_15
REMARK    8  A    between atoms: C_15  and  C_16
REMARK    9  A    between atoms: C_16  and  C_17
REMARK   10  A    between atoms: C_16  and  C_18
REMARK   11  A    between atoms: C_20  and  C_22
REMARK   12  A    between atoms: C_22  and  N_70
REMARK   13  A    between atoms: C_23  and  N_70
REMARK   14  A    between atoms: C_24  and  N_70
REMARK                            x       y       z     vdW  Elec       q    Type
REMARK                         _______ _______ _______ _____ _____    ______ ____
ROOT
ATOM      1  N   UNL     1      -0.007  -0.048   0.598  0.00  0.00    -0.266 N 
ATOM      2  C   UNL     1      -1.184  -0.707   0.566  0.00  0.00    +0.203 C 
ATOM      3  O   UNL     1      -2.221  -0.107   0.756  0.00  0.00    -0.277 OA
ENDROOT
BRANCH   1   4
ATOM      4  C   UNL     1       0.026   1.321   0.938  0.00  0.00    +0.140 A 
ATOM      5  C   UNL     1       0.497   2.256   0.039  0.00  0.00    +0.127 A 
ATOM      6  N   UNL     1       0.512   3.584   0.397  0.00  0.00    -0.280 N 
ATOM      7  C   UNL     1       0.082   3.966   1.613  0.00  0.00    +0.331 A 
ATOM      8  O   UNL     1       0.108   5.144   1.912  0.00  0.00    -0.246 OA
ATOM      9  N   UNL     1      -0.375   3.068   2.504  0.00  0.00    -0.273 N 
ATOM     10  H   UNL     1      -0.689   3.378   3.401  0.00  0.00    +0.173 HD
ATOM     11  C   UNL     1      -0.416   1.756   2.201  0.00  0.00    +0.277 A 
ATOM     12  O   UNL     1      -0.833   0.951   3.016  0.00  0.00    -0.266 OA
BRANCH   5  13
ATOM     13  N   UNL     1       0.941   1.865  -1.202  0.00  0.00    -0.343 N 
ATOM     14  H   UNL     1       0.856   0.939  -1.478  0.00  0.00    +0.144 HD
ATOM     15  H   UNL     1       1.338   2.515  -1.802  0.00  0.00    +0.144 HD
ENDBRANCH   5  13
BRANCH   6  16
ATOM     16  C   UNL     1       1.004   4.587  -0.550  0.00  0.00    +0.131 C 
BRANCH  16  17
ATOM     17  C   UNL     1       2.510   4.775  -0.357  0.00  0.00    +0.003 C 
ATOM     18  C   UNL     1       3.237   3.480  -0.726  0.00  0.00    +0.009 C 
ATOM     19  C   UNL     1       3.003   5.910  -1.257  0.00  0.00    +0.009 C 
ENDBRANCH  16  17
ENDBRANCH   6  16
ENDBRANCH   1   4
BRANCH   1  20
ATOM     20  C   UNL     1       1.237  -0.754   0.281  0.00  0.00    +0.114 C 
BRANCH  20  21
ATOM     21  C   UNL     1       1.769  -1.441   1.541  0.00  0.00    +0.019 C 
BRANCH  21  23
ATOM     22  C   UNL     1       3.600  -2.865   2.469  0.00  0.00    +0.004 C 
ATOM     23  C   UNL     1       3.068  -2.179   1.210  0.00  0.00    -0.002 C 
ENDBRANCH  21  23
ENDBRANCH  20  21
ENDBRANCH   1  20
BRANCH   2  24
ATOM     24  C   UNL     1      -1.211  -2.189   0.294  0.00  0.00    +0.020 C 
BRANCH  24  26
ATOM     25  C   UNL     1      -3.299  -2.296  -0.927  0.00  0.00    -0.095 C 
ATOM     26  N   UNL     1      -2.614  -2.653   0.333  0.00  0.00    +0.388 N 
ATOM     27  H   UNL     1      -3.095  -2.194   1.116  0.00  0.00    -0.081 HD
BRANCH  26  28
ATOM     28  C   UNL     1      -2.657  -4.116   0.535  0.00  0.00    -0.037 C 
ATOM     29  C   UNL     1      -1.982  -4.833  -0.634  0.00  0.00    -0.010 C 
ATOM     30  C   UNL     1      -2.241  -6.337  -0.492  0.00  0.00    +0.003 C 
ATOM     31  C   UNL     1      -3.720  -6.600  -0.767  0.00  0.00    +0.035 C 
ATOM     32  C   UNL     1      -4.583  -5.687   0.064  0.00  0.00    -0.046 A 
ATOM     33  C   UNL     1      -4.096  -4.544   0.658  0.00  0.00    -0.058 A 
ATOM     34  C   UNL     1      -4.947  -3.742   1.407  0.00  0.00    +0.002 A 
ATOM     35  C   UNL     1      -6.275  -4.082   1.562  0.00  0.00    +0.000 A 
ATOM     36  C   UNL     1      -6.763  -5.230   0.968  0.00  0.00    +0.000 A 
ATOM     37  C   UNL     1      -5.920  -6.028   0.223  0.00  0.00    +0.004 A 
ENDBRANCH  26  28
ENDBRANCH  24  26
ENDBRANCH   2  24
TORSDOF 10
