REMARK  Name = ZINC50139750
REMARK  11 active torsions:
REMARK  status: ('A' for Active; 'I' for Inactive)
REMARK    1  A    between atoms: C_1  and  N_2
REMARK    2  A    between atoms: N_2  and  S_3
REMARK    3  A    between atoms: S_3  and  C_6
REMARK    4  A    between atoms: C_6  and  C_7
REMARK    5  A    between atoms: C_11  and  C_13
REMARK    6  A    between atoms: C_13  and  N_14
REMARK    7  A    between atoms: N_17  and  C_18
REMARK    8  A    between atoms: C_18  and  C_19
REMARK    9  A    between atoms: C_19  and  C_20
REMARK   10  A    between atoms: C_20  and  N_21
REMARK   11  A    between atoms: N_21  and  C_22
REMARK                            x       y       z     vdW  Elec       q    Type
REMARK                         _______ _______ _______ _____ _____    ______ ____
ROOT
ATOM      1  N   UNL     1       4.238  -0.801   6.066  0.00  0.00    -0.295 N 
ATOM      2  C   UNL     1       5.339  -0.297   6.657  0.00  0.00    +0.300 C 
ATOM      3  O   UNL     1       5.231   0.421   7.632  0.00  0.00    -0.253 OA
ATOM      4  N   UNL     1       6.561  -0.587   6.166  0.00  0.00    -0.299 N 
ATOM      5  H   UNL     1       4.325  -1.374   5.287  0.00  0.00    +0.151 HD
ATOM      6  H   UNL     1       6.647  -1.159   5.388  0.00  0.00    +0.150 HD
ENDROOT
BRANCH   1   7
ATOM      7  C   UNL     1       2.911  -0.486   6.598  0.00  0.00    +0.141 C 
BRANCH   7  12
ATOM      8  C   UNL     1       0.352  -1.147   3.903  0.00  0.00    -0.025 A 
ATOM      9  C   UNL     1      -0.073  -2.421   4.232  0.00  0.00    +0.005 A 
ATOM     10  C   UNL     1       0.468  -3.069   5.327  0.00  0.00    +0.001 A 
ATOM     11  C   UNL     1       1.434  -2.442   6.093  0.00  0.00    +0.005 A 
ATOM     12  C   UNL     1       1.859  -1.169   5.763  0.00  0.00    -0.030 A 
ATOM     13  C   UNL     1       1.321  -0.523   4.665  0.00  0.00    +0.010 A 
BRANCH   8  14
ATOM     14  C   UNL     1      -0.238  -0.442   2.709  0.00  0.00    +0.220 C 
BRANCH  14  15
ATOM     15  S   UNL     1       0.742  -0.829   1.233  0.00  0.00    +0.033 S 
ATOM     16  O   UNL     1       0.592  -2.200   0.891  0.00  0.00    -0.158 OA
ATOM     17  O   UNL     1       2.033  -0.245   1.335  0.00  0.00    -0.158 OA
BRANCH  15  19
ATOM     18  C   UNL     1      -0.018   1.461   0.010  0.00  0.00    +0.127 C 
ATOM     19  N   UNL     1       0.002  -0.004   0.002  0.00  0.00    -0.197 NA
ATOM     20  H   UNL     1      -0.418  -0.491  -0.724  0.00  0.00    +0.147 HD
ENDBRANCH  15  19
ENDBRANCH  14  15
ENDBRANCH   8  14
ENDBRANCH   7  12
ENDBRANCH   1   7
BRANCH   4  21
ATOM     21  C   UNL     1       7.757  -0.038   6.809  0.00  0.00    +0.104 C 
BRANCH  21  22
ATOM     22  C   UNL     1       9.003  -0.518   6.061  0.00  0.00    -0.000 C 
BRANCH  22  23
ATOM     23  C   UNL     1      10.253   0.055   6.732  0.00  0.00    -0.081 C 
BRANCH  23  24
ATOM     24  N   UNL     1      11.449  -0.406   6.014  0.00  0.00    +0.381 N 
ATOM     25  H   UNL     1      11.487  -1.414   6.037  0.00  0.00    -0.086 HD
ATOM     26  H   UNL     1      11.408  -0.092   5.056  0.00  0.00    -0.086 HD
BRANCH  24  27
ATOM     27  C   UNL     1      12.649   0.145   6.659  0.00  0.00    -0.072 C 
ATOM     28  C   UNL     1      12.652   1.668   6.515  0.00  0.00    -0.016 C 
ATOM     29  C   UNL     1      13.902   2.241   7.186  0.00  0.00    -0.002 C 
ATOM     30  C   UNL     1      15.150   1.663   6.517  0.00  0.00    -0.000 C 
ATOM     31  C   UNL     1      15.147   0.140   6.660  0.00  0.00    -0.002 C 
ATOM     32  C   UNL     1      13.898  -0.433   5.989  0.00  0.00    -0.016 C 
ENDBRANCH  24  27
ENDBRANCH  23  24
ENDBRANCH  22  23
ENDBRANCH  21  22
ENDBRANCH   4  21
TORSDOF 10
