REMARK  Name = ZINC37952023
REMARK  7 active torsions:
REMARK  status: ('A' for Active; 'I' for Inactive)
REMARK    1  A    between atoms: C_1  and  C_2
REMARK    2  A    between atoms: C_2  and  C_3
REMARK    3  A    between atoms: C_3  and  C_4
REMARK    4  A    between atoms: C_3  and  C_11
REMARK    5  A    between atoms: C_3  and  N_14
REMARK    6  A    between atoms: N_14  and  C_15
REMARK    7  A    between atoms: C_15  and  C_16
REMARK                            x       y       z     vdW  Elec       q    Type
REMARK                         _______ _______ _______ _____ _____    ______ ____
ROOT
ATOM      1  C   UNL     1      -1.433  -0.534   0.013  0.00  0.00    +0.036 C 
ENDROOT
BRANCH   1   2
ATOM      2  C   UNL     1      -2.125  -0.137  -1.266  0.00  0.00    -0.048 A 
ATOM      3  C   UNL     1      -3.258   0.653  -1.223  0.00  0.00    +0.003 A 
ATOM      4  C   UNL     1      -3.893   1.017  -2.396  0.00  0.00    +0.002 A 
ATOM      5  C   UNL     1      -3.395   0.591  -3.612  0.00  0.00    +0.020 A 
ATOM      6  C   UNL     1      -2.261  -0.200  -3.656  0.00  0.00    +0.041 A 
ATOM      7  C   UNL     1      -1.622  -0.559  -2.482  0.00  0.00    +0.022 A 
ATOM      8 CL   UNL     1      -1.635  -0.736  -5.184  0.00  0.00    -0.084 Cl
ENDBRANCH   1   2
BRANCH   1   9
ATOM      9  C   UNL     1      -1.414  -2.036   0.129  0.00  0.00    +0.204 C 
ATOM     10  O   UNL     1      -0.445  -2.661  -0.249  0.00  0.00    -0.277 OA
ATOM     11  N   UNL     1      -2.472  -2.686   0.651  0.00  0.00    -0.330 N 
ATOM     12  H   UNL     1      -3.247  -2.186   0.953  0.00  0.00    +0.145 HD
ATOM     13  H   UNL     1      -2.460  -3.653   0.726  0.00  0.00    +0.145 HD
ENDBRANCH   1   9
BRANCH   1  14
ATOM     14  N   UNL     1      -2.157   0.036   1.157  0.00  0.00    +0.394 N 
ATOM     15  H   UNL     1      -2.170   1.042   1.080  0.00  0.00    -0.083 HD
ATOM     16  H   UNL     1      -3.103  -0.313   1.165  0.00  0.00    -0.083 HD
BRANCH  14  17
ATOM     17  C   UNL     1      -1.483  -0.350   2.404  0.00  0.00    -0.037 C 
BRANCH  17  18
ATOM     18  C   UNL     1      -2.225   0.234   3.578  0.00  0.00    -0.027 A 
ATOM     19  C   UNL     1      -3.238  -0.303   4.301  0.00  0.00    +0.009 A 
ATOM     20  C   UNL     1      -3.773   0.423   5.349  0.00  0.00    +0.008 A 
ATOM     21  C   UNL     1      -3.268   1.651   5.623  0.00  0.00    +0.045 A 
ATOM     22  S   UNL     1      -1.993   1.810   4.383  0.00  0.00    -0.104 S 
ENDBRANCH  17  18
ENDBRANCH  14  17
ENDBRANCH   1  14
BRANCH   1  24
ATOM     23  C   UNL     1      -0.019   1.526   0.010  0.00  0.00    +0.003 C 
ATOM     24  C   UNL     1       0.002  -0.004   0.002  0.00  0.00    -0.002 C 
ENDBRANCH   1  24
TORSDOF 6
