REMARK  Name = ZINC08718876
REMARK  8 active torsions:
REMARK  status: ('A' for Active; 'I' for Inactive)
REMARK    1  A    between atoms: C_1  and  C_2
REMARK    2  A    between atoms: C_7  and  N_8
REMARK    3  A    between atoms: C_9  and  C_11
REMARK    4  A    between atoms: C_11  and  N_41
REMARK    5  A    between atoms: C_12  and  N_41
REMARK    6  A    between atoms: C_13  and  C_15
REMARK    7  A    between atoms: C_13  and  C_16
REMARK    8  A    between atoms: C_13  and  N_41
REMARK                            x       y       z     vdW  Elec       q    Type
REMARK                         _______ _______ _______ _____ _____    ______ ____
ROOT
ATOM      1  C   UNL     1       2.058  -0.117  -1.261  0.00  0.00    -0.094 C 
ATOM      2  N   UNL     1       1.407  -0.462   0.020  0.00  0.00    +0.391 N 
ATOM      3  H   UNL     1       1.907   0.007   0.785  0.00  0.00    -0.080 HD
ENDROOT
BRANCH   2   4
ATOM      4  C   UNL     1       1.461  -1.923   0.236  0.00  0.00    +0.017 C 
ATOM      5  C   UNL     1       0.904  -2.666  -0.980  0.00  0.00    -0.004 C 
BRANCH   4   6
ATOM      6  C   UNL     1       2.895  -2.329   0.459  0.00  0.00    +0.207 C 
ATOM      7  O   UNL     1       3.774  -1.495   0.423  0.00  0.00    -0.277 OA
ATOM      8  N   UNL     1       3.201  -3.620   0.698  0.00  0.00    -0.242 N 
ATOM      9  C   UNL     1       4.484  -3.983   0.897  0.00  0.00    +0.303 C 
ATOM     10  O   UNL     1       5.364  -3.146   0.861  0.00  0.00    -0.253 OA
ATOM     11  N   UNL     1       4.790  -5.274   1.136  0.00  0.00    -0.313 N 
ATOM     12  H   UNL     1       2.498  -4.288   0.726  0.00  0.00    +0.159 HD
ATOM     13  H   UNL     1       4.087  -5.941   1.164  0.00  0.00    +0.146 HD
ATOM     14  H   UNL     1       5.713  -5.535   1.279  0.00  0.00    +0.146 HD
ENDBRANCH   4   6
ENDBRANCH   2   4
BRANCH   2  15
ATOM     15  C   UNL     1       0.002  -0.004   0.013  0.00  0.00    +0.020 C 
BRANCH  15  17
ATOM     16  N   UNL     1      -1.195   2.161   0.019  0.00  0.00    -0.287 N 
ATOM     17  C   UNL     1      -0.018   1.502   0.013  0.00  0.00    +0.201 C 
ATOM     18  O   UNL     1       1.024   2.123   0.003  0.00  0.00    -0.278 OA
ATOM     19  H   UNL     1      -2.027   1.668  -0.054  0.00  0.00    +0.155 HD
BRANCH  16  26
ATOM     20  C   UNL     1      -3.440   3.561  -1.026  0.00  0.00    +0.046 C 
ATOM     21  C   UNL     1      -2.292   4.278  -0.364  0.00  0.00    -0.028 A 
ATOM     22  C   UNL     1      -2.312   5.654  -0.246  0.00  0.00    +0.020 A 
ATOM     23  C   UNL     1      -1.256   6.314   0.356  0.00  0.00    +0.018 A 
ATOM     24  C   UNL     1      -0.179   5.596   0.848  0.00  0.00    +0.017 A 
ATOM     25  C   UNL     1      -0.156   4.220   0.738  0.00  0.00    +0.024 A 
ATOM     26  C   UNL     1      -1.215   3.556   0.133  0.00  0.00    +0.036 A 
ATOM     27 BR   UNL     1      -1.284   8.198   0.508  0.00  0.00    -0.050 Br
ENDBRANCH  16  26
ENDBRANCH  15  17
ENDBRANCH   2  15
TORSDOF 5
