REMARK  Name = ZINC12498410
REMARK  11 active torsions:
REMARK  status: ('A' for Active; 'I' for Inactive)
REMARK    1  A    between atoms: C_1  and  N_56
REMARK    2  A    between atoms: C_2  and  N_56
REMARK    3  A    between atoms: C_3  and  C_4
REMARK    4  A    between atoms: C_3  and  N_56
REMARK    5  A    between atoms: C_4  and  C_5
REMARK    6  A    between atoms: C_5  and  N_6
REMARK    7  A    between atoms: C_12  and  N_16
REMARK    8  A    between atoms: C_19  and  C_21
REMARK    9  A    between atoms: C_21  and  C_22
REMARK   10  A    between atoms: C_22  and  S_23
REMARK   11  A    between atoms: S_23  and  C_26
REMARK                            x       y       z     vdW  Elec       q    Type
REMARK                         _______ _______ _______ _____ _____    ______ ____
ROOT
ATOM      1  N   UNL     1       6.046   1.775  -0.046  0.00  0.00    -0.250 N 
ATOM      2  C   UNL     1       4.733   1.335  -0.036  0.00  0.00    +0.168 A 
ATOM      3  N   UNL     1       3.627   2.042  -0.022  0.00  0.00    -0.224 NA
ATOM      4  C   UNL     1       2.402   1.474  -0.013  0.00  0.00    +0.080 A 
ATOM      5  C   UNL     1       1.142   2.115   0.003  0.00  0.00    +0.031 A 
ATOM      6  C   UNL     1      -0.017   1.383   0.010  0.00  0.00    +0.035 A 
ATOM      7  C   UNL     1       0.002  -0.004   0.002  0.00  0.00    +0.127 A 
ATOM      8  C   UNL     1       1.217  -0.665  -0.013  0.00  0.00    +0.050 A 
ATOM      9  C   UNL     1       2.382   0.060  -0.021  0.00  0.00    +0.043 A 
ATOM     10  S   UNL     1       4.113  -0.342  -0.039  0.00  0.00    -0.052 S 
ATOM     11  C   UNL     1       7.056   0.883  -0.060  0.00  0.00    +0.223 C 
ATOM     12  O   UNL     1       6.815  -0.305  -0.064  0.00  0.00    -0.275 OA
ENDROOT
BRANCH   7  13
ATOM     13  N   UNL     1      -1.265  -0.769   0.011  0.00  0.00    +0.056 N 
ATOM     14  O   UNL     1      -2.332  -0.181   0.024  0.00  0.00    -0.126 OA
ATOM     15  O   UNL     1      -1.242  -1.987   0.004  0.00  0.00    -0.126 OA
ENDBRANCH   7  13
BRANCH   1  16
ATOM     16  C   UNL     1       6.337   3.211  -0.041  0.00  0.00    +0.114 C 
BRANCH  16  17
ATOM     17  C   UNL     1       6.451   3.703   1.404  0.00  0.00    +0.001 C 
BRANCH  17  18
ATOM     18  C   UNL     1       6.755   5.203   1.409  0.00  0.00    -0.078 C 
BRANCH  18  21
ATOM     19  C   UNL     1       8.030   5.080   3.464  0.00  0.00    -0.097 C 
ATOM     20  C   UNL     1       6.919   7.142   2.849  0.00  0.00    -0.097 C 
ATOM     21  N   UNL     1       6.841   5.666   2.810  0.00  0.00    +0.376 N 
ATOM     22  H   UNL     1       6.000   5.363   3.314  0.00  0.00    -0.083 HD
ENDBRANCH  18  21
ENDBRANCH  17  18
ENDBRANCH  16  17
ENDBRANCH   1  16
BRANCH  11  23
ATOM     23  C   UNL     1       8.485   1.363  -0.070  0.00  0.00    +0.119 C 
BRANCH  23  24
ATOM     24  C   UNL     1       9.427   0.157  -0.085  0.00  0.00    +0.181 C 
BRANCH  24  25
ATOM     25  S   UNL     1      11.147   0.735  -0.098  0.00  0.00    -0.003 S 
ATOM     26  O   UNL     1      11.439   1.376  -1.332  0.00  0.00    -0.169 OA
ATOM     27  O   UNL     1      11.461   1.363   1.137  0.00  0.00    -0.169 OA
BRANCH  25  28
ATOM     28  C   UNL     1      12.118  -0.736  -0.115  0.00  0.00    +0.088 A 
ATOM     29  C   UNL     1      12.514  -1.315   1.076  0.00  0.00    +0.028 A 
ATOM     30  C   UNL     1      13.271  -2.472   1.063  0.00  0.00    +0.022 A 
ATOM     31  C   UNL     1      13.642  -3.043  -0.141  0.00  0.00    +0.041 A 
ATOM     32  C   UNL     1      13.249  -2.459  -1.333  0.00  0.00    +0.022 A 
ATOM     33  C   UNL     1      12.488  -1.306  -1.319  0.00  0.00    +0.028 A 
ATOM     34 CL   UNL     1      14.598  -4.492  -0.158  0.00  0.00    -0.084 Cl
ENDBRANCH  25  28
ENDBRANCH  24  25
ENDBRANCH  23  24
ENDBRANCH  11  23
TORSDOF 9
