REMARK  Name = ZINC64743403
REMARK  5 active torsions:
REMARK  status: ('A' for Active; 'I' for Inactive)
REMARK    1  A    between atoms: C_3  and  C_6
REMARK    2  A    between atoms: C_6  and  C_7
REMARK    3  A    between atoms: C_6  and  N_24
REMARK    4  A    between atoms: C_7  and  N_8
REMARK    5  A    between atoms: C_9  and  C_11
REMARK                            x       y       z     vdW  Elec       q    Type
REMARK                         _______ _______ _______ _____ _____    ______ ____
ROOT
ATOM      1  N   UNL     1       5.484   0.048   1.542  0.00  0.00    -0.312 N 
ATOM      2  C   UNL     1       6.097  -0.280   2.696  0.00  0.00    +0.249 C 
ATOM      3  O   UNL     1       5.485  -0.227   3.746  0.00  0.00    -0.270 OA
ATOM      4  H   UNL     1       5.990   0.071   0.714  0.00  0.00    +0.149 HD
ENDROOT
BRANCH   2   5
ATOM      5  C   UNL     1       7.507  -0.703   2.688  0.00  0.00    +0.102 A 
ATOM      6  C   UNL     1       8.121  -1.162   3.845  0.00  0.00    +0.031 A 
ATOM      7  C   UNL     1       9.475  -1.558   3.787  0.00  0.00    +0.037 A 
ATOM      8  C   UNL     1      10.179  -1.496   2.596  0.00  0.00    +0.030 A 
ATOM      9  N   UNL     1       9.585  -1.044   1.473  0.00  0.00    -0.325 N 
ATOM     10  H   UNL     1      10.100  -1.003   0.652  0.00  0.00    +0.169 HD
ATOM     11  C   UNL     1       8.299  -0.655   1.456  0.00  0.00    +0.261 A 
ATOM     12  O   UNL     1       7.795  -0.260   0.420  0.00  0.00    -0.267 OA
ATOM     13  C   UNL     1      11.618  -1.934   2.511  0.00  0.00    +0.054 C 
ATOM     14  C   UNL     1      12.299  -1.872   3.876  0.00  0.00    +0.014 C 
ATOM     15  C   UNL     1      11.486  -2.697   4.883  0.00  0.00    +0.080 C 
ATOM     16  C   UNL     1      10.131  -2.034   5.016  0.00  0.00    +0.165 C 
ATOM     17  O   UNL     1       9.603  -1.901   6.100  0.00  0.00    -0.292 OA
ENDBRANCH   2   5
BRANCH   1  18
ATOM     18  C   UNL     1       4.055   0.368   1.536  0.00  0.00    +0.097 C 
BRANCH  18  19
ATOM     19  C   UNL     1       3.587   0.584   0.096  0.00  0.00    +0.016 C 
BRANCH  19  20
ATOM     20  N   UNL     1       2.131   0.781   0.078  0.00  0.00    +0.387 N 
ATOM     21  C   UNL     1       1.637   0.828  -1.322  0.00  0.00    -0.078 C 
ATOM     22  C   UNL     1       0.136   0.470  -1.180  0.00  0.00    -0.020 C 
ATOM     23  C   UNL     1       0.139  -0.600  -0.065  0.00  0.00    -0.020 C 
ATOM     24  C   UNL     1       1.452  -0.373   0.707  0.00  0.00    -0.078 C 
ATOM     25  H   UNL     1       1.889   1.633   0.562  0.00  0.00    -0.081 HD
ENDBRANCH  19  20
BRANCH  19  28
ATOM     26  C   UNL     1       5.636   3.147  -1.582  0.00  0.00    +0.041 A 
ATOM     27  C   UNL     1       5.334   1.796  -1.293  0.00  0.00    +0.043 A 
ATOM     28  C   UNL     1       4.265   1.802  -0.476  0.00  0.00    +0.093 A 
ATOM     29  O   UNL     1       3.905   3.077  -0.257  0.00  0.00    -0.469 OA
ATOM     30  C   UNL     1       4.733   3.897  -0.925  0.00  0.00    +0.195 A 
ENDBRANCH  19  28
ENDBRANCH  18  19
ENDBRANCH   1  18
TORSDOF 5
