REMARK  Name = ZINC20353253
REMARK  9 active torsions:
REMARK  status: ('A' for Active; 'I' for Inactive)
REMARK    1  A    between atoms: C_1  and  C_2
REMARK    2  A    between atoms: C_2  and  C_3
REMARK    3  A    between atoms: C_3  and  C_5
REMARK    4  A    between atoms: C_3  and  C_6
REMARK    5  A    between atoms: C_13  and  C_15
REMARK    6  A    between atoms: C_18  and  N_21
REMARK    7  A    between atoms: N_21  and  C_22
REMARK    8  A    between atoms: C_22  and  N_24
REMARK    9  A    between atoms: C_25  and  C_27
REMARK                            x       y       z     vdW  Elec       q    Type
REMARK                         _______ _______ _______ _____ _____    ______ ____
ROOT
ATOM      1  C   UNL     1      -6.958  -0.519  -0.131  0.00  0.00    +0.037 A 
ATOM      2  C   UNL     1      -7.063   0.874  -0.150  0.00  0.00    +0.015 A 
ATOM      3  C   UNL     1      -5.927   1.650  -0.097  0.00  0.00    +0.024 A 
ATOM      4  C   UNL     1      -4.675   1.048  -0.025  0.00  0.00    +0.033 A 
ATOM      5  C   UNL     1      -4.566  -0.339  -0.012  0.00  0.00    +0.024 A 
ATOM      6  C   UNL     1      -5.699  -1.120  -0.059  0.00  0.00    +0.015 A 
ENDROOT
BRANCH   1  14
ATOM      7  C   UNL     1     -11.447  -4.452  -0.335  0.00  0.00    -0.042 A 
ATOM      8  C   UNL     1     -12.235  -3.311  -0.387  0.00  0.00    +0.007 A 
ATOM      9  C   UNL     1     -11.656  -2.059  -0.367  0.00  0.00    +0.049 A 
ATOM     10  C   UNL     1     -10.277  -1.936  -0.295  0.00  0.00    +0.156 A 
ATOM     11  C   UNL     1      -9.476  -3.088  -0.242  0.00  0.00    +0.110 A 
ATOM     12  C   UNL     1     -10.076  -4.349  -0.262  0.00  0.00    +0.035 A 
ATOM     13  N   UNL     1      -8.187  -2.664  -0.177  0.00  0.00    -0.209 NA
ATOM     14  C   UNL     1      -8.174  -1.354  -0.189  0.00  0.00    +0.228 A 
ATOM     15  O   UNL     1      -9.433  -0.881  -0.254  0.00  0.00    -0.435 OA
BRANCH   7  16
ATOM     16  C   UNL     1     -12.096  -5.811  -0.357  0.00  0.00    +0.016 C 
ATOM     17  C   UNL     1     -12.900  -5.972  -1.649  0.00  0.00    +0.012 C 
BRANCH  16  19
ATOM     18  C   UNL     1     -13.594  -7.372   0.893  0.00  0.00    +0.004 C 
ATOM     19  C   UNL     1     -13.031  -5.950   0.846  0.00  0.00    +0.004 C 
ENDBRANCH  16  19
ENDBRANCH   7  16
ENDBRANCH   1  14
BRANCH   4  20
ATOM     20  N   UNL     1      -3.525   1.837   0.029  0.00  0.00    -0.297 N 
ATOM     21  H   UNL     1      -3.438   2.727  -0.612  0.00  0.00    +0.154 HD
BRANCH  20  22
ATOM     22  C   UNL     1      -2.521   1.509   0.866  0.00  0.00    +0.141 C 
ATOM     23  S   UNL     1      -2.711   0.209   1.964  0.00  0.00    -0.018 S 
BRANCH  22  24
ATOM     24  N   UNL     1      -1.366   2.204   0.838  0.00  0.00    -0.264 N 
ATOM     25  C   UNL     1      -0.362   1.876   1.675  0.00  0.00    +0.250 C 
ATOM     26  O   UNL     1      -0.497   0.954   2.454  0.00  0.00    -0.270 OA
ATOM     27  H   UNL     1      -1.244   3.039   0.133  0.00  0.00    +0.157 HD
BRANCH  25  28
ATOM     28  C   UNL     1       0.906   2.634   1.641  0.00  0.00    +0.038 A 
ATOM     29  C   UNL     1       1.067   3.691   0.742  0.00  0.00    +0.013 A 
ATOM     30  C   UNL     1       2.251   4.398   0.718  0.00  0.00    +0.002 A 
ATOM     31  C   UNL     1       3.283   4.056   1.575  0.00  0.00    +0.015 A 
ATOM     32  C   UNL     1       3.132   3.006   2.464  0.00  0.00    +0.019 A 
ATOM     33  C   UNL     1       1.950   2.293   2.502  0.00  0.00    +0.028 A 
ATOM     34 BR   UNL     1       4.549   2.546   3.630  0.00  0.00    -0.050 Br
ENDBRANCH  25  28
ENDBRANCH  22  24
ENDBRANCH  20  22
ENDBRANCH   4  20
TORSDOF 7
