REMARK  Name = ZINC36637454
REMARK  12 active torsions:
REMARK  status: ('A' for Active; 'I' for Inactive)
REMARK    1  A    between atoms: C_1  and  C_2
REMARK    2  A    between atoms: C_2  and  O_3
REMARK    3  A    between atoms: O_3  and  C_4
REMARK    4  A    between atoms: N_13  and  C_14
REMARK    5  A    between atoms: C_14  and  C_15
REMARK    6  A    between atoms: C_15  and  N_16
REMARK    7  A    between atoms: N_16  and  C_17
REMARK    8  A    between atoms: N_16  and  C_18
REMARK    9  A    between atoms: C_19  and  C_21
REMARK   10  A    between atoms: C_24  and  S_27
REMARK   11  A    between atoms: S_27  and  N_30
REMARK   12  A    between atoms: C_35  and  C_37
REMARK                            x       y       z     vdW  Elec       q    Type
REMARK                         _______ _______ _______ _____ _____    ______ ____
ROOT
ATOM      1  C   UNL     1       0.844   1.888  -1.571  0.00  0.00    +0.147 A 
ATOM      2  C   UNL     1       0.029   1.389  -0.582  0.00  0.00    +0.048 A 
ATOM      3  C   UNL     1      -0.221   0.030  -0.467  0.00  0.00    +0.005 A 
ATOM      4  C   UNL     1       0.362  -0.845  -1.365  0.00  0.00    +0.017 A 
ATOM      5  C   UNL     1       1.177  -0.358  -2.357  0.00  0.00    +0.044 A 
ATOM      6  C   UNL     1       1.452   1.019  -2.512  0.00  0.00    +0.122 A 
ATOM      7  N   UNL     1       2.269   1.341  -3.539  0.00  0.00    -0.221 NA
ATOM      8  C   UNL     1       2.774   0.440  -4.348  0.00  0.00    +0.168 A 
ATOM      9  S   UNL     1       2.108  -1.081  -3.687  0.00  0.00    -0.052 S 
ATOM     10  N   UNL     1       3.617   0.621  -5.432  0.00  0.00    -0.248 N 
ATOM     11  C   UNL     1       4.023   1.861  -5.771  0.00  0.00    +0.252 C 
ATOM     12  O   UNL     1       3.699   2.814  -5.090  0.00  0.00    -0.270 OA
ENDROOT
BRANCH  11  13
ATOM     13  C   UNL     1       4.860   2.061  -6.972  0.00  0.00    +0.037 A 
ATOM     14  C   UNL     1       4.594   1.344  -8.140  0.00  0.00    +0.015 A 
ATOM     15  C   UNL     1       5.380   1.537  -9.258  0.00  0.00    +0.029 A 
ATOM     16  C   UNL     1       6.429   2.438  -9.223  0.00  0.00    +0.106 A 
ATOM     17  C   UNL     1       6.698   3.151  -8.068  0.00  0.00    +0.029 A 
ATOM     18  C   UNL     1       5.917   2.973  -6.946  0.00  0.00    +0.015 A 
BRANCH  16  19
ATOM     19  S   UNL     1       7.428   2.677 -10.655  0.00  0.00    +0.061 S 
ATOM     20  O   UNL     1       8.680   3.170 -10.199  0.00  0.00    -0.153 OA
ATOM     21  O   UNL     1       7.312   1.494 -11.433  0.00  0.00    -0.153 OA
BRANCH  19  22
ATOM     22  N   UNL     1       6.734   3.894 -11.538  0.00  0.00    -0.174 NA
ATOM     23  C   UNL     1       5.827   3.587 -12.652  0.00  0.00    +0.110 C 
ATOM     24  C   UNL     1       6.325   4.311 -13.907  0.00  0.00    +0.017 C 
ATOM     25  C   UNL     1       6.468   5.804 -13.607  0.00  0.00    +0.003 C 
ATOM     26  C   UNL     1       7.498   6.006 -12.493  0.00  0.00    +0.020 C 
ATOM     27  C   UNL     1       7.009   5.302 -11.218  0.00  0.00    +0.077 C 
ATOM     28  C   UNL     1       8.090   5.381 -10.139  0.00  0.00    +0.026 C 
ENDBRANCH  19  22
ENDBRANCH  16  19
ENDBRANCH  11  13
BRANCH   1  29
ATOM     29  O   UNL     1       1.064   3.227  -1.651  0.00  0.00    -0.490 OA
BRANCH  29  31
ATOM     30  C   UNL     1       0.786   5.514  -0.923  0.00  0.00    +0.048 C 
ATOM     31  C   UNL     1       0.423   4.049  -0.674  0.00  0.00    +0.226 C 
ENDBRANCH  29  31
ENDBRANCH   1  29
BRANCH  10  32
ATOM     32  C   UNL     1       4.068  -0.536  -6.210  0.00  0.00    +0.097 C 
BRANCH  32  33
ATOM     33  C   UNL     1       2.916  -1.050  -7.075  0.00  0.00    -0.060 C 
BRANCH  33  34
ATOM     34  N   UNL     1       3.406  -2.113  -7.962  0.00  0.00    +0.377 N 
ATOM     35  C   UNL     1       3.831  -3.266  -7.156  0.00  0.00    -0.097 C 
ATOM     36  C   UNL     1       2.330  -2.524  -8.874  0.00  0.00    -0.097 C 
ATOM     37  H   UNL     1       4.189  -1.770  -8.498  0.00  0.00    -0.083 HD
ENDBRANCH  33  34
ENDBRANCH  32  33
ENDBRANCH  10  32
TORSDOF 8
