REMARK  Name = ZINC40741682
REMARK  10 active torsions:
REMARK  status: ('A' for Active; 'I' for Inactive)
REMARK    1  A    between atoms: C_1  and  C_2
REMARK    2  A    between atoms: C_2  and  O_3
REMARK    3  A    between atoms: O_3  and  C_4
REMARK    4  A    between atoms: C_6  and  C_21
REMARK    5  A    between atoms: C_9  and  O_10
REMARK    6  A    between atoms: O_10  and  C_11
REMARK    7  A    between atoms: C_11  and  C_12
REMARK    8  A    between atoms: C_21  and  N_22
REMARK    9  A    between atoms: N_22  and  C_23
REMARK   10  A    between atoms: C_23  and  C_24
REMARK                            x       y       z     vdW  Elec       q    Type
REMARK                         _______ _______ _______ _____ _____    ______ ____
ROOT
ATOM      1  C   UNL     1      -1.498  -1.849   0.006  0.00  0.00    +0.163 A 
ATOM      2  C   UNL     1      -0.389  -2.680  -0.003  0.00  0.00    +0.051 A 
ATOM      3  C   UNL     1      -0.553  -4.052  -0.009  0.00  0.00    -0.060 A 
ATOM      4  C   UNL     1      -1.822  -4.600  -0.006  0.00  0.00    +0.021 A 
ATOM      5  C   UNL     1      -2.934  -3.777   0.003  0.00  0.00    +0.063 A 
ATOM      6  C   UNL     1      -2.776  -2.400   0.016  0.00  0.00    +0.176 A 
ATOM      7 BR   UNL     1      -4.668  -4.531   0.006  0.00  0.00    -0.046 Br
ENDROOT
BRANCH   1   8
ATOM      8  O   UNL     1      -1.339  -0.499   0.012  0.00  0.00    -0.489 OA
BRANCH   8  10
ATOM      9  C   UNL     1      -0.019   1.526   0.010  0.00  0.00    +0.048 C 
ATOM     10  C   UNL     1       0.002  -0.004   0.002  0.00  0.00    +0.226 C 
ENDBRANCH   8  10
ENDBRANCH   1   8
BRANCH   6  11
ATOM     11  O   UNL     1      -3.868  -1.589   0.030  0.00  0.00    -0.483 OA
BRANCH  11  12
ATOM     12  C   UNL     1      -4.401  -1.195  -1.236  0.00  0.00    +0.264 C 
BRANCH  12  13
ATOM     13  C   UNL     1      -5.598  -0.305  -1.022  0.00  0.00    -0.009 A 
ATOM     14  C   UNL     1      -6.860  -0.859  -0.917  0.00  0.00    +0.008 A 
ATOM     15  C   UNL     1      -7.959  -0.044  -0.721  0.00  0.00    +0.022 A 
ATOM     16  C   UNL     1      -7.797   1.327  -0.630  0.00  0.00    +0.059 A 
ATOM     17  C   UNL     1      -6.532   1.881  -0.735  0.00  0.00    +0.060 A 
ATOM     18  C   UNL     1      -5.433   1.063  -0.926  0.00  0.00    +0.028 A 
ATOM     19 CL   UNL     1      -6.327   3.601  -0.622  0.00  0.00    -0.082 Cl
ATOM     20 CL   UNL     1      -9.177   2.351  -0.385  0.00  0.00    -0.082 Cl
ENDBRANCH  12  13
ENDBRANCH  11  12
ENDBRANCH   6  11
BRANCH   3  21
ATOM     21  C   UNL     1       0.655  -4.954  -0.020  0.00  0.00    -0.046 C 
BRANCH  21  22
ATOM     22  N   UNL     1       1.054  -5.253   1.362  0.00  0.00    +0.386 N 
ATOM     23  H   UNL     1       1.280  -4.394   1.841  0.00  0.00    -0.085 HD
ATOM     24  H   UNL     1       0.294  -5.715   1.839  0.00  0.00    -0.085 HD
BRANCH  22  25
ATOM     25  C   UNL     1       2.232  -6.132   1.351  0.00  0.00    -0.006 C 
BRANCH  25  26
ATOM     26  C   UNL     1       2.641  -6.440   2.768  0.00  0.00    +0.088 A 
ATOM     27  C   UNL     1       2.207  -7.478   3.505  0.00  0.00    +0.042 A 
ATOM     28  C   UNL     1       2.843  -7.382   4.764  0.00  0.00    +0.041 A 
ATOM     29  C   UNL     1       3.628  -6.290   4.721  0.00  0.00    +0.195 A 
ATOM     30  O   UNL     1       3.507  -5.727   3.508  0.00  0.00    -0.470 OA
ENDBRANCH  25  26
ENDBRANCH  22  25
ENDBRANCH  21  22
ENDBRANCH   3  21
TORSDOF 9
