REMARK  Name = ZINC07715568
REMARK  5 active torsions:
REMARK  status: ('A' for Active; 'I' for Inactive)
REMARK    1  A    between atoms: C_1  and  C_2
REMARK    2  A    between atoms: C_3  and  N_11
REMARK    3  A    between atoms: C_7  and  N_8
REMARK    4  A    between atoms: C_15  and  C_18
REMARK    5  A    between atoms: C_16  and  N_17
REMARK                            x       y       z     vdW  Elec       q    Type
REMARK                         _______ _______ _______ _____ _____    ______ ____
ROOT
ATOM      1  N   UNL     1       0.662   9.318  -0.133  0.00  0.00    -0.280 N 
ATOM      2  C   UNL     1       2.052   8.843  -0.109  0.00  0.00    +0.191 C 
ATOM      3  C   UNL     1       1.955   7.339  -0.251  0.00  0.00    +0.186 C 
ATOM      4  O   UNL     1       2.874   6.544  -0.279  0.00  0.00    -0.290 OA
ATOM      5  C   UNL     1       0.582   7.053  -0.343  0.00  0.00    +0.087 C 
ATOM      6  C   UNL     1      -0.150   8.235  -0.277  0.00  0.00    +0.102 C 
ENDROOT
BRANCH   5   7
ATOM      7  C   UNL     1       0.005   5.706  -0.494  0.00  0.00    +0.116 A 
ATOM      8  N   UNL     1      -1.262   5.356  -0.588  0.00  0.00    -0.239 NA
ATOM      9  C   UNL     1      -1.648   4.070  -0.724  0.00  0.00    +0.079 A 
ATOM     10  C   UNL     1      -2.963   3.561  -0.834  0.00  0.00    +0.029 A 
ATOM     11  C   UNL     1      -3.183   2.216  -0.974  0.00  0.00    +0.002 A 
ATOM     12  C   UNL     1      -2.134   1.308  -1.000  0.00  0.00    +0.001 A 
ATOM     13  C   UNL     1      -0.835   1.770  -0.894  0.00  0.00    +0.017 A 
ATOM     14  C   UNL     1      -0.604   3.116  -0.760  0.00  0.00    +0.040 A 
ATOM     15  S   UNL     1       0.845   4.132  -0.596  0.00  0.00    -0.067 S 
ENDBRANCH   5   7
BRANCH   1  18
ATOM     16  C   UNL     1       0.131  10.367   2.459  0.00  0.00    +0.048 C 
ATOM     17  C   UNL     1      -0.024  11.202   1.214  0.00  0.00    +0.001 A 
ATOM     18  C   UNL     1       0.246  10.649  -0.032  0.00  0.00    +0.040 A 
ATOM     19  C   UNL     1       0.097  11.420  -1.177  0.00  0.00    +0.024 A 
ATOM     20  C   UNL     1      -0.314  12.735  -1.075  0.00  0.00    +0.004 A 
ATOM     21  C   UNL     1      -0.577  13.283   0.167  0.00  0.00    +0.033 A 
ATOM     22  C   UNL     1      -0.429  12.518   1.310  0.00  0.00    +0.131 A 
BRANCH  22  23
ATOM     23  N   UNL     1      -0.712  13.109   2.637  0.00  0.00    +0.057 N 
ATOM     24  O   UNL     1      -1.631  13.897   2.769  0.00  0.00    -0.126 OA
ATOM     25  O   UNL     1      -0.025  12.808   3.597  0.00  0.00    -0.126 OA
ENDBRANCH  22  23
ENDBRANCH   1  18
BRANCH   6  26
ATOM     26  N   UNL     1      -1.511   8.300  -0.344  0.00  0.00    -0.346 N 
ATOM     27  H   UNL     1      -2.031   7.488  -0.443  0.00  0.00    +0.143 HD
ATOM     28  H   UNL     1      -1.959   9.159  -0.291  0.00  0.00    +0.143 HD
ENDBRANCH   6  26
TORSDOF 4
