REMARK  Name = ZINC64136864
REMARK  7 active torsions:
REMARK  status: ('A' for Active; 'I' for Inactive)
REMARK    1  A    between atoms: C_1  and  O_2
REMARK    2  A    between atoms: O_2  and  C_3
REMARK    3  A    between atoms: C_10  and  C_18
REMARK    4  A    between atoms: C_20  and  O_38
REMARK    5  A    between atoms: C_22  and  O_37
REMARK    6  A    between atoms: N_24  and  C_27
REMARK    7  A    between atoms: C_31  and  C_33
REMARK                            x       y       z     vdW  Elec       q    Type
REMARK                         _______ _______ _______ _____ _____    ______ ____
ROOT
ATOM      1  C   UNL     1      -6.443  -5.147   0.938  0.00  0.00    +0.179 C 
ATOM      2  C   UNL     1      -6.861  -6.020   2.085  0.00  0.00    +0.200 C 
ATOM      3  N   UNL     1      -7.017  -7.282   1.975  0.00  0.00    -0.204 NA
ATOM      4  C   UNL     1      -6.811  -8.026   0.743  0.00  0.00    +0.338 C 
ATOM      5  N   UNL     1      -6.873  -7.169  -0.432  0.00  0.00    -0.225 N 
ATOM      6  C   UNL     1      -6.697  -5.847  -0.367  0.00  0.00    +0.237 C 
ATOM      7  O   UNL     1      -6.743  -5.196  -1.389  0.00  0.00    -0.274 OA
ENDROOT
BRANCH   1  14
ATOM      8  C   UNL     1      -1.564  -0.262   0.308  0.00  0.00    +0.121 A 
ATOM      9  C   UNL     1      -2.777   0.436   0.443  0.00  0.00    +0.047 A 
ATOM     10  C   UNL     1      -3.976  -0.185   0.434  0.00  0.00    +0.029 A 
ATOM     11  C   UNL     1      -4.043  -1.641   0.280  0.00  0.00    +0.043 A 
ATOM     12  N   UNL     1      -5.058  -2.474   0.262  0.00  0.00    -0.376 N 
ATOM     13  C   UNL     1      -4.550  -3.814  -0.013  0.00  0.00    +0.124 C 
ATOM     14  C   UNL     1      -4.952  -4.829   1.061  0.00  0.00    +0.101 C 
ATOM     15  N   UNL     1      -4.164  -6.055   0.856  0.00  0.00    -0.310 NA
ATOM     16  C   UNL     1      -2.732  -5.871   1.108  0.00  0.00    +0.085 C 
ATOM     17  C   UNL     1      -2.134  -4.901   0.072  0.00  0.00    +0.048 C 
ATOM     18  C   UNL     1      -3.035  -3.687   0.033  0.00  0.00    -0.036 C 
ATOM     19  C   UNL     1      -2.763  -2.382   0.147  0.00  0.00    +0.003 A 
ATOM     20  C   UNL     1      -1.516  -1.607   0.160  0.00  0.00    +0.055 A 
ATOM     21  H   UNL     1      -4.533  -6.817   1.405  0.00  0.00    +0.122 HD
ATOM     22  H   UNL     1      -5.988  -2.239   0.407  0.00  0.00    +0.160 HD
BRANCH   8  24
ATOM     23  C   UNL     1      -0.496   1.855   0.481  0.00  0.00    +0.277 C 
ATOM     24  O   UNL     1      -0.399   0.438   0.322  0.00  0.00    -0.495 OA
ENDBRANCH   8  24
ENDBRANCH   1  14
BRANCH   5  25
ATOM     25  C   UNL     1      -7.124  -7.755  -1.678  0.00  0.00    +0.041 A 
ATOM     26  C   UNL     1      -8.369  -8.308  -1.948  0.00  0.00    +0.024 A 
ATOM     27  C   UNL     1      -8.614  -8.886  -3.178  0.00  0.00    +0.002 A 
ATOM     28  C   UNL     1      -7.622  -8.913  -4.141  0.00  0.00    +0.012 A 
ATOM     29  C   UNL     1      -6.381  -8.363  -3.875  0.00  0.00    +0.057 A 
ATOM     30  C   UNL     1      -6.132  -7.779  -2.648  0.00  0.00    +0.036 A 
BRANCH  29  31
ATOM     31  C   UNL     1      -5.303  -8.396  -4.927  0.00  0.00    +0.417 C 
ATOM     32  F   UNL     1      -5.790  -9.028  -6.075  0.00  0.00    -0.166 F 
ATOM     33  F   UNL     1      -4.918  -7.088  -5.242  0.00  0.00    -0.166 F 
ATOM     34  F   UNL     1      -4.197  -9.102  -4.439  0.00  0.00    -0.166 F 
ENDBRANCH  29  31
ENDBRANCH   5  25
BRANCH   4  35
ATOM     35  O   UNL     1      -5.529  -8.655   0.790  0.00  0.00    -0.356 OA
ATOM     36  H   UNL     1      -5.421  -9.274   1.525  0.00  0.00    +0.214 HD
ENDBRANCH   4  35
BRANCH   2  37
ATOM     37  O   UNL     1      -7.080  -5.445   3.286  0.00  0.00    -0.495 OA
ATOM     38  H   UNL     1      -7.346  -6.068   3.977  0.00  0.00    +0.293 HD
ENDBRANCH   2  37
TORSDOF 6
