REMARK  Name = ZINC37711556
REMARK  6 active torsions:
REMARK  status: ('A' for Active; 'I' for Inactive)
REMARK    1  A    between atoms: C_5  and  O_12
REMARK    2  A    between atoms: C_6  and  C_7
REMARK    3  A    between atoms: C_7  and  N_8
REMARK    4  A    between atoms: N_8  and  C_9
REMARK    5  A    between atoms: O_12  and  C_13
REMARK    6  A    between atoms: C_19  and  O_21
REMARK                            x       y       z     vdW  Elec       q    Type
REMARK                         _______ _______ _______ _____ _____    ______ ____
ROOT
ATOM      1  C   UNL     1       0.081   1.012   0.007  0.00  0.00    +0.025 A 
ATOM      2  C   UNL     1       1.138   1.890  -0.156  0.00  0.00    +0.043 A 
ATOM      3  C   UNL     1       2.427   1.407  -0.294  0.00  0.00    +0.043 A 
ATOM      4  C   UNL     1       2.661   0.045  -0.267  0.00  0.00    +0.084 A 
ATOM      5  C   UNL     1       1.602  -0.837  -0.103  0.00  0.00    +0.141 A 
ATOM      6  C   UNL     1       0.311  -0.350   0.034  0.00  0.00    -0.020 A 
ATOM      7 CL   UNL     1       4.279  -0.562  -0.440  0.00  0.00    -0.080 Cl
ATOM      8 CL   UNL     1       0.845   3.601  -0.190  0.00  0.00    -0.083 Cl
ENDROOT
BRANCH   6   9
ATOM      9  C   UNL     1      -0.840  -1.306   0.213  0.00  0.00    -0.043 C 
BRANCH   9  10
ATOM     10  N   UNL     1      -0.940  -1.694   1.627  0.00  0.00    +0.384 N 
ATOM     11  H   UNL     1      -0.065  -2.098   1.926  0.00  0.00    -0.085 HD
ATOM     12  H   UNL     1      -1.143  -0.878   2.186  0.00  0.00    -0.085 HD
BRANCH  10  13
ATOM     13  C   UNL     1      -2.017  -2.679   1.789  0.00  0.00    -0.072 C 
ATOM     14  C   UNL     1      -3.216  -2.279   2.650  0.00  0.00    -0.017 C 
ATOM     15  C   UNL     1      -2.204  -3.299   3.176  0.00  0.00    -0.017 C 
ENDBRANCH  10  13
ENDBRANCH   9  10
ENDBRANCH   6   9
BRANCH   5  16
ATOM     16  O   UNL     1       1.830  -2.177  -0.077  0.00  0.00    -0.485 OA
BRANCH  16  17
ATOM     17  C   UNL     1       2.079  -2.769   1.200  0.00  0.00    +0.202 C 
ATOM     18  C   UNL     1       3.586  -2.963   1.386  0.00  0.00    +0.047 C 
ATOM     19  C   UNL     1       3.852  -3.596   2.753  0.00  0.00    +0.004 C 
ATOM     20  C   UNL     1       3.149  -4.953   2.833  0.00  0.00    +0.003 C 
ATOM     21  C   UNL     1       1.643  -4.758   2.647  0.00  0.00    +0.035 C 
ATOM     22  C   UNL     1       1.376  -4.125   1.280  0.00  0.00    +0.155 C 
BRANCH  22  23
ATOM     23  O   UNL     1       1.877  -4.982   0.252  0.00  0.00    -0.388 OA
ATOM     24  H   UNL     1       1.474  -5.862   0.243  0.00  0.00    +0.210 HD
ENDBRANCH  22  23
ENDBRANCH  16  17
ENDBRANCH   5  16
TORSDOF 6
