REMARK  Name = ZINC57619572
REMARK  8 active torsions:
REMARK  status: ('A' for Active; 'I' for Inactive)
REMARK    1  A    between atoms: C_1  and  C_2
REMARK    2  A    between atoms: C_5  and  C_8
REMARK    3  A    between atoms: C_8  and  C_10
REMARK    4  A    between atoms: C_8  and  N_13
REMARK    5  A    between atoms: N_16  and  C_17
REMARK    6  A    between atoms: C_17  and  C_18
REMARK    7  A    between atoms: C_22  and  S_24
REMARK    8  A    between atoms: S_24  and  N_27
REMARK                            x       y       z     vdW  Elec       q    Type
REMARK                         _______ _______ _______ _____ _____    ______ ____
ROOT
ATOM      1  N   UNL     1       0.959  -4.758   1.029  0.00  0.00    -0.292 N 
ATOM      2  C   UNL     1       1.534  -5.972   0.919  0.00  0.00    +0.300 C 
ATOM      3  O   UNL     1       1.306  -6.667  -0.053  0.00  0.00    -0.253 OA
ATOM      4  N   UNL     1       2.362  -6.416   1.885  0.00  0.00    -0.295 N 
ATOM      5  H   UNL     1       1.142  -4.204   1.804  0.00  0.00    +0.151 HD
ATOM      6  H   UNL     1       2.544  -5.862   2.660  0.00  0.00    +0.151 HD
ENDROOT
BRANCH   1   7
ATOM      7  C   UNL     1       0.059  -4.275  -0.021  0.00  0.00    +0.108 C 
BRANCH   7  12
ATOM      8  C   UNL     1      -0.018   1.503   0.010  0.00  0.00    +0.044 C 
ATOM      9  C   UNL     1       0.002  -0.004   0.002  0.00  0.00    -0.050 A 
ATOM     10  C   UNL     1       0.006  -0.689  -1.199  0.00  0.00    +0.004 A 
ATOM     11  C   UNL     1       0.025  -2.071  -1.206  0.00  0.00    +0.006 A 
ATOM     12  C   UNL     1       0.040  -2.768  -0.013  0.00  0.00    -0.027 A 
ATOM     13  C   UNL     1       0.037  -2.084   1.188  0.00  0.00    +0.006 A 
ATOM     14  C   UNL     1       0.023  -0.702   1.195  0.00  0.00    +0.004 A 
ENDBRANCH   7  12
BRANCH   7  15
ATOM     15  C   UNL     1      -1.353  -4.805   0.234  0.00  0.00    +0.014 C 
ATOM     16  C   UNL     1      -1.611  -5.518   1.563  0.00  0.00    +0.006 C 
ATOM     17  C   UNL     1      -1.544  -6.323   0.264  0.00  0.00    +0.006 C 
ENDBRANCH   7  15
ENDBRANCH   1   7
BRANCH   4  18
ATOM     18  C   UNL     1       2.987  -7.736   1.765  0.00  0.00    +0.141 C 
BRANCH  18  19
ATOM     19  C   UNL     1       3.859  -7.989   2.968  0.00  0.00    -0.028 A 
ATOM     20  C   UNL     1       5.188  -7.609   2.951  0.00  0.00    +0.005 A 
ATOM     21  C   UNL     1       5.988  -7.842   4.053  0.00  0.00    +0.002 A 
ATOM     22  C   UNL     1       5.459  -8.455   5.174  0.00  0.00    +0.028 A 
ATOM     23  C   UNL     1       4.130  -8.835   5.191  0.00  0.00    +0.105 A 
ATOM     24  C   UNL     1       3.329  -8.598   4.090  0.00  0.00    +0.033 A 
BRANCH  23  25
ATOM     25  S   UNL     1       3.456  -9.617   6.619  0.00  0.00    +0.056 S 
ATOM     26  O   UNL     1       2.332 -10.366   6.179  0.00  0.00    -0.153 OA
ATOM     27  O   UNL     1       4.546 -10.214   7.308  0.00  0.00    -0.153 OA
BRANCH  25  28
ATOM     28  N   UNL     1       2.872  -8.421   7.604  0.00  0.00    -0.204 NA
ATOM     29  H   UNL     1       2.116  -8.597   8.185  0.00  0.00    +0.144 HD
ATOM     30  H   UNL     1       3.287  -7.543   7.599  0.00  0.00    +0.144 HD
ENDBRANCH  25  28
ENDBRANCH  23  25
ENDBRANCH  18  19
ENDBRANCH   4  18
TORSDOF 7
