REMARK  Name = ZINC08769534
REMARK  8 active torsions:
REMARK  status: ('A' for Active; 'I' for Inactive)
REMARK    1  A    between atoms: C_1  and  C_2
REMARK    2  A    between atoms: C_2  and  C_3
REMARK    3  A    between atoms: C_2  and  C_4
REMARK    4  A    between atoms: C_4  and  C_5
REMARK    5  A    between atoms: C_5  and  C_7
REMARK    6  A    between atoms: C_5  and  N_20
REMARK    7  A    between atoms: N_9  and  C_10
REMARK    8  A    between atoms: C_21  and  C_23
REMARK                            x       y       z     vdW  Elec       q    Type
REMARK                         _______ _______ _______ _____ _____    ______ ____
ROOT
ATOM      1  C   UNL     1       6.185  -0.775  -0.317  0.00  0.00    +0.159 C 
ENDROOT
BRANCH   1   2
ATOM      2  C   UNL     1       4.999   0.146  -0.191  0.00  0.00    +0.238 C 
ATOM      3  O   UNL     1       5.161   1.300   0.148  0.00  0.00    -0.273 OA
ATOM      4  N   UNL     1       3.759  -0.311  -0.455  0.00  0.00    -0.284 N 
ATOM      5  H   UNL     1       3.622  -1.250  -0.656  0.00  0.00    +0.155 HD
BRANCH   4   6
ATOM      6  C   UNL     1       2.670   0.569  -0.439  0.00  0.00    +0.037 A 
ATOM      7  C   UNL     1       1.417   0.117  -0.044  0.00  0.00    +0.027 A 
ATOM      8  C   UNL     1       0.343   0.984  -0.028  0.00  0.00    +0.051 A 
ATOM      9  C   UNL     1       0.509   2.308  -0.407  0.00  0.00    +0.162 A 
ATOM     10  C   UNL     1       1.762   2.764  -0.800  0.00  0.00    +0.164 A 
ATOM     11  C   UNL     1       2.841   1.893  -0.817  0.00  0.00    +0.072 A 
ATOM     12  O   UNL     1       1.947   4.061  -1.168  0.00  0.00    -0.485 OA
ATOM     13  C   UNL     1       0.773   4.810  -1.500  0.00  0.00    +0.270 C 
ATOM     14  C   UNL     1      -0.284   4.550  -0.418  0.00  0.00    +0.270 C 
ATOM     15  O   UNL     1      -0.564   3.146  -0.393  0.00  0.00    -0.485 OA
ENDBRANCH   4   6
ENDBRANCH   1   2
BRANCH   1  16
ATOM     16  N   UNL     1       7.420   0.012  -0.286  0.00  0.00    -0.305 N 
ATOM     17  C   UNL     1       8.521  -0.436  -0.923  0.00  0.00    +0.200 C 
ATOM     18  O   UNL     1       8.464  -1.443  -1.596  0.00  0.00    -0.278 OA
ATOM     19  H   UNL     1       7.446   0.856   0.192  0.00  0.00    +0.149 HD
BRANCH  17  20
ATOM     20  C   UNL     1       9.821   0.315  -0.798  0.00  0.00    +0.021 C 
ATOM     21  C   UNL     1      10.506  -0.057   0.517  0.00  0.00    +0.028 C 
ATOM     22  C   UNL     1      11.908   0.495   0.542  0.00  0.00    -0.047 A 
ATOM     23  C   UNL     1      12.566   0.575   1.760  0.00  0.00    +0.004 A 
ATOM     24  C   UNL     1      13.854   1.066   1.825  0.00  0.00    +0.000 A 
ATOM     25  C   UNL     1      14.492   1.481   0.671  0.00  0.00    +0.000 A 
ATOM     26  C   UNL     1      13.837   1.404  -0.541  0.00  0.00    +0.002 A 
ATOM     27  C   UNL     1      12.542   0.911  -0.609  0.00  0.00    -0.061 A 
ATOM     28  C   UNL     1      11.868   0.850  -1.955  0.00  0.00    -0.045 C 
ATOM     29  N   UNL     1      10.712  -0.058  -1.913  0.00  0.00    +0.389 N 
ATOM     30  H   UNL     1      10.196   0.008  -2.798  0.00  0.00    -0.084 HD
ATOM     31  H   UNL     1      11.041  -1.021  -1.779  0.00  0.00    -0.084 HD
ENDBRANCH  17  20
ENDBRANCH   1  16
BRANCH   1  32
ATOM     32  C   UNL     1       6.185  -1.768   0.847  0.00  0.00    +0.034 C 
BRANCH  32  34
ATOM     33  C   UNL     1       5.120  -3.571  -0.517  0.00  0.00    +0.007 C 
ATOM     34  C   UNL     1       4.972  -2.693   0.728  0.00  0.00    -0.015 C 
ATOM     35  C   UNL     1       4.883  -3.581   1.970  0.00  0.00    +0.007 C 
ENDBRANCH  32  34
ENDBRANCH   1  32
TORSDOF 6
