REMARK  Name = ZINC48895955
REMARK  5 active torsions:
REMARK  status: ('A' for Active; 'I' for Inactive)
REMARK    1  A    between atoms: C_3  and  N_9
REMARK    2  A    between atoms: C_6  and  N_7
REMARK    3  A    between atoms: C_10  and  C_12
REMARK    4  A    between atoms: C_12  and  C_13
REMARK    5  A    between atoms: C_13  and  N_14
REMARK                            x       y       z     vdW  Elec       q    Type
REMARK                         _______ _______ _______ _____ _____    ______ ____
ROOT
ATOM      1  N   UNL     1       3.585   2.133  -0.021  0.00  0.00    -0.284 N 
ATOM      2  C   UNL     1       3.567   3.477  -0.116  0.00  0.00    +0.215 C 
ATOM      3  O   UNL     1       2.511   4.072  -0.103  0.00  0.00    -0.276 OA
ATOM      4  H   UNL     1       4.431   1.663   0.049  0.00  0.00    +0.155 HD
ENDROOT
BRANCH   1   7
ATOM      5  C   UNL     1       0.065   1.248  -0.622  0.00  0.00    +0.024 A 
ATOM      6  C   UNL     1       1.251   1.956  -0.619  0.00  0.00    +0.026 A 
ATOM      7  C   UNL     1       2.382   1.414  -0.024  0.00  0.00    +0.052 A 
ATOM      8  C   UNL     1       2.321   0.158   0.568  0.00  0.00    +0.064 A 
ATOM      9  C   UNL     1       1.135  -0.550   0.564  0.00  0.00    +0.044 A 
ATOM     10  C   UNL     1       0.004  -0.007  -0.031  0.00  0.00    +0.026 A 
ATOM     11 CL   UNL     1       3.735  -0.521   1.311  0.00  0.00    -0.082 Cl
BRANCH  10  12
ATOM     12  N   UNL     1      -1.198  -0.724  -0.034  0.00  0.00    -0.358 N 
ATOM     13  H   UNL     1      -1.988  -0.344  -0.450  0.00  0.00    +0.142 HD
ATOM     14  H   UNL     1      -1.241  -1.600   0.379  0.00  0.00    +0.142 HD
ENDBRANCH  10  12
ENDBRANCH   1   7
BRANCH   2  15
ATOM     15  C   UNL     1       4.861   4.241  -0.238  0.00  0.00    +0.077 C 
BRANCH  15  16
ATOM     16  C   UNL     1       4.562   5.739  -0.329  0.00  0.00    -0.070 C 
BRANCH  16  17
ATOM     17  N   UNL     1       5.822   6.483  -0.449  0.00  0.00    +0.381 N 
ATOM     18  C   UNL     1       5.552   7.914  -0.572  0.00  0.00    -0.078 C 
ATOM     19  C   UNL     1       6.435   8.479  -1.687  0.00  0.00    -0.008 C 
ATOM     20  C   UNL     1       7.876   7.948  -1.717  0.00  0.00    +0.067 C 
ATOM     21  S   UNL     1       8.640   7.878  -0.084  0.00  0.00    -0.163 S 
ATOM     22  C   UNL     1       8.069   6.265   0.589  0.00  0.00    +0.050 C 
ATOM     23  C   UNL     1       6.618   6.328   0.773  0.00  0.00    -0.068 C 
ATOM     24  H   UNL     1       6.345   6.156  -1.248  0.00  0.00    -0.082 HD
ENDBRANCH  16  17
ENDBRANCH  15  16
ENDBRANCH   2  15
TORSDOF 5
