REMARK  Name = ZINC38976632
REMARK  8 active torsions:
REMARK  status: ('A' for Active; 'I' for Inactive)
REMARK    1  A    between atoms: C_1  and  C_2
REMARK    2  A    between atoms: C_2  and  C_3
REMARK    3  A    between atoms: C_3  and  C_4
REMARK    4  A    between atoms: C_4  and  N_5
REMARK    5  A    between atoms: C_14  and  C_19
REMARK    6  A    between atoms: C_16  and  O_18
REMARK    7  A    between atoms: N_21  and  C_22
REMARK    8  A    between atoms: C_24  and  O_34
REMARK                            x       y       z     vdW  Elec       q    Type
REMARK                         _______ _______ _______ _____ _____    ______ ____
ROOT
ATOM      1  C   UNL     1       0.774  -2.454   6.126  0.00  0.00    +0.229 C 
ATOM      2  O   UNL     1      -0.234  -3.129   6.120  0.00  0.00    -0.275 OA
ATOM      3  N   UNL     1       1.273  -1.998   7.292  0.00  0.00    -0.297 N 
ATOM      4  H   UNL     1       2.079  -1.459   7.297  0.00  0.00    +0.150 HD
ENDROOT
BRANCH   3   5
ATOM      5  C   UNL     1       0.597  -2.317   8.552  0.00  0.00    +0.226 C 
ATOM      6  C   UNL     1       0.874  -1.189   9.527  0.00  0.00    +0.132 C 
ATOM      7  C   UNL     1       1.496  -1.529  10.731  0.00  0.00    +0.036 A 
ATOM      8  C   UNL     1       1.789  -0.541  11.693  0.00  0.00    +0.013 A 
ATOM      9  C   UNL     1       2.396  -0.899  12.858  0.00  0.00    +0.001 A 
ATOM     10  C   UNL     1       2.733  -2.223  13.120  0.00  0.00    +0.002 A 
ATOM     11  C   UNL     1       2.475  -3.220  12.229  0.00  0.00    +0.024 A 
ATOM     12  C   UNL     1       1.851  -2.924  11.005  0.00  0.00    +0.044 A 
ATOM     13  N   UNL     1       1.597  -3.906  10.131  0.00  0.00    -0.283 N 
ATOM     14  C   UNL     1       1.017  -3.709   8.965  0.00  0.00    +0.245 C 
ATOM     15  O   UNL     1       0.818  -4.650   8.219  0.00  0.00    -0.273 OA
ATOM     16  H   UNL     1       1.855  -4.810  10.368  0.00  0.00    +0.155 HD
BRANCH   6  17
ATOM     17  O   UNL     1       0.538   0.075   9.247  0.00  0.00    -0.508 OA
ATOM     18  H   UNL     1       0.764   0.706   9.944  0.00  0.00    +0.292 HD
ENDBRANCH   6  17
ENDBRANCH   3   5
BRANCH   1  28
ATOM     19  N   UNL     1       1.471  -2.526   2.420  0.00  0.00    -0.303 N 
ATOM     20  C   UNL     1       2.842  -2.733   2.374  0.00  0.00    +0.042 A 
ATOM     21  C   UNL     1       3.495  -2.869   1.156  0.00  0.00    +0.024 A 
ATOM     22  C   UNL     1       4.859  -3.072   1.125  0.00  0.00    +0.002 A 
ATOM     23  C   UNL     1       5.591  -3.143   2.301  0.00  0.00    +0.001 A 
ATOM     24  C   UNL     1       4.964  -3.012   3.521  0.00  0.00    +0.013 A 
ATOM     25  C   UNL     1       3.583  -2.807   3.568  0.00  0.00    +0.039 A 
ATOM     26  C   UNL     1       2.885  -2.670   4.855  0.00  0.00    +0.181 C 
ATOM     27  O   UNL     1       3.422  -2.979   5.898  0.00  0.00    -0.291 OA
ATOM     28  C   UNL     1       1.470  -2.127   4.830  0.00  0.00    +0.192 C 
ATOM     29  C   UNL     1       0.733  -2.788   3.661  0.00  0.00    +0.222 C 
BRANCH  29  30
ATOM     30  O   UNL     1       0.656  -4.197   3.884  0.00  0.00    -0.373 OA
ATOM     31  H   UNL     1       0.208  -4.683   3.179  0.00  0.00    +0.212 HD
ENDBRANCH  29  30
BRANCH  19  32
ATOM     32  C   UNL     1       0.763  -2.041   1.233  0.00  0.00    +0.107 C 
BRANCH  32  33
ATOM     33  C   UNL     1       0.742  -0.511   1.242  0.00  0.00    +0.019 C 
BRANCH  33  35
ATOM     34  C   UNL     1      -0.019   1.526   0.010  0.00  0.00    +0.004 C 
ATOM     35  C   UNL     1       0.002  -0.004   0.002  0.00  0.00    -0.002 C 
ENDBRANCH  33  35
ENDBRANCH  32  33
ENDBRANCH  19  32
ENDBRANCH   1  28
TORSDOF 7
