REMARK  Name = ZINC32331738
REMARK  4 active torsions:
REMARK  status: ('A' for Active; 'I' for Inactive)
REMARK    1  A    between atoms: C_4  and  C_8
REMARK    2  A    between atoms: C_8  and  N_9
REMARK    3  A    between atoms: C_11  and  N_19
REMARK    4  A    between atoms: C_13  and  C_16
REMARK                            x       y       z     vdW  Elec       q    Type
REMARK                         _______ _______ _______ _____ _____    ______ ____
ROOT
ATOM      1  N   UNL     1       1.158   4.088   1.390  0.00  0.00    -0.308 N 
ATOM      2  C   UNL     1      -0.017   4.279   2.035  0.00  0.00    +0.122 A 
ATOM      3  C   UNL     1      -0.052   4.704   3.324  0.00  0.00    +0.143 A 
ATOM      4  C   UNL     1       1.135   4.963   4.008  0.00  0.00    +0.052 A 
ATOM      5  C   UNL     1       2.349   4.772   3.349  0.00  0.00    +0.103 A 
ATOM      6  C   UNL     1       2.334   4.322   2.004  0.00  0.00    +0.264 A 
ATOM      7  O   UNL     1       3.381   4.147   1.406  0.00  0.00    -0.267 OA
ENDROOT
BRANCH   5   8
ATOM      8  C   UNL     1       3.622   5.034   4.037  0.00  0.00    +0.247 C 
ATOM      9  O   UNL     1       3.623   5.521   5.152  0.00  0.00    -0.270 OA
ATOM     10  N   UNL     1       4.789   4.735   3.432  0.00  0.00    -0.325 N 
ATOM     11  H   UNL     1       5.741   4.931   3.946  0.00  0.00    +0.145 HD
ATOM     12  H   UNL     1       4.788   4.295   2.423  0.00  0.00    +0.145 HD
ENDBRANCH   5   8
BRANCH   3  13
ATOM     13  N   UNL     1      -1.353   4.899   4.002  0.00  0.00    +0.058 N 
ATOM     14  O   UNL     1      -2.391   4.674   3.406  0.00  0.00    -0.126 OA
ATOM     15  O   UNL     1      -1.386   5.285   5.157  0.00  0.00    -0.126 OA
ENDBRANCH   3  13
BRANCH   1  16
ATOM     16  C   UNL     1       1.151   3.623   0.001  0.00  0.00    +0.163 C 
BRANCH  16  20
ATOM     17  C   UNL     1       1.239  -0.649  -0.074  0.00  0.00    +0.003 A 
ATOM     18  C   UNL     1       0.028   0.017  -0.047  0.00  0.00    +0.020 A 
ATOM     19  C   UNL     1      -0.001   1.400  -0.023  0.00  0.00    +0.047 A 
ATOM     20  C   UNL     1       1.182   2.117  -0.026  0.00  0.00    +0.009 A 
ATOM     21  C   UNL     1       2.394   1.450  -0.051  0.00  0.00    +0.047 A 
ATOM     22  C   UNL     1       2.422   0.067  -0.076  0.00  0.00    +0.020 A 
ATOM     23 CL   UNL     1       3.879   2.348  -0.054  0.00  0.00    -0.083 Cl
ATOM     24 CL   UNL     1      -1.522   2.236   0.003  0.00  0.00    -0.083 Cl
ENDBRANCH  16  20
ENDBRANCH   1  16
TORSDOF 4
