REMARK  Name = ZINC14184272
REMARK  11 active torsions:
REMARK  status: ('A' for Active; 'I' for Inactive)
REMARK    1  A    between atoms: C_1  and  C_2
REMARK    2  A    between atoms: C_5  and  C_7
REMARK    3  A    between atoms: C_7  and  N_46
REMARK    4  A    between atoms: C_8  and  N_46
REMARK    5  A    between atoms: C_9  and  C_11
REMARK    6  A    between atoms: C_9  and  C_12
REMARK    7  A    between atoms: C_9  and  N_46
REMARK    8  A    between atoms: C_12  and  C_14
REMARK    9  A    between atoms: C_15  and  N_24
REMARK   10  A    between atoms: N_16  and  C_23
REMARK   11  A    between atoms: N_19  and  C_22
REMARK                            x       y       z     vdW  Elec       q    Type
REMARK                         _______ _______ _______ _____ _____    ______ ____
ROOT
ATOM      1  C   UNL     1      -0.017   1.407   0.011  0.00  0.00    +0.158 C 
ATOM      2  O   UNL     1      -1.077   2.000   0.006  0.00  0.00    -0.294 OA
ENDROOT
BRANCH   1   3
ATOM      3  C   UNL     1       0.002  -0.004   0.003  0.00  0.00    +0.118 A 
ATOM      4  C   UNL     1      -1.186  -0.746   0.114  0.00  0.00    +0.116 A 
ATOM      5  N   UNL     1      -1.117  -2.110   0.101  0.00  0.00    -0.284 N 
ATOM      6  C   UNL     1       0.058  -2.748  -0.016  0.00  0.00    +0.333 A 
ATOM      7  O   UNL     1       0.066  -3.963  -0.022  0.00  0.00    -0.246 OA
ATOM      8  N   UNL     1       1.225  -2.093  -0.125  0.00  0.00    -0.263 N 
ATOM      9  C   UNL     1       1.264  -0.744  -0.129  0.00  0.00    +0.269 A 
ATOM     10  O   UNL     1       2.323  -0.153  -0.234  0.00  0.00    -0.267 OA
ATOM     11  C   UNL     1       2.472  -2.852  -0.249  0.00  0.00    +0.157 C 
ATOM     12  C   UNL     1      -2.350  -2.893   0.216  0.00  0.00    +0.155 C 
BRANCH   4  13
ATOM     13  N   UNL     1      -2.386  -0.116   0.234  0.00  0.00    -0.344 N 
ATOM     14  H   UNL     1      -3.200  -0.565  -0.046  0.00  0.00    +0.144 HD
ATOM     15  H   UNL     1      -2.428   0.782   0.599  0.00  0.00    +0.144 HD
ENDBRANCH   4  13
ENDBRANCH   1   3
BRANCH   1  16
ATOM     16  C   UNL     1       1.278   2.178   0.021  0.00  0.00    +0.002 C 
ATOM     17  C   UNL     1       1.902   2.110   1.416  0.00  0.00    -0.005 C 
BRANCH  16  19
ATOM     18  C   UNL     1       0.330   3.679  -1.625  0.00  0.00    -0.095 C 
ATOM     19  N   UNL     1       0.998   3.591  -0.310  0.00  0.00    +0.389 N 
ATOM     20  H   UNL     1       0.377   3.985   0.407  0.00  0.00    -0.081 HD
BRANCH  19  21
ATOM     21  C   UNL     1       2.258   4.364  -0.331  0.00  0.00    -0.003 C 
BRANCH  21  26
ATOM     22  C   UNL     1       1.282   8.886  -2.341  0.00  0.00    +0.086 C 
ATOM     23  C   UNL     1       1.503   7.796  -1.325  0.00  0.00    +0.102 A 
ATOM     24  C   UNL     1       1.433   7.940   0.011  0.00  0.00    +0.044 A 
ATOM     25  C   UNL     1       1.706   6.672   0.574  0.00  0.00    +0.043 A 
ATOM     26  C   UNL     1       1.927   5.829  -0.451  0.00  0.00    +0.089 A 
ATOM     27  O   UNL     1       1.808   6.517  -1.598  0.00  0.00    -0.467 OA
ENDBRANCH  21  26
ENDBRANCH  19  21
ENDBRANCH  16  19
ENDBRANCH   1  16
TORSDOF 6
