REMARK  Name = ZINC63020536
REMARK  7 active torsions:
REMARK  status: ('A' for Active; 'I' for Inactive)
REMARK    1  A    between atoms: C_1  and  C_2
REMARK    2  A    between atoms: C_2  and  C_3
REMARK    3  A    between atoms: C_2  and  C_4
REMARK    4  A    between atoms: C_2  and  N_6
REMARK    5  A    between atoms: C_4  and  N_5
REMARK    6  A    between atoms: N_6  and  S_7
REMARK    7  A    between atoms: S_7  and  C_10
REMARK                            x       y       z     vdW  Elec       q    Type
REMARK                         _______ _______ _______ _____ _____    ______ ____
ROOT
ATOM      1  N   UNL     1       0.373  -0.525  -1.270  0.00  0.00    -0.186 NA
ATOM      2  H   UNL     1      -0.230  -1.157  -1.692  0.00  0.00    +0.149 HD
ENDROOT
BRANCH   1   4
ATOM      3  C   UNL     1       0.136   1.667  -0.211  0.00  0.00    +0.027 C 
ATOM      4  C   UNL     1      -0.026   0.155  -0.035  0.00  0.00    +0.019 C 
ATOM      5  C   UNL     1       0.858  -0.322   1.118  0.00  0.00    +0.027 C 
BRANCH   4   6
ATOM      6  C   UNL     1      -1.489  -0.168   0.276  0.00  0.00    -0.063 C 
BRANCH   6   7
ATOM      7  N   UNL     1      -1.644  -1.619   0.444  0.00  0.00    +0.379 N 
ATOM      8  H   UNL     1      -1.369  -2.088  -0.406  0.00  0.00    -0.090 HD
ATOM      9  H   UNL     1      -1.061  -1.934   1.205  0.00  0.00    -0.090 HD
ATOM     10  H   UNL     1      -2.608  -1.833   0.649  0.00  0.00    -0.090 HD
ENDBRANCH   6   7
ENDBRANCH   4   6
ENDBRANCH   1   4
BRANCH   1  11
ATOM     11  S   UNL     1       1.853  -0.215  -1.945  0.00  0.00    +0.066 S 
ATOM     12  O   UNL     1       2.759  -0.025  -0.867  0.00  0.00    -0.152 OA
ATOM     13  O   UNL     1       2.057  -1.202  -2.947  0.00  0.00    -0.152 OA
BRANCH  11  14
ATOM     14  C   UNL     1       1.732   1.332  -2.779  0.00  0.00    +0.156 A 
ATOM     15  C   UNL     1       2.703   2.046  -3.400  0.00  0.00    +0.051 A 
ATOM     16  C   UNL     1       2.374   3.249  -3.996  0.00  0.00    +0.025 A 
ATOM     17  C   UNL     1       1.089   3.679  -3.942  0.00  0.00    +0.048 A 
ATOM     18  S   UNL     1       0.296   2.362  -3.034  0.00  0.00    -0.076 S 
ATOM     19 BR   UNL     1       4.482   1.406  -3.449  0.00  0.00    -0.048 Br
ENDBRANCH  11  14
ENDBRANCH   1  11
TORSDOF 5
