REMARK  Name = ZINC39674552
REMARK  8 active torsions:
REMARK  status: ('A' for Active; 'I' for Inactive)
REMARK    1  A    between atoms: C_1  and  C_2
REMARK    2  A    between atoms: C_6  and  C_7
REMARK    3  A    between atoms: C_11  and  C_20
REMARK    4  A    between atoms: N_22  and  C_23
REMARK    5  A    between atoms: C_23  and  C_25
REMARK    6  A    between atoms: C_23  and  C_26
REMARK    7  A    between atoms: C_27  and  C_33
REMARK    8  A    between atoms: C_30  and  C_32
REMARK                            x       y       z     vdW  Elec       q    Type
REMARK                         _______ _______ _______ _____ _____    ______ ____
ROOT
ATOM      1  C   UNL     1      -0.798   0.304   3.938  0.00  0.00    +0.254 C 
ATOM      2  O   UNL     1      -0.829   1.440   4.373  0.00  0.00    -0.269 OA
ATOM      3  N   UNL     1      -0.755  -0.742   4.787  0.00  0.00    -0.296 N 
ATOM      4  C   UNL     1      -0.596  -2.177   4.453  0.00  0.00    +0.121 C 
ATOM      5  C   UNL     1       0.337  -2.733   5.552  0.00  0.00    +0.100 C 
ATOM      6  C   UNL     1       0.160  -1.772   6.739  0.00  0.00    -0.004 C 
ATOM      7  C   UNL     1      -0.850  -0.717   6.266  0.00  0.00    +0.115 C 
ATOM      8  C   UNL     1       1.489  -1.105   7.082  0.00  0.00    -0.010 C 
ATOM      9  C   UNL     1       1.300  -0.198   8.301  0.00  0.00    -0.082 C 
ATOM     10  N   UNL     1       0.823  -0.996   9.437  0.00  0.00    +0.379 N 
ATOM     11  C   UNL     1      -0.499  -1.558   9.134  0.00  0.00    -0.082 C 
ATOM     12  C   UNL     1      -0.386  -2.522   7.950  0.00  0.00    -0.010 C 
ATOM     13  H   UNL     1       1.473  -1.746   9.617  0.00  0.00    -0.086 HD
ATOM     14  H   UNL     1       0.757  -0.408  10.255  0.00  0.00    -0.086 HD
ENDROOT
BRANCH   1  20
ATOM     15  C   UNL     1      -1.093   2.468   1.718  0.00  0.00    +0.045 C 
ATOM     16  C   UNL     1      -0.935   0.992   1.460  0.00  0.00    -0.031 A 
ATOM     17  C   UNL     1      -0.902   0.471   0.189  0.00  0.00    +0.011 A 
ATOM     18  C   UNL     1      -0.757  -0.867   0.028  0.00  0.00    +0.046 A 
ATOM     19  S   UNL     1      -0.660  -1.462   1.596  0.00  0.00    -0.092 S 
ATOM     20  C   UNL     1      -0.807   0.073   2.491  0.00  0.00    +0.077 A 
ENDBRANCH   1  20
BRANCH   5  21
ATOM     21  C   UNL     1      -0.080  -4.129   5.937  0.00  0.00    +0.219 C 
ATOM     22  O   UNL     1      -1.228  -4.486   5.775  0.00  0.00    -0.275 OA
ATOM     23  N   UNL     1       0.823  -4.981   6.462  0.00  0.00    -0.309 N 
ATOM     24  H   UNL     1       1.741  -4.696   6.591  0.00  0.00    +0.149 HD
BRANCH  23  25
ATOM     25  C   UNL     1       0.418  -6.338   6.837  0.00  0.00    +0.100 C 
ATOM     26  C   UNL     1       0.347  -7.214   5.584  0.00  0.00    +0.033 C 
BRANCH  25  27
ATOM     27  C   UNL     1       1.425  -6.916   7.797  0.00  0.00    -0.001 C 
ATOM     28  C   UNL     1       1.222  -7.337   9.048  0.00  0.00    +0.063 C 
ATOM     29  N   UNL     1       2.371  -7.791   9.594  0.00  0.00    -0.159 NA
ATOM     30  N   UNL     1       3.352  -7.729   8.849  0.00  0.00    -0.180 NA
ATOM     31  C   UNL     1       2.905  -7.161   7.565  0.00  0.00    +0.154 C 
ATOM     32  C   UNL     1       3.633  -5.846   7.276  0.00  0.00    +0.039 C 
ATOM     33  C   UNL     1      -0.109  -7.308   9.754  0.00  0.00    +0.067 C 
ENDBRANCH  25  27
ENDBRANCH  23  25
ENDBRANCH   5  21
TORSDOF 4
