REMARK  Name = ZINC65374534
REMARK  2 active torsions:
REMARK  status: ('A' for Active; 'I' for Inactive)
REMARK    1  A    between atoms: C_3  and  C_12
REMARK    2  A    between atoms: C_5  and  C_6
REMARK                            x       y       z     vdW  Elec       q    Type
REMARK                         _______ _______ _______ _____ _____    ______ ____
ROOT
ATOM      1  C   UNL     1       3.761   1.845  -0.024  0.00  0.00    +0.018 C 
ATOM      2  C   UNL     1       4.311   1.782  -1.427  0.00  0.00    +0.053 A 
ATOM      3  C   UNL     1       5.561   1.350  -1.713  0.00  0.00    +0.035 A 
ATOM      4  N   UNL     1       5.713   1.424  -3.060  0.00  0.00    -0.348 N 
ATOM      5  C   UNL     1       4.550   1.903  -3.563  0.00  0.00    +0.196 A 
ATOM      6  N   UNL     1       3.719   2.114  -2.575  0.00  0.00    -0.242 NA
ATOM      7  H   UNL     1       6.504   1.180  -3.566  0.00  0.00    +0.166 HD
ATOM      8  C   UNL     1       6.537   0.891  -0.661  0.00  0.00    +0.036 C 
ATOM      9  C   UNL     1       6.012   1.369   0.702  0.00  0.00    -0.075 C 
ATOM     10  N   UNL     1       4.596   1.003   0.847  0.00  0.00    +0.388 N 
ATOM     11  H   UNL     1       4.312   1.129   1.806  0.00  0.00    -0.084 HD
ATOM     12  H   UNL     1       4.476   0.034   0.590  0.00  0.00    -0.084 HD
ENDROOT
BRANCH   1  15
ATOM     13  C   UNL     1      -0.016   1.351   0.009  0.00  0.00    +0.014 A 
ATOM     14  C   UNL     1       1.183   2.038   0.002  0.00  0.00    +0.010 A 
ATOM     15  C   UNL     1       2.343   1.336  -0.013  0.00  0.00    -0.018 A 
ATOM     16  S   UNL     1       1.754  -0.349  -0.017  0.00  0.00    -0.097 S 
ATOM     17  C   UNL     1       0.002  -0.004   0.002  0.00  0.00    +0.020 A 
BRANCH  17  18
ATOM     18  C   UNL     1      -1.155  -0.969   0.008  0.00  0.00    +0.189 C 
ATOM     19  C   UNL     1      -1.386  -1.540  -1.380  0.00  0.00    +0.028 C 
ATOM     20  C   UNL     1      -1.190  -2.851  -1.224  0.00  0.00    +0.133 C 
ATOM     21  N   UNL     1      -0.876  -3.141   0.058  0.00  0.00    -0.162 NA
ATOM     22  N   UNL     1      -0.836  -2.161   0.812  0.00  0.00    -0.175 NA
ENDBRANCH  17  18
ENDBRANCH   1  15
TORSDOF 2
