REMARK  Name = ZINC03670480
REMARK  12 active torsions:
REMARK  status: ('A' for Active; 'I' for Inactive)
REMARK    1  A    between atoms: C_1  and  C_2
REMARK    2  A    between atoms: C_2  and  N_3
REMARK    3  A    between atoms: N_3  and  C_4
REMARK    4  A    between atoms: N_3  and  C_6
REMARK    5  A    between atoms: C_4  and  C_5
REMARK    6  A    between atoms: C_6  and  C_7
REMARK    7  A    between atoms: C_7  and  N_8
REMARK    8  A    between atoms: C_9  and  C_11
REMARK    9  A    between atoms: C_11  and  O_31
REMARK   10  A    between atoms: N_21  and  C_22
REMARK   11  A    between atoms: C_25  and  C_29
REMARK   12  A    between atoms: C_26  and  C_28
REMARK                            x       y       z     vdW  Elec       q    Type
REMARK                         _______ _______ _______ _____ _____    ______ ____
ROOT
ATOM      1  C   UNL     1      -3.035  -5.645  -2.216  0.00  0.00    +0.247 C 
ATOM      2  C   UNL     1      -2.524  -5.998  -3.594  0.00  0.00    +0.034 A 
ATOM      3  C   UNL     1      -2.944  -5.312  -4.710  0.00  0.00    +0.025 A 
ATOM      4  C   UNL     1      -2.453  -5.664  -5.957  0.00  0.00    +0.018 A 
ATOM      5  C   UNL     1      -1.545  -6.701  -6.076  0.00  0.00    +0.017 A 
ATOM      6  C   UNL     1      -1.123  -7.391  -4.957  0.00  0.00    +0.025 A 
ATOM      7  C   UNL     1      -1.611  -7.042  -3.705  0.00  0.00    +0.043 A 
ATOM      8  N   UNL     1      -1.196  -7.726  -2.562  0.00  0.00    -0.269 N 
ATOM      9  C   UNL     1      -1.638  -7.428  -1.333  0.00  0.00    +0.314 C 
ATOM     10  O   UNL     1      -1.222  -8.079  -0.394  0.00  0.00    -0.252 OA
ATOM     11  N   UNL     1      -2.521  -6.443  -1.090  0.00  0.00    -0.214 N 
ATOM     12 BR   UNL     1      -3.025  -4.726  -7.496  0.00  0.00    -0.050 Br
ATOM     13  H   UNL     1      -0.559  -8.451  -2.662  0.00  0.00    +0.156 HD
ENDROOT
BRANCH  11  14
ATOM     14  C   UNL     1      -2.945  -6.178   0.217  0.00  0.00    +0.042 A 
ATOM     15  C   UNL     1      -4.251  -6.463   0.596  0.00  0.00    +0.024 A 
ATOM     16  C   UNL     1      -4.666  -6.201   1.887  0.00  0.00    +0.005 A 
ATOM     17  C   UNL     1      -3.784  -5.655   2.802  0.00  0.00    -0.047 A 
ATOM     18  C   UNL     1      -2.483  -5.371   2.427  0.00  0.00    -0.046 A 
ATOM     19  C   UNL     1      -2.060  -5.637   1.140  0.00  0.00    +0.027 A 
ATOM     20  C   UNL     1      -1.525  -4.777   3.427  0.00  0.00    +0.044 C 
ATOM     21  C   UNL     1      -4.241  -5.370   4.209  0.00  0.00    +0.044 C 
ENDBRANCH  11  14
BRANCH   1  23
ATOM     22  N   UNL     1      -1.416  -3.819  -1.816  0.00  0.00    -0.313 N 
ATOM     23  C   UNL     1      -2.702  -4.200  -1.953  0.00  0.00    +0.269 C 
ATOM     24  O   UNL     1      -3.590  -3.379  -1.864  0.00  0.00    -0.270 OA
ATOM     25  H   UNL     1      -0.706  -4.476  -1.888  0.00  0.00    +0.149 HD
BRANCH  22  26
ATOM     26  C   UNL     1      -1.091  -2.413  -1.560  0.00  0.00    +0.086 C 
BRANCH  26  27
ATOM     27  C   UNL     1       0.426  -2.253  -1.448  0.00  0.00    -0.060 C 
BRANCH  27  28
ATOM     28  N   UNL     1       0.751  -0.843  -1.192  0.00  0.00    +0.380 N 
ATOM     29  H   UNL     1       0.338  -0.267  -1.909  0.00  0.00    -0.082 HD
BRANCH  28  31
ATOM     30  C   UNL     1       0.434   1.052   0.327  0.00  0.00    -0.017 C 
ATOM     31  C   UNL     1       0.221  -0.449   0.120  0.00  0.00    -0.082 C 
ENDBRANCH  28  31
BRANCH  28  32
ATOM     32  C   UNL     1       2.210  -0.668  -1.203  0.00  0.00    -0.082 C 
ATOM     33  C   UNL     1       2.745  -0.940  -2.610  0.00  0.00    -0.017 C 
ENDBRANCH  28  32
ENDBRANCH  27  28
ENDBRANCH  26  27
ENDBRANCH  22  26
ENDBRANCH   1  23
BRANCH   1  34
ATOM     34  O   UNL     1      -4.459  -5.769  -2.230  0.00  0.00    -0.360 OA
ATOM     35  H   UNL     1      -4.894  -5.233  -2.907  0.00  0.00    +0.213 HD
ENDBRANCH   1  34
TORSDOF 8
