REMARK  Name = ZINC45552426
REMARK  11 active torsions:
REMARK  status: ('A' for Active; 'I' for Inactive)
REMARK    1  A    between atoms: C_1  and  C_2
REMARK    2  A    between atoms: C_2  and  C_3
REMARK    3  A    between atoms: C_2  and  N_4
REMARK    4  A    between atoms: N_4  and  C_5
REMARK    5  A    between atoms: C_5  and  C_6
REMARK    6  A    between atoms: C_5  and  C_7
REMARK    7  A    between atoms: C_5  and  C_18
REMARK    8  A    between atoms: C_7  and  C_8
REMARK    9  A    between atoms: C_8  and  C_9
REMARK   10  A    between atoms: C_9  and  S_10
REMARK   11  A    between atoms: S_10  and  C_11
REMARK                            x       y       z     vdW  Elec       q    Type
REMARK                         _______ _______ _______ _____ _____    ______ ____
ROOT
ATOM      1  C   UNL     1      -2.116  -0.233  -1.101  0.00  0.00    +0.007 C 
ATOM      2  C   UNL     1      -1.516  -1.022  -2.266  0.00  0.00    -0.001 C 
ENDROOT
BRANCH   1   3
ATOM      3  C   UNL     1      -2.049   1.241  -1.405  0.00  0.00    +0.199 C 
ATOM      4  O   UNL     1      -1.907   1.619  -2.549  0.00  0.00    -0.278 OA
ATOM      5  N   UNL     1      -2.146   2.141  -0.406  0.00  0.00    -0.330 N 
ATOM      6  H   UNL     1      -2.260   1.839   0.509  0.00  0.00    +0.145 HD
ATOM      7  H   UNL     1      -2.103   3.090  -0.601  0.00  0.00    +0.145 HD
ENDBRANCH   1   3
BRANCH   1   8
ATOM      8  N   UNL     1      -1.356  -0.515   0.124  0.00  0.00    +0.390 N 
ATOM      9  H   UNL     1      -1.502  -1.476   0.396  0.00  0.00    -0.084 HD
ATOM     10  H   UNL     1      -1.672   0.095   0.864  0.00  0.00    -0.084 HD
BRANCH   8  12
ATOM     11  C   UNL     1       0.320   1.205  -0.350  0.00  0.00    -0.014 C 
ATOM     12  C   UNL     1       0.074  -0.288  -0.122  0.00  0.00    -0.077 C 
ATOM     13  C   UNL     1       0.882  -0.759   1.088  0.00  0.00    -0.014 C 
ENDBRANCH   8  12
ENDBRANCH   1   8
BRANCH   1  14
ATOM     14  C   UNL     1      -3.575  -0.647  -0.903  0.00  0.00    -0.003 C 
BRANCH  14  15
ATOM     15  C   UNL     1      -4.367  -0.353  -2.179  0.00  0.00    +0.010 C 
BRANCH  15  16
ATOM     16  C   UNL     1      -5.826  -0.766  -1.981  0.00  0.00    +0.074 C 
BRANCH  16  17
ATOM     17  S   UNL     1      -6.764  -0.418  -3.494  0.00  0.00    -0.124 S 
BRANCH  17  18
ATOM     18  C   UNL     1      -8.402  -0.943  -3.111  0.00  0.00    +0.022 A 
ATOM     19  C   UNL     1      -8.688  -1.472  -1.859  0.00  0.00    +0.016 A 
ATOM     20  C   UNL     1      -9.973  -1.882  -1.562  0.00  0.00    +0.001 A 
ATOM     21  C   UNL     1     -10.975  -1.766  -2.509  0.00  0.00    +0.001 A 
ATOM     22  C   UNL     1     -10.694  -1.239  -3.756  0.00  0.00    +0.016 A 
ATOM     23  C   UNL     1      -9.412  -0.822  -4.059  0.00  0.00    +0.031 A 
ATOM     24 BR   UNL     1      -9.030  -0.096  -5.763  0.00  0.00    -0.049 Br
ENDBRANCH  17  18
ENDBRANCH  16  17
ENDBRANCH  15  16
ENDBRANCH  14  15
ENDBRANCH   1  14
TORSDOF 8
