REMARK  Name = ZINC66894729
REMARK  8 active torsions:
REMARK  status: ('A' for Active; 'I' for Inactive)
REMARK    1  A    between atoms: C_1  and  O_2
REMARK    2  A    between atoms: O_2  and  C_3
REMARK    3  A    between atoms: C_8  and  C_9
REMARK    4  A    between atoms: C_9  and  C_10
REMARK    5  A    between atoms: N_15  and  C_17
REMARK    6  A    between atoms: C_17  and  C_18
REMARK    7  A    between atoms: N_20  and  C_21
REMARK    8  A    between atoms: C_22  and  C_26
REMARK                            x       y       z     vdW  Elec       q    Type
REMARK                         _______ _______ _______ _____ _____    ______ ____
ROOT
ATOM      1  C   UNL     1       0.530  -3.003   1.419  0.00  0.00    -0.023 C 
ATOM      2  C   UNL     1       0.923  -1.638   1.990  0.00  0.00    +0.000 C 
ATOM      3  C   UNL     1       1.506  -1.832   3.393  0.00  0.00    -0.018 C 
ATOM      4  C   UNL     1       2.694  -2.793   3.317  0.00  0.00    -0.078 C 
ATOM      5  N   UNL     1       2.248  -4.088   2.788  0.00  0.00    +0.386 N 
ATOM      6  C   UNL     1       1.753  -3.922   1.416  0.00  0.00    -0.074 C 
ATOM      7  H   UNL     1       1.507  -4.450   3.369  0.00  0.00    -0.081 HD
ENDROOT
BRANCH   1   8
ATOM      8  C   UNL     1       0.018  -2.829  -0.013  0.00  0.00    +0.040 C 
BRANCH   8  14
ATOM      9  C   UNL     1      -1.200  -0.637   0.010  0.00  0.00    +0.123 A 
ATOM     10  C   UNL     1      -2.375   0.101   0.019  0.00  0.00    +0.046 A 
ATOM     11  C   UNL     1      -3.596  -0.545   0.027  0.00  0.00    +0.004 A 
ATOM     12  C   UNL     1      -3.648  -1.927   0.026  0.00  0.00    +0.000 A 
ATOM     13  C   UNL     1      -2.479  -2.665   0.017  0.00  0.00    +0.007 A 
ATOM     14  C   UNL     1      -1.255  -2.023   0.003  0.00  0.00    -0.006 A 
BRANCH   9  16
ATOM     15  C   UNL     1      -0.017   1.425   0.010  0.00  0.00    +0.277 C 
ATOM     16  O   UNL     1       0.002  -0.004   0.002  0.00  0.00    -0.495 OA
ENDBRANCH   9  16
ENDBRANCH   8  14
ENDBRANCH   1   8
BRANCH   5  17
ATOM     17  C   UNL     1       3.374  -5.030   2.790  0.00  0.00    +0.019 C 
BRANCH  17  18
ATOM     18  C   UNL     1       3.798  -5.304   4.210  0.00  0.00    +0.201 C 
ATOM     19  O   UNL     1       3.218  -4.767   5.130  0.00  0.00    -0.278 OA
ATOM     20  N   UNL     1       4.821  -6.146   4.458  0.00  0.00    -0.281 N 
ATOM     21  H   UNL     1       5.284  -6.576   3.722  0.00  0.00    +0.155 HD
BRANCH  20  22
ATOM     22  C   UNL     1       5.210  -6.399   5.765  0.00  0.00    +0.084 A 
ATOM     23  C   UNL     1       6.234  -7.224   6.205  0.00  0.00    +0.065 A 
ATOM     24  C   UNL     1       6.428  -7.307   7.635  0.00  0.00    +0.022 A 
ATOM     25  C   UNL     1       5.588  -6.569   8.384  0.00  0.00    +0.048 A 
ATOM     26  S   UNL     1       4.555  -5.770   7.176  0.00  0.00    -0.081 S 
BRANCH  23  27
ATOM     27  C   UNL     1       7.077  -7.974   5.268  0.00  0.00    +0.244 C 
ATOM     28  O   UNL     1       6.886  -7.881   4.070  0.00  0.00    -0.270 OA
ATOM     29  N   UNL     1       8.063  -8.766   5.734  0.00  0.00    -0.325 N 
ATOM     30  H   UNL     1       8.215  -8.840   6.689  0.00  0.00    +0.145 HD
ATOM     31  H   UNL     1       8.620  -9.262   5.114  0.00  0.00    +0.145 HD
ENDBRANCH  23  27
ENDBRANCH  20  22
ENDBRANCH  17  18
ENDBRANCH   5  17
TORSDOF 7
