REMARK  Name = ZINC34747243
REMARK  8 active torsions:
REMARK  status: ('A' for Active; 'I' for Inactive)
REMARK    1  A    between atoms: C_1  and  C_2
REMARK    2  A    between atoms: C_5  and  C_9
REMARK    3  A    between atoms: C_6  and  C_8
REMARK    4  A    between atoms: C_9  and  N_10
REMARK    5  A    between atoms: N_23  and  C_26
REMARK    6  A    between atoms: C_26  and  C_27
REMARK    7  A    between atoms: C_27  and  C_28
REMARK    8  A    between atoms: C_27  and  C_29
REMARK                            x       y       z     vdW  Elec       q    Type
REMARK                         _______ _______ _______ _____ _____    ______ ____
ROOT
ATOM      1  N   UNL     1      -1.607  -3.653   0.016  0.00  0.00    -0.276 N 
ATOM      2  C   UNL     1      -2.287  -3.803   1.167  0.00  0.00    +0.264 A 
ATOM      3  O   UNL     1      -1.697  -3.832   2.234  0.00  0.00    -0.267 OA
ATOM      4  C   UNL     1      -3.712  -3.927   1.123  0.00  0.00    +0.076 A 
ATOM      5  C   UNL     1      -4.644  -4.098   2.239  0.00  0.00    -0.023 A 
ATOM      6  C   UNL     1      -5.954  -4.191   1.935  0.00  0.00    -0.004 A 
ATOM      7  S   UNL     1      -6.026  -4.059   0.168  0.00  0.00    -0.073 S 
ATOM      8  C   UNL     1      -4.290  -3.880  -0.157  0.00  0.00    +0.117 A 
ATOM      9  N   UNL     1      -3.561  -3.730  -1.256  0.00  0.00    -0.208 NA
ATOM     10  C   UNL     1      -2.251  -3.612  -1.186  0.00  0.00    +0.202 A 
ATOM     11  N   UNL     1      -1.523  -3.452  -2.339  0.00  0.00    -0.304 N 
ATOM     12  C   UNL     1      -1.784  -4.288  -3.521  0.00  0.00    +0.089 C 
ATOM     13  C   UNL     1      -1.945  -3.371  -4.738  0.00  0.00    -0.060 C 
ATOM     14  N   UNL     1      -0.765  -2.506  -4.857  0.00  0.00    +0.382 N 
ATOM     15  C   UNL     1      -0.682  -1.610  -3.696  0.00  0.00    -0.060 C 
ATOM     16  C   UNL     1      -0.463  -2.436  -2.429  0.00  0.00    +0.089 C 
ATOM     17  C   UNL     1      -7.097  -4.370   2.886  0.00  0.00    +0.043 C 
ATOM     18  C   UNL     1      -6.532  -4.805   4.246  0.00  0.00    +0.005 C 
ATOM     19  C   UNL     1      -5.362  -3.885   4.609  0.00  0.00    +0.005 C 
ATOM     20  C   UNL     1      -4.173  -4.170   3.690  0.00  0.00    +0.037 C 
ATOM     21  H   UNL     1       0.066  -3.076  -4.899  0.00  0.00    -0.082 HD
ENDROOT
BRANCH   1  22
ATOM     22  C   UNL     1      -0.148  -3.525   0.054  0.00  0.00    +0.163 C 
BRANCH  22  27
ATOM     23  C   UNL     1       2.140  -8.296   2.378  0.00  0.00    +0.044 C 
ATOM     24  C   UNL     1       1.543  -7.051   1.772  0.00  0.00    -0.050 A 
ATOM     25  C   UNL     1       1.430  -5.900   2.529  0.00  0.00    +0.004 A 
ATOM     26  C   UNL     1       0.882  -4.759   1.972  0.00  0.00    +0.006 A 
ATOM     27  C   UNL     1       0.449  -4.769   0.660  0.00  0.00    -0.025 A 
ATOM     28  C   UNL     1       0.563  -5.920  -0.097  0.00  0.00    -0.045 A 
ATOM     29  C   UNL     1       1.115  -7.060   0.458  0.00  0.00    +0.007 A 
ATOM     30  C   UNL     1       0.090  -5.931  -1.528  0.00  0.00    +0.044 C 
ENDBRANCH  22  27
ENDBRANCH   1  22
BRANCH  14  31
ATOM     31  C   UNL     1      -0.868  -1.705  -6.084  0.00  0.00    -0.076 C 
BRANCH  31  32
ATOM     32  C   UNL     1      -0.771  -2.625  -7.303  0.00  0.00    -0.034 C 
ATOM     33  C   UNL     1      -0.977  -1.805  -8.578  0.00  0.00    +0.005 C 
ATOM     34  C   UNL     1       0.610  -3.283  -7.336  0.00  0.00    +0.005 C 
ENDBRANCH  31  32
ENDBRANCH  14  31
TORSDOF 4
