REMARK  Name = ZINC39529819
REMARK  7 active torsions:
REMARK  status: ('A' for Active; 'I' for Inactive)
REMARK    1  A    between atoms: C_4  and  C_7
REMARK    2  A    between atoms: C_9  and  S_27
REMARK    3  A    between atoms: C_12  and  N_13
REMARK    4  A    between atoms: C_17  and  C_20
REMARK    5  A    between atoms: C_25  and  O_26
REMARK    6  A    between atoms: S_27  and  O_30
REMARK    7  A    between atoms: O_30  and  C_31
REMARK                            x       y       z     vdW  Elec       q    Type
REMARK                         _______ _______ _______ _____ _____    ______ ____
ROOT
ATOM      1  C   UNL     1       3.698  -0.688  -0.037  0.00  0.00    +0.005 A 
ATOM      2  C   UNL     1       4.679  -0.343  -0.964  0.00  0.00    +0.041 A 
ATOM      3  C   UNL     1       5.883  -1.017  -0.976  0.00  0.00    +0.129 A 
ATOM      4  C   UNL     1       6.122  -2.036  -0.070  0.00  0.00    +0.032 A 
ATOM      5  C   UNL     1       5.157  -2.387   0.855  0.00  0.00    +0.026 A 
ATOM      6  C   UNL     1       3.944  -1.715   0.882  0.00  0.00    +0.037 A 
ENDROOT
BRANCH   6   7
ATOM      7  N   UNL     1       2.970  -2.065   1.817  0.00  0.00    -0.332 N 
ATOM      8  C   UNL     1       1.968  -3.099   1.516  0.00  0.00    +0.086 C 
ATOM      9  C   UNL     1       1.946  -4.104   2.672  0.00  0.00    -0.063 C 
ATOM     10  N   UNL     1       1.719  -3.391   3.935  0.00  0.00    +0.386 N 
ATOM     11  C   UNL     1       2.849  -2.495   4.213  0.00  0.00    -0.020 C 
ATOM     12  C   UNL     1       2.920  -1.414   3.136  0.00  0.00    +0.094 C 
ATOM     13  H   UNL     1       0.871  -2.849   3.867  0.00  0.00    -0.085 HD
ATOM     14  H   UNL     1       1.629  -4.059   4.686  0.00  0.00    -0.085 HD
BRANCH  11  15
ATOM     15  C   UNL     1       2.659  -1.851   5.562  0.00  0.00    -0.018 A 
ATOM     16  C   UNL     1       1.403  -1.809   6.138  0.00  0.00    +0.005 A 
ATOM     17  C   UNL     1       1.229  -1.217   7.375  0.00  0.00    +0.000 A 
ATOM     18  C   UNL     1       2.309  -0.667   8.040  0.00  0.00    +0.004 A 
ATOM     19  C   UNL     1       3.566  -0.707   7.469  0.00  0.00    +0.045 A 
ATOM     20  C   UNL     1       3.745  -1.305   6.230  0.00  0.00    +0.118 A 
BRANCH  20  21
ATOM     21  O   UNL     1       4.982  -1.351   5.668  0.00  0.00    -0.507 OA
ATOM     22  H   UNL     1       5.191  -0.587   5.114  0.00  0.00    +0.292 HD
ENDBRANCH  20  21
ENDBRANCH  11  15
ENDBRANCH   6   7
BRANCH   1  26
ATOM     23  C   UNL     1      -0.017   1.379   0.010  0.00  0.00    +0.000 A 
ATOM     24  C   UNL     1       1.169   2.092   0.002  0.00  0.00    +0.001 A 
ATOM     25  C   UNL     1       2.377   1.426  -0.013  0.00  0.00    +0.008 A 
ATOM     26  C   UNL     1       2.402   0.033  -0.021  0.00  0.00    -0.016 A 
ATOM     27  C   UNL     1       1.205  -0.680  -0.013  0.00  0.00    +0.008 A 
ATOM     28  C   UNL     1       0.002  -0.004   0.002  0.00  0.00    +0.001 A 
ENDBRANCH   1  26
BRANCH   3  29
ATOM     29  S   UNL     1       7.123  -0.578  -2.149  0.00  0.00    +0.151 S 
ATOM     30  O   UNL     1       7.951  -1.722  -2.311  0.00  0.00    -0.131 OA
ATOM     31  O   UNL     1       6.450   0.036  -3.240  0.00  0.00    -0.131 OA
BRANCH  29  32
ATOM     32  O   UNL     1       7.988   0.498  -1.509  0.00  0.00    -0.342 OA
BRANCH  32  33
ATOM     33  C   UNL     1       8.844   0.030  -0.564  0.00  0.00    +0.157 A 
ATOM     34  C   UNL     1       8.443  -0.044   0.762  0.00  0.00    +0.048 A 
ATOM     35  C   UNL     1       9.316  -0.521   1.721  0.00  0.00    +0.004 A 
ATOM     36  C   UNL     1      10.588  -0.925   1.360  0.00  0.00    +0.000 A 
ATOM     37  C   UNL     1      10.990  -0.852   0.039  0.00  0.00    +0.004 A 
ATOM     38  C   UNL     1      10.120  -0.381  -0.924  0.00  0.00    +0.048 A 
ENDBRANCH  32  33
ENDBRANCH  29  32
ENDBRANCH   3  29
TORSDOF 7
