REMARK  Name = ZINC63515107
REMARK  9 active torsions:
REMARK  status: ('A' for Active; 'I' for Inactive)
REMARK    1  A    between atoms: C_1  and  C_2
REMARK    2  A    between atoms: C_2  and  C_4
REMARK    3  A    between atoms: C_6  and  N_18
REMARK    4  A    between atoms: N_9  and  C_11
REMARK    5  A    between atoms: N_18  and  C_19
REMARK    6  A    between atoms: C_19  and  C_20
REMARK    7  A    between atoms: C_20  and  C_21
REMARK    8  A    between atoms: C_24  and  O_30
REMARK    9  A    between atoms: O_30  and  C_31
REMARK                            x       y       z     vdW  Elec       q    Type
REMARK                         _______ _______ _______ _____ _____    ______ ____
ROOT
ATOM      1  C   UNL     1      -0.058  -0.841  -1.166  0.00  0.00    +0.172 C 
ATOM      2  C   UNL     1       1.283  -0.999  -1.935  0.00  0.00    +0.166 C 
ATOM      3  N   UNL     1       1.798  -2.272  -1.373  0.00  0.00    -0.207 NA
ATOM      4  N   UNL     1       0.744  -2.943  -0.818  0.00  0.00    -0.199 N 
ATOM      5  N   UNL     1      -0.438  -2.270  -0.999  0.00  0.00    -0.213 NA
ATOM      6  H   UNL     1       2.245  -2.827  -2.087  0.00  0.00    +0.148 HD
ATOM      7  H   UNL     1      -0.928  -2.612  -1.812  0.00  0.00    +0.147 HD
ENDROOT
BRANCH   4   8
ATOM      8  C   UNL     1       0.858  -4.165  -0.148  0.00  0.00    +0.062 A 
ATOM      9  C   UNL     1       2.100  -4.770  -0.009  0.00  0.00    +0.029 A 
ATOM     10  C   UNL     1       2.210  -5.977   0.653  0.00  0.00    +0.040 A 
ATOM     11  C   UNL     1       1.082  -6.584   1.178  0.00  0.00    +0.124 A 
ATOM     12  C   UNL     1      -0.158  -5.984   1.041  0.00  0.00    +0.040 A 
ATOM     13  C   UNL     1      -0.272  -4.774   0.384  0.00  0.00    +0.029 A 
ATOM     14  F   UNL     1       1.192  -7.765   1.825  0.00  0.00    -0.205 F 
ENDBRANCH   4   8
BRANCH   1  16
ATOM     15  C   UNL     1      -0.008   1.322   0.295  0.00  0.00    +0.088 C 
ATOM     16  C   UNL     1       0.153  -0.171   0.168  0.00  0.00    +0.152 C 
ATOM     17  O   UNL     1       0.451  -0.831   1.134  0.00  0.00    -0.296 OA
ENDBRANCH   1  16
BRANCH   2  18
ATOM     18  N   UNL     1       2.194   0.115  -1.640  0.00  0.00    -0.298 NA
ATOM     19  H   UNL     1       1.710   0.862  -1.165  0.00  0.00    +0.123 HD
BRANCH  18  20
ATOM     20  C   UNL     1       2.842   0.604  -2.864  0.00  0.00    +0.087 C 
BRANCH  20  21
ATOM     21  C   UNL     1       3.781   1.761  -2.517  0.00  0.00    +0.048 C 
BRANCH  21  22
ATOM     22  C   UNL     1       4.447   2.261  -3.773  0.00  0.00    -0.040 C 
ATOM     23  C   UNL     1       4.049   3.298  -4.546  0.00  0.00    +0.002 A 
ATOM     24  C   UNL     1       2.923   4.233  -4.454  0.00  0.00    +0.055 A 
ATOM     25  C   UNL     1       2.775   5.194  -5.397  0.00  0.00    +0.121 A 
ATOM     26  C   UNL     1       3.668   5.332  -6.474  0.00  0.00    +0.047 A 
ATOM     27  C   UNL     1       4.733   4.519  -6.645  0.00  0.00    +0.029 A 
ATOM     28  C   UNL     1       4.989   3.444  -5.681  0.00  0.00    +0.043 A 
ATOM     29  N   UNL     1       5.930   2.535  -5.613  0.00  0.00    -0.380 N 
ATOM     30  C   UNL     1       5.697   1.711  -4.421  0.00  0.00    +0.144 C 
ATOM     31  H   UNL     1       6.660   2.427  -6.242  0.00  0.00    +0.160 HD
BRANCH  25  32
ATOM     32  O   UNL     1       1.727   6.054  -5.300  0.00  0.00    -0.495 OA
ATOM     33  C   UNL     1       1.609   7.051  -6.317  0.00  0.00    +0.277 C 
ENDBRANCH  25  32
ENDBRANCH  21  22
ENDBRANCH  20  21
ENDBRANCH  18  20
ENDBRANCH   2  18
TORSDOF 7
