REMARK  Name = ZINC46347486
REMARK  9 active torsions:
REMARK  status: ('A' for Active; 'I' for Inactive)
REMARK    1  A    between atoms: C_1  and  N_2
REMARK    2  A    between atoms: N_2  and  C_3
REMARK    3  A    between atoms: N_2  and  C_4
REMARK    4  A    between atoms: C_4  and  C_6
REMARK    5  A    between atoms: C_4  and  C_22
REMARK    6  A    between atoms: C_6  and  N_7
REMARK    7  A    between atoms: N_10  and  N_11
REMARK    8  A    between atoms: C_12  and  C_14
REMARK    9  A    between atoms: C_14  and  C_15
REMARK                            x       y       z     vdW  Elec       q    Type
REMARK                         _______ _______ _______ _____ _____    ______ ____
ROOT
ATOM      1  N   UNL     1       0.072  -2.013   0.995  0.00  0.00    -0.299 N 
ATOM      2  C   UNL     1       0.491  -3.276   1.211  0.00  0.00    +0.316 C 
ATOM      3  O   UNL     1       0.136  -4.170   0.466  0.00  0.00    -0.251 OA
ATOM      4  N   UNL     1       1.303  -3.549   2.251  0.00  0.00    -0.218 N 
ATOM      5  H   UNL     1       0.356  -1.300   1.589  0.00  0.00    +0.150 HD
ATOM      6  H   UNL     1       1.605  -4.457   2.406  0.00  0.00    +0.174 HD
ENDROOT
BRANCH   4   7
ATOM      7  N   UNL     1       1.712  -2.519   3.108  0.00  0.00    -0.233 N 
ATOM      8  C   UNL     1       2.525  -2.792   4.149  0.00  0.00    +0.233 C 
ATOM      9  O   UNL     1       2.902  -3.928   4.343  0.00  0.00    -0.274 OA
ATOM     10  H   UNL     1       1.411  -1.610   2.954  0.00  0.00    +0.173 HD
BRANCH   8  11
ATOM     11  C   UNL     1       2.965  -1.684   5.071  0.00  0.00    +0.132 C 
BRANCH  11  12
ATOM     12  C   UNL     1       3.861  -2.249   6.143  0.00  0.00    -0.038 A 
ATOM     13  C   UNL     1       3.316  -2.712   7.326  0.00  0.00    +0.005 A 
ATOM     14  C   UNL     1       4.137  -3.231   8.309  0.00  0.00    +0.020 A 
ATOM     15  C   UNL     1       5.505  -3.287   8.110  0.00  0.00    +0.041 A 
ATOM     16  C   UNL     1       6.050  -2.824   6.925  0.00  0.00    +0.020 A 
ATOM     17  C   UNL     1       5.227  -2.310   5.940  0.00  0.00    +0.005 A 
ATOM     18 CL   UNL     1       6.537  -3.938   9.344  0.00  0.00    -0.084 Cl
ENDBRANCH  11  12
ENDBRANCH   8  11
ENDBRANCH   4   7
BRANCH   1  19
ATOM     19  C   UNL     1      -0.811  -1.717  -0.136  0.00  0.00    +0.095 C 
BRANCH  19  20
ATOM     20  C   UNL     1      -1.238  -0.249  -0.078  0.00  0.00    -0.020 C 
BRANCH  20  21
ATOM     21  C   UNL     1      -2.080  -0.018   1.150  0.00  0.00    -0.052 A 
ATOM     22  C   UNL     1      -1.527   0.550   2.283  0.00  0.00    +0.009 A 
ATOM     23  C   UNL     1      -2.312   0.744   3.371  0.00  0.00    +0.045 A 
ATOM     24  S   UNL     1      -3.885   0.114   2.809  0.00  0.00    -0.105 S 
ATOM     25  C   UNL     1      -3.391  -0.360   1.160  0.00  0.00    +0.047 A 
ENDBRANCH  20  21
BRANCH  20  27
ATOM     26  C   UNL     1      -2.469   1.477  -1.200  0.00  0.00    -0.096 C 
ATOM     27  N   UNL     1      -2.021   0.081  -1.277  0.00  0.00    +0.382 N 
ATOM     28  C   UNL     1      -1.186  -0.101  -2.472  0.00  0.00    -0.096 C 
ATOM     29  H   UNL     1      -2.823  -0.528  -1.332  0.00  0.00    -0.082 HD
ENDBRANCH  20  27
ENDBRANCH  19  20
ENDBRANCH   1  19
TORSDOF 7
