REMARK  Name = ZINC09777243
REMARK  14 active torsions:
REMARK  status: ('A' for Active; 'I' for Inactive)
REMARK    1  A    between atoms: C_1  and  C_2
REMARK    2  A    between atoms: C_4  and  C_46
REMARK    3  A    between atoms: C_6  and  N_8
REMARK    4  A    between atoms: C_9  and  C_11
REMARK    5  A    between atoms: N_22  and  C_39
REMARK    6  A    between atoms: C_23  and  C_25
REMARK    7  A    between atoms: N_27  and  C_28
REMARK    8  A    between atoms: C_33  and  C_38
REMARK    9  A    between atoms: C_35  and  C_37
REMARK   10  A    between atoms: C_39  and  C_40
REMARK   11  A    between atoms: C_40  and  C_41
REMARK   12  A    between atoms: C_41  and  N_42
REMARK   13  A    between atoms: N_42  and  C_43
REMARK   14  A    between atoms: N_42  and  C_44
REMARK                            x       y       z     vdW  Elec       q    Type
REMARK                         _______ _______ _______ _____ _____    ______ ____
ROOT
ATOM      1  C   UNL     1       0.063  -2.707   4.970  0.00  0.00    +0.123 C 
ATOM      2  C   UNL     1      -1.212  -3.587   5.177  0.00  0.00    +0.155 C 
ATOM      3  C   UNL     1      -1.055  -4.287   6.532  0.00  0.00    +0.004 C 
ATOM      4  C   UNL     1      -1.237  -3.361   7.482  0.00  0.00    +0.009 C 
ATOM      5  C   UNL     1      -1.462  -2.108   6.714  0.00  0.00    +0.127 C 
ATOM      6  C   UNL     1      -0.085  -1.666   6.094  0.00  0.00    +0.128 C 
ATOM      7  C   UNL     1      -0.390  -0.271   5.629  0.00  0.00    +0.223 C 
ATOM      8  O   UNL     1       0.188   0.314   4.737  0.00  0.00    -0.275 OA
ATOM      9  N   UNL     1      -1.415   0.233   6.363  0.00  0.00    -0.287 N 
ATOM     10  C   UNL     1      -1.951  -0.823   7.306  0.00  0.00    +0.198 C 
ATOM     11  O   UNL     1      -2.192  -2.538   5.513  0.00  0.00    -0.358 OA
ENDROOT
BRANCH   1  13
ATOM     12  N   UNL     1       1.206  -1.720   3.010  0.00  0.00    -0.285 N 
ATOM     13  C   UNL     1       0.046  -2.044   3.616  0.00  0.00    +0.224 C 
ATOM     14  O   UNL     1      -1.010  -1.802   3.072  0.00  0.00    -0.275 OA
ATOM     15  H   UNL     1       2.051  -1.973   3.414  0.00  0.00    +0.155 HD
BRANCH  12  21
ATOM     16  C   UNL     1       3.234   1.622   0.029  0.00  0.00    +0.044 C 
ATOM     17  C   UNL     1       2.161   0.607   0.329  0.00  0.00    -0.048 A 
ATOM     18  C   UNL     1       1.159   0.368  -0.594  0.00  0.00    +0.006 A 
ATOM     19  C   UNL     1       0.173  -0.563  -0.323  0.00  0.00    -0.048 A 
ATOM     20  C   UNL     1       0.186  -1.257   0.871  0.00  0.00    +0.026 A 
ATOM     21  C   UNL     1       1.190  -1.019   1.800  0.00  0.00    +0.034 A 
ATOM     22  C   UNL     1       2.182  -0.088   1.522  0.00  0.00    +0.026 A 
ATOM     23  C   UNL     1      -0.917  -0.820  -1.332  0.00  0.00    +0.044 C 
ENDBRANCH  12  21
ENDBRANCH   1  13
BRANCH  10  24
ATOM     24  C   UNL     1      -1.416  -0.648   8.704  0.00  0.00    +0.237 C 
ATOM     25  O   UNL     1      -0.460   0.072   8.902  0.00  0.00    -0.274 OA
ATOM     26  N   UNL     1      -2.001  -1.290   9.734  0.00  0.00    -0.311 N 
ATOM     27  H   UNL     1      -2.766  -1.866   9.576  0.00  0.00    +0.149 HD
BRANCH  26  28
ATOM     28  C   UNL     1      -1.482  -1.120  11.093  0.00  0.00    +0.076 C 
ATOM     29  C   UNL     1      -0.331  -2.101  11.326  0.00  0.00    +0.022 C 
ATOM     30  C   UNL     1       0.212  -1.923  12.745  0.00  0.00    +0.002 C 
ATOM     31  C   UNL     1      -0.904  -2.198  13.756  0.00  0.00    +0.003 C 
ATOM     32  C   UNL     1      -2.055  -1.217  13.523  0.00  0.00    -0.009 C 
ATOM     33  C   UNL     1      -2.597  -1.395  12.104  0.00  0.00    +0.009 C 
ATOM     34  C   UNL     1      -3.104  -2.827  11.927  0.00  0.00    +0.009 C 
ATOM     35  C   UNL     1      -3.170  -1.491  14.534  0.00  0.00    +0.008 C 
ENDBRANCH  26  28
ENDBRANCH  10  24
BRANCH   9  36
ATOM     36  C   UNL     1      -1.905   1.610   6.271  0.00  0.00    +0.107 C 
BRANCH  36  37
ATOM     37  C   UNL     1      -3.009   1.689   5.213  0.00  0.00    +0.000 C 
BRANCH  37  38
ATOM     38  C   UNL     1      -3.521   3.127   5.117  0.00  0.00    -0.078 C 
BRANCH  38  39
ATOM     39  N   UNL     1      -4.580   3.203   4.102  0.00  0.00    +0.376 N 
ATOM     40  C   UNL     1      -5.155   4.554   4.093  0.00  0.00    -0.097 C 
ATOM     41  C   UNL     1      -4.014   2.903   2.780  0.00  0.00    -0.097 C 
ATOM     42  H   UNL     1      -5.302   2.532   4.319  0.00  0.00    -0.083 HD
ENDBRANCH  38  39
ENDBRANCH  37  38
ENDBRANCH  36  37
ENDBRANCH   9  36
TORSDOF 8
