REMARK  Name = ZINC17287659
REMARK  11 active torsions:
REMARK  status: ('A' for Active; 'I' for Inactive)
REMARK    1  A    between atoms: C_1  and  C_2
REMARK    2  A    between atoms: C_3  and  N_9
REMARK    3  A    between atoms: C_10  and  C_12
REMARK    4  A    between atoms: C_12  and  N_13
REMARK    5  A    between atoms: C_14  and  C_16
REMARK    6  A    between atoms: C_16  and  N_51
REMARK    7  A    between atoms: C_17  and  N_51
REMARK    8  A    between atoms: C_18  and  C_19
REMARK    9  A    between atoms: C_18  and  N_51
REMARK   10  A    between atoms: C_19  and  O_20
REMARK   11  A    between atoms: O_20  and  C_21
REMARK                            x       y       z     vdW  Elec       q    Type
REMARK                         _______ _______ _______ _____ _____    ______ ____
ROOT
ATOM      1  N   UNL     1      -0.238   8.952   2.605  0.00  0.00    -0.308 N 
ATOM      2  C   UNL     1       0.290   7.723   2.442  0.00  0.00    +0.197 C 
ATOM      3  O   UNL     1       0.073   6.856   3.262  0.00  0.00    -0.278 OA
ATOM      4  H   UNL     1      -0.065   9.645   1.949  0.00  0.00    +0.149 HD
ENDROOT
BRANCH   1   5
ATOM      5  C   UNL     1      -1.075   9.241   3.772  0.00  0.00    +0.200 C 
BRANCH   5   7
ATOM      6  N   UNL     1      -2.323  11.168   4.694  0.00  0.00    -0.284 N 
ATOM      7  C   UNL     1      -1.536  10.675   3.717  0.00  0.00    +0.234 C 
ATOM      8  O   UNL     1      -1.200  11.385   2.793  0.00  0.00    -0.274 OA
ATOM      9  H   UNL     1      -2.658  10.581   5.390  0.00  0.00    +0.155 HD
BRANCH   6  12
ATOM     10  C   UNL     1      -4.723  11.951   6.007  0.00  0.00    +0.047 C 
ATOM     11  C   UNL     1      -3.819  12.952   5.334  0.00  0.00    -0.011 A 
ATOM     12  C   UNL     1      -2.656  12.527   4.705  0.00  0.00    +0.038 A 
ATOM     13  C   UNL     1      -1.829  13.451   4.082  0.00  0.00    +0.023 A 
ATOM     14  C   UNL     1      -2.161  14.792   4.094  0.00  0.00    +0.003 A 
ATOM     15  C   UNL     1      -3.316  15.215   4.726  0.00  0.00    +0.020 A 
ATOM     16  C   UNL     1      -4.143  14.296   5.348  0.00  0.00    +0.046 A 
ATOM     17 CL   UNL     1      -5.592  14.831   6.141  0.00  0.00    -0.083 Cl
ENDBRANCH   6  12
ENDBRANCH   5   7
ENDBRANCH   1   5
BRANCH   2  18
ATOM     18  C   UNL     1       1.150   7.426   1.241  0.00  0.00    +0.018 C 
BRANCH  18  20
ATOM     19  C   UNL     1       2.502   5.809   2.433  0.00  0.00    -0.095 C 
ATOM     20  N   UNL     1       1.577   6.011   1.299  0.00  0.00    +0.386 N 
ATOM     21  H   UNL     1       0.749   5.419   1.433  0.00  0.00    -0.081 HD
BRANCH  20  22
ATOM     22  C   UNL     1       2.239   5.632   0.033  0.00  0.00    -0.037 C 
BRANCH  22  23
ATOM     23  C   UNL     1       2.468   4.119   0.030  0.00  0.00    +0.210 C 
BRANCH  23  24
ATOM     24  O   UNL     1       1.207   3.447   0.043  0.00  0.00    -0.494 OA
BRANCH  24  25
ATOM     25  C   UNL     1       1.232   2.088   0.042  0.00  0.00    +0.120 A 
ATOM     26  C   UNL     1       0.045   1.371   0.053  0.00  0.00    +0.047 A 
ATOM     27  C   UNL     1       0.072  -0.010   0.052  0.00  0.00    +0.023 A 
ATOM     28  C   UNL     1       1.284  -0.679   0.040  0.00  0.00    +0.041 A 
ATOM     29  C   UNL     1       2.470   0.035   0.028  0.00  0.00    +0.023 A 
ATOM     30  C   UNL     1       2.446   1.416   0.030  0.00  0.00    +0.047 A 
ATOM     31 CL   UNL     1       1.316  -2.414   0.038  0.00  0.00    -0.084 Cl
ENDBRANCH  24  25
ENDBRANCH  23  24
ENDBRANCH  22  23
ENDBRANCH  20  22
ENDBRANCH  18  20
ENDBRANCH   2  18
TORSDOF 9
