REMARK  Name = ZINC40727670
REMARK  2 active torsions:
REMARK  status: ('A' for Active; 'I' for Inactive)
REMARK    1  A    between atoms: C_1  and  C_2
REMARK    2  A    between atoms: C_4  and  N_8
REMARK                            x       y       z     vdW  Elec       q    Type
REMARK                         _______ _______ _______ _____ _____    ______ ____
ROOT
ATOM      1  C   UNL     1      -0.018   1.503   0.010  0.00  0.00    +0.066 C 
ATOM      2  C   UNL     1       0.002  -0.004   0.002  0.00  0.00    +0.043 A 
ATOM      3  C   UNL     1       0.006  -0.698  -1.195  0.00  0.00    +0.071 A 
ATOM      4  C   UNL     1       0.025  -2.091  -1.152  0.00  0.00    +0.157 A 
ATOM      5  N   UNL     1       0.039  -2.698   0.030  0.00  0.00    -0.217 NA
ATOM      6  C   UNL     1       0.034  -1.999   1.146  0.00  0.00    +0.223 A 
ATOM      7  N   UNL     1       0.022  -0.681   1.141  0.00  0.00    -0.240 NA
ENDROOT
BRANCH   4   8
ATOM      8  N   UNL     1       0.029  -2.836  -2.332  0.00  0.00    -0.221 N 
ATOM      9  C   UNL     1       0.042  -4.192  -2.423  0.00  0.00    +0.131 A 
ATOM     10  C   UNL     1       0.042  -4.514  -3.737  0.00  0.00    +0.056 A 
ATOM     11  C   UNL     1       0.029  -3.323  -4.473  0.00  0.00    +0.150 A 
ATOM     12  N   UNL     1       0.015  -2.320  -3.634  0.00  0.00    -0.172 NA
ATOM     13 BR   UNL     1       0.057  -6.264  -4.453  0.00  0.00    -0.047 Br
ENDBRANCH   4   8
TORSDOF 1
