REMARK  Name = ZINC38650687
REMARK  14 active torsions:
REMARK  status: ('A' for Active; 'I' for Inactive)
REMARK    1  A    between atoms: C_1  and  C_2
REMARK    2  A    between atoms: C_2  and  C_3
REMARK    3  A    between atoms: C_3  and  O_4
REMARK    4  A    between atoms: O_4  and  C_5
REMARK    5  A    between atoms: C_8  and  C_11
REMARK    6  A    between atoms: C_16  and  O_25
REMARK    7  A    between atoms: C_20  and  N_24
REMARK    8  A    between atoms: C_21  and  C_22
REMARK    9  A    between atoms: O_25  and  C_26
REMARK   10  A    between atoms: C_26  and  C_28
REMARK   11  A    between atoms: C_28  and  O_29
REMARK   12  A    between atoms: O_29  and  C_30
REMARK   13  A    between atoms: C_32  and  C_38
REMARK   14  A    between atoms: C_34  and  C_36
REMARK                            x       y       z     vdW  Elec       q    Type
REMARK                         _______ _______ _______ _____ _____    ______ ____
ROOT
ATOM      1  C   UNL     1       3.324  -4.538   5.573  0.00  0.00    +0.098 C 
ATOM      2  C   UNL     1       4.472  -5.354   5.042  0.00  0.00    +0.008 A 
ATOM      3  C   UNL     1       5.602  -4.711   4.567  0.00  0.00    +0.012 A 
ATOM      4  C   UNL     1       6.665  -5.443   4.076  0.00  0.00    +0.047 A 
ATOM      5  C   UNL     1       6.603  -6.830   4.059  0.00  0.00    +0.135 A 
ATOM      6  C   UNL     1       5.473  -7.476   4.534  0.00  0.00    +0.093 A 
ATOM      7  C   UNL     1       4.405  -6.738   5.026  0.00  0.00    +0.138 A 
ATOM      8  O   UNL     1       3.307  -7.386   5.488  0.00  0.00    -0.441 OA
ATOM      9  C   UNL     1       2.449  -6.753   6.305  0.00  0.00    +0.199 C 
ATOM     10  C   UNL     1       2.408  -5.405   6.390  0.00  0.00    +0.098 C 
ENDROOT
BRANCH   1  14
ATOM     11  C   UNL     1       1.145  -2.864   2.300  0.00  0.00    +0.121 A 
ATOM     12  C   UNL     1       1.736  -2.031   3.240  0.00  0.00    +0.046 A 
ATOM     13  C   UNL     1       2.440  -2.575   4.297  0.00  0.00    +0.008 A 
ATOM     14  C   UNL     1       2.555  -3.947   4.419  0.00  0.00    -0.034 A 
ATOM     15  C   UNL     1       1.967  -4.779   3.484  0.00  0.00    +0.008 A 
ATOM     16  C   UNL     1       1.257  -4.241   2.429  0.00  0.00    +0.046 A 
BRANCH  11  17
ATOM     17  O   UNL     1       0.452  -2.331   1.260  0.00  0.00    -0.492 OA
BRANCH  17  18
ATOM     18  C   UNL     1       0.378  -0.906   1.191  0.00  0.00    +0.229 C 
BRANCH  18  20
ATOM     19  C   UNL     1      -0.516   1.030  -0.111  0.00  0.00    +0.007 C 
ATOM     20  C   UNL     1      -0.436  -0.496  -0.038  0.00  0.00    +0.038 C 
ENDBRANCH  18  20
ENDBRANCH  17  18
ENDBRANCH  11  17
ENDBRANCH   1  14
BRANCH   9  21
ATOM     21  N   UNL     1       1.589  -7.497   7.074  0.00  0.00    -0.328 N 
ATOM     22  H   UNL     1       1.607  -8.466   7.023  0.00  0.00    +0.145 HD
ATOM     23  H   UNL     1       0.964  -7.054   7.669  0.00  0.00    +0.145 HD
ENDBRANCH   9  21
BRANCH  10  24
ATOM     24  C   UNL     1       1.469  -4.792   7.280  0.00  0.00    +0.101 C 
ATOM     25  N   UNL     1       0.724  -4.305   7.986  0.00  0.00    -0.191 NA
ENDBRANCH  10  24
BRANCH   5  26
ATOM     26  O   UNL     1       7.648  -7.551   3.575  0.00  0.00    -0.423 OA
BRANCH  26  27
ATOM     27  C   UNL     1       7.478  -8.209   2.417  0.00  0.00    +0.350 C 
ATOM     28  O   UNL     1       6.458  -8.066   1.785  0.00  0.00    -0.247 OA
BRANCH  27  29
ATOM     29  C   UNL     1       8.559  -9.126   1.906  0.00  0.00    +0.349 C 
BRANCH  29  30
ATOM     30  O   UNL     1       8.146  -9.705   0.666  0.00  0.00    -0.481 OA
BRANCH  30  31
ATOM     31  C   UNL     1       9.012 -10.563   0.067  0.00  0.00    +0.122 A 
ATOM     32  C   UNL     1      10.233 -10.847   0.662  0.00  0.00    +0.050 A 
ATOM     33  C   UNL     1      11.113 -11.719   0.051  0.00  0.00    -0.028 A 
ATOM     34  C   UNL     1      10.777 -12.310  -1.154  0.00  0.00    +0.047 A 
ATOM     35  C   UNL     1       9.561 -12.028  -1.750  0.00  0.00    -0.028 A 
ATOM     36  C   UNL     1       8.675 -11.161  -1.139  0.00  0.00    +0.050 A 
ATOM     37  C   UNL     1       9.198 -12.672  -3.063  0.00  0.00    +0.045 C 
ATOM     38 CL   UNL     1      11.885 -13.405  -1.920  0.00  0.00    -0.083 Cl
ATOM     39  C   UNL     1      12.439 -12.027   0.698  0.00  0.00    +0.045 C 
ENDBRANCH  30  31
ENDBRANCH  29  30
ENDBRANCH  27  29
ENDBRANCH  26  27
ENDBRANCH   5  26
TORSDOF 11
