REMARK  Name = ZINC40824092
REMARK  10 active torsions:
REMARK  status: ('A' for Active; 'I' for Inactive)
REMARK    1  A    between atoms: C_1  and  C_2
REMARK    2  A    between atoms: C_6  and  C_7
REMARK    3  A    between atoms: N_9  and  C_10
REMARK    4  A    between atoms: C_12  and  C_18
REMARK    5  A    between atoms: C_12  and  C_19
REMARK    6  A    between atoms: C_14  and  C_16
REMARK    7  A    between atoms: C_14  and  C_17
REMARK    8  A    between atoms: N_24  and  N_25
REMARK    9  A    between atoms: N_25  and  C_26
REMARK   10  A    between atoms: C_30  and  C_32
REMARK                            x       y       z     vdW  Elec       q    Type
REMARK                         _______ _______ _______ _____ _____    ______ ____
ROOT
ATOM      1  C   UNL     1       0.425   1.686   0.010  0.00  0.00    +0.048 C 
ATOM      2  C   UNL     1       0.339   0.181   0.012  0.00  0.00    +0.009 A 
ATOM      3  C   UNL     1       0.279  -0.659  -1.106  0.00  0.00    +0.042 A 
ATOM      4  C   UNL     1       0.209  -1.952  -0.647  0.00  0.00    +0.115 A 
ATOM      5  O   UNL     1       0.228  -1.919   0.683  0.00  0.00    -0.454 OA
ATOM      6  C   UNL     1       0.310  -0.637   1.107  0.00  0.00    +0.193 A 
ATOM      7  C   UNL     1       0.125  -3.145  -1.566  0.00  0.00    +0.075 C 
ATOM      8  C   UNL     1      -0.379  -2.695  -2.940  0.00  0.00    +0.014 C 
ATOM      9  C   UNL     1       0.472  -1.538  -3.475  0.00  0.00    +0.058 C 
ATOM     10  C   UNL     1       0.283  -0.342  -2.553  0.00  0.00    +0.070 C 
ATOM     11  N   UNL     1       0.138   0.867  -3.001  0.00  0.00    -0.186 NA
ENDROOT
BRANCH   6  12
ATOM     12  C   UNL     1       0.357  -0.198   2.506  0.00  0.00    +0.280 C 
ATOM     13  O   UNL     1       0.428   0.988   2.770  0.00  0.00    -0.267 OA
ATOM     14  N   UNL     1       0.322  -1.109   3.500  0.00  0.00    -0.306 N 
ATOM     15  H   UNL     1       0.265  -2.054   3.289  0.00  0.00    +0.149 HD
BRANCH  14  16
ATOM     16  C   UNL     1       0.369  -0.669   4.900  0.00  0.00    +0.071 C 
ATOM     17  C   UNL     1       1.829  -0.523   5.332  0.00  0.00    +0.009 C 
ATOM     18  C   UNL     1       1.895  -0.077   6.792  0.00  0.00    -0.072 C 
ATOM     19  N   UNL     1       1.141  -0.960   7.669  0.00  0.00    +0.386 N 
ATOM     20  C   UNL     1      -0.201  -1.338   7.254  0.00  0.00    -0.072 C 
ATOM     21  C   UNL     1      -0.288  -1.730   5.783  0.00  0.00    +0.009 C 
ATOM     22  C   UNL     1      -1.220  -0.239   7.563  0.00  0.00    -0.010 C 
ATOM     23  C   UNL     1      -0.611  -2.579   8.084  0.00  0.00    -0.010 C 
ATOM     24  C   UNL     1       1.452   1.379   6.921  0.00  0.00    -0.010 C 
ATOM     25  C   UNL     1       3.378  -0.146   7.225  0.00  0.00    -0.010 C 
ATOM     26  H   UNL     1       1.686  -1.814   7.811  0.00  0.00    -0.084 HD
ATOM     27  H   UNL     1       1.082  -0.523   8.592  0.00  0.00    -0.084 HD
ENDBRANCH  14  16
ENDBRANCH   6  12
BRANCH  11  28
ATOM     28  N   UNL     1       0.150   1.108  -4.381  0.00  0.00    -0.238 N 
ATOM     29  H   UNL     1       0.268   0.372  -5.001  0.00  0.00    +0.174 HD
BRANCH  28  30
ATOM     30  C   UNL     1      -0.006   2.408  -4.863  0.00  0.00    +0.049 A 
ATOM     31  C   UNL     1      -0.169   3.466  -3.976  0.00  0.00    +0.025 A 
ATOM     32  C   UNL     1      -0.323   4.750  -4.457  0.00  0.00    +0.002 A 
ATOM     33  C   UNL     1      -0.316   4.986  -5.820  0.00  0.00    +0.012 A 
ATOM     34  C   UNL     1      -0.155   3.937  -6.705  0.00  0.00    +0.057 A 
ATOM     35  C   UNL     1       0.006   2.649  -6.232  0.00  0.00    +0.037 A 
BRANCH  34  36
ATOM     36  C   UNL     1      -0.148   4.199  -8.190  0.00  0.00    +0.417 C 
ATOM     37  F   UNL     1      -0.321   5.567  -8.422  0.00  0.00    -0.166 F 
ATOM     38  F   UNL     1       1.073   3.784  -8.731  0.00  0.00    -0.166 F 
ATOM     39  F   UNL     1      -1.192   3.488  -8.793  0.00  0.00    -0.166 F 
ENDBRANCH  34  36
ENDBRANCH  28  30
ENDBRANCH  11  28
TORSDOF 5
