REMARK  Name = ZINC20487545
REMARK  6 active torsions:
REMARK  status: ('A' for Active; 'I' for Inactive)
REMARK    1  A    between atoms: C_13  and  C_15
REMARK    2  A    between atoms: C_15  and  C_16
REMARK    3  A    between atoms: C_16  and  N_17
REMARK    4  A    between atoms: N_17  and  S_18
REMARK    5  A    between atoms: S_18  and  C_21
REMARK    6  A    between atoms: C_26  and  N_27
REMARK                            x       y       z     vdW  Elec       q    Type
REMARK                         _______ _______ _______ _____ _____    ______ ____
ROOT
ATOM      1  C   UNL     1       0.422  -6.737   0.993  0.00  0.00    +0.113 C 
ENDROOT
BRANCH   1  14
ATOM      2  C   UNL     1       3.264   0.963  -1.095  0.00  0.00    +0.005 A 
ATOM      3  C   UNL     1       2.073   1.637  -1.333  0.00  0.00    +0.018 A 
ATOM      4  C   UNL     1       0.890   0.927  -1.374  0.00  0.00    +0.084 A 
ATOM      5  N   UNL     1       0.879  -0.380  -1.192  0.00  0.00    -0.350 N 
ATOM      6  C   UNL     1       1.993  -1.059  -0.963  0.00  0.00    +0.099 A 
ATOM      7  C   UNL     1       3.221  -0.407  -0.908  0.00  0.00    +0.042 A 
ATOM      8  N   UNL     1       1.935  -2.435  -0.776  0.00  0.00    -0.314 N 
ATOM      9  C   UNL     1       3.167  -3.225  -0.648  0.00  0.00    +0.125 C 
ATOM     10  C   UNL     1       3.108  -4.016   0.665  0.00  0.00    +0.126 C 
ATOM     11  N   UNL     1       1.813  -4.707   0.738  0.00  0.00    -0.298 N 
ATOM     12  C   UNL     1       0.581  -3.917   0.610  0.00  0.00    +0.126 C 
ATOM     13  C   UNL     1       0.640  -3.125  -0.697  0.00  0.00    +0.125 C 
ATOM     14  C   UNL     1       1.757  -6.042   0.920  0.00  0.00    +0.217 C 
ATOM     15  O   UNL     1       2.781  -6.683   1.024  0.00  0.00    -0.276 OA
ATOM     16  H   UNL     1       0.034  -0.856  -1.226  0.00  0.00    +0.166 HD
ENDBRANCH   1  14
BRANCH   1  17
ATOM     17  C   UNL     1       0.638  -8.237   1.202  0.00  0.00    +0.115 C 
BRANCH  17  18
ATOM     18  N   UNL     1      -0.660  -8.912   1.273  0.00  0.00    -0.189 NA
ATOM     19  H   UNL     1      -1.466  -8.398   1.433  0.00  0.00    +0.148 HD
BRANCH  18  20
ATOM     20  S   UNL     1      -0.750 -10.555   1.081  0.00  0.00    +0.062 S 
ATOM     21  O   UNL     1      -2.119 -10.906   1.229  0.00  0.00    -0.153 OA
ATOM     22  O   UNL     1      -0.005 -10.868  -0.088  0.00  0.00    -0.153 OA
BRANCH  20  23
ATOM     23  C   UNL     1       0.107 -11.286   2.435  0.00  0.00    +0.146 A 
ATOM     24  C   UNL     1       1.251 -12.034   2.219  0.00  0.00    +0.048 A 
ATOM     25  C   UNL     1       1.895 -12.592   3.316  0.00  0.00    +0.038 A 
ATOM     26  C   UNL     1       1.378 -12.385   4.581  0.00  0.00    +0.128 A 
ATOM     27  N   UNL     1       0.286 -11.667   4.756  0.00  0.00    -0.238 NA
ATOM     28  C   UNL     1      -0.353 -11.114   3.736  0.00  0.00    +0.143 A 
ATOM     29 BR   UNL     1       3.461 -13.625   3.081  0.00  0.00    -0.049 Br
BRANCH  28  30
ATOM     30  N   UNL     1      -1.497 -10.358   3.968  0.00  0.00    -0.342 N 
ATOM     31  H   UNL     1      -2.009 -10.012   3.220  0.00  0.00    +0.144 HD
ATOM     32  H   UNL     1      -1.783 -10.178   4.877  0.00  0.00    +0.144 HD
ENDBRANCH  28  30
ENDBRANCH  20  23
ENDBRANCH  18  20
ENDBRANCH  17  18
ENDBRANCH   1  17
TORSDOF 6
