REMARK  Name = ZINC35395262
REMARK  8 active torsions:
REMARK  status: ('A' for Active; 'I' for Inactive)
REMARK    1  A    between atoms: C_8  and  C_10
REMARK    2  A    between atoms: C_15  and  O_21
REMARK    3  A    between atoms: O_21  and  C_22
REMARK    4  A    between atoms: C_24  and  O_37
REMARK    5  A    between atoms: C_26  and  O_36
REMARK    6  A    between atoms: C_28  and  O_35
REMARK    7  A    between atoms: C_30  and  C_33
REMARK    8  A    between atoms: C_33  and  O_34
REMARK                            x       y       z     vdW  Elec       q    Type
REMARK                         _______ _______ _______ _____ _____    ______ ____
ROOT
ATOM      1  C   UNL     1       3.635  -3.350  -0.051  0.00  0.00    +0.122 A 
ATOM      2  C   UNL     1       5.022  -3.358  -0.059  0.00  0.00    +0.032 A 
ATOM      3  C   UNL     1       5.682  -4.612  -0.103  0.00  0.00    +0.019 A 
ATOM      4  C   UNL     1       7.071  -4.691   0.088  0.00  0.00    +0.015 A 
ATOM      5  C   UNL     1       7.688  -5.907   0.084  0.00  0.00    +0.046 A 
ATOM      6  C   UNL     1       6.951  -7.074  -0.117  0.00  0.00    +0.128 A 
ATOM      7  C   UNL     1       5.583  -7.014  -0.327  0.00  0.00    +0.092 A 
ATOM      8  C   UNL     1       4.940  -5.786  -0.333  0.00  0.00    +0.143 A 
ATOM      9  O   UNL     1       3.610  -5.712  -0.580  0.00  0.00    -0.422 OA
ATOM     10  C   UNL     1       2.949  -4.654  -0.050  0.00  0.00    +0.350 A 
ATOM     11  O   UNL     1       1.827  -4.775   0.408  0.00  0.00    -0.244 OA
ENDROOT
BRANCH   1  19
ATOM     12  C   UNL     1      -0.017   1.373   0.010  0.00  0.00    +0.002 A 
ATOM     13  C   UNL     1       1.170   2.091   0.002  0.00  0.00    +0.004 A 
ATOM     14  C   UNL     1       2.385   1.437  -0.013  0.00  0.00    +0.048 A 
ATOM     15  C   UNL     1       2.423   0.052  -0.021  0.00  0.00    +0.156 A 
ATOM     16  C   UNL     1       1.225  -0.680  -0.013  0.00  0.00    +0.110 A 
ATOM     17  C   UNL     1       0.002  -0.004   0.002  0.00  0.00    +0.031 A 
ATOM     18  N   UNL     1       1.569  -1.994  -0.024  0.00  0.00    -0.209 NA
ATOM     19  C   UNL     1       2.877  -2.086  -0.037  0.00  0.00    +0.235 A 
ATOM     20  O   UNL     1       3.425  -0.856  -0.036  0.00  0.00    -0.435 OA
ENDBRANCH   1  19
BRANCH   6  21
ATOM     21  O   UNL     1       7.579  -8.277  -0.107  0.00  0.00    -0.461 OA
BRANCH  21  22
ATOM     22  C   UNL     1       8.991  -8.270   0.114  0.00  0.00    +0.339 C 
ATOM     23  C   UNL     1       9.499  -9.710   0.215  0.00  0.00    +0.214 C 
ATOM     24  C   UNL     1       9.240 -10.429  -1.112  0.00  0.00    +0.180 C 
ATOM     25  C   UNL     1       9.920  -9.651  -2.243  0.00  0.00    +0.177 C 
ATOM     26  C   UNL     1       9.396  -8.212  -2.249  0.00  0.00    +0.179 C 
ATOM     27  O   UNL     1       9.641  -7.612  -0.975  0.00  0.00    -0.331 OA
BRANCH  25  28
ATOM     28  O   UNL     1      11.334  -9.644  -2.035  0.00  0.00    -0.386 OA
ATOM     29  H   UNL     1      11.733 -10.525  -2.015  0.00  0.00    +0.210 HD
ENDBRANCH  25  28
BRANCH  24  30
ATOM     30  O   UNL     1       9.775 -11.753  -1.052  0.00  0.00    -0.386 OA
ATOM     31  H   UNL     1       9.393 -12.300  -0.352  0.00  0.00    +0.210 HD
ENDBRANCH  24  30
BRANCH  23  32
ATOM     32  O   UNL     1      10.902  -9.704   0.491  0.00  0.00    -0.383 OA
ATOM     33  H   UNL     1      11.138  -9.260   1.317  0.00  0.00    +0.210 HD
ENDBRANCH  23  32
BRANCH  26  34
ATOM     34  C   UNL     1      10.114  -7.412  -3.337  0.00  0.00    +0.190 C 
BRANCH  34  35
ATOM     35  O   UNL     1       9.544  -6.104  -3.421  0.00  0.00    -0.392 OA
ATOM     36  H   UNL     1       9.952  -5.540  -4.092  0.00  0.00    +0.210 HD
ENDBRANCH  34  35
ENDBRANCH  26  34
ENDBRANCH  21  22
ENDBRANCH   6  21
TORSDOF 8
