REMARK  Name = ZINC02907763
REMARK  12 active torsions:
REMARK  status: ('A' for Active; 'I' for Inactive)
REMARK    1  A    between atoms: C_1  and  C_2
REMARK    2  A    between atoms: C_2  and  C_3
REMARK    3  A    between atoms: C_2  and  C_10
REMARK    4  A    between atoms: C_2  and  O_25
REMARK    5  A    between atoms: C_10  and  C_12
REMARK    6  A    between atoms: C_10  and  C_19
REMARK    7  A    between atoms: C_12  and  N_13
REMARK    8  A    between atoms: N_13  and  C_14
REMARK    9  A    between atoms: C_14  and  C_15
REMARK   10  A    between atoms: C_15  and  C_16
REMARK   11  A    between atoms: C_16  and  C_17
REMARK   12  A    between atoms: C_17  and  O_18
REMARK                            x       y       z     vdW  Elec       q    Type
REMARK                         _______ _______ _______ _____ _____    ______ ____
ROOT
ATOM      1  C   UNL     1      -1.430   0.034  -0.326  0.00  0.00    +0.038 C 
ENDROOT
BRANCH   1   2
ATOM      2  C   UNL     1      -2.222   0.536   0.854  0.00  0.00    -0.043 A 
ATOM      3  C   UNL     1      -1.904   1.750   1.433  0.00  0.00    +0.004 A 
ATOM      4  C   UNL     1      -2.631   2.211   2.515  0.00  0.00    +0.000 A 
ATOM      5  C   UNL     1      -3.675   1.458   3.018  0.00  0.00    +0.000 A 
ATOM      6  C   UNL     1      -3.994   0.244   2.438  0.00  0.00    +0.000 A 
ATOM      7  C   UNL     1      -3.270  -0.214   1.353  0.00  0.00    +0.004 A 
ENDBRANCH   1   2
BRANCH   1   9
ATOM      8  C   UNL     1      -0.033  -1.378   1.191  0.00  0.00    +0.047 C 
ATOM      9  C   UNL     1      -0.001  -0.287   0.119  0.00  0.00    +0.093 C 
BRANCH   9  10
ATOM     10  C   UNL     1       0.797  -0.769  -1.065  0.00  0.00    -0.016 A 
ATOM     11  C   UNL     1       0.330  -1.820  -1.831  0.00  0.00    +0.007 A 
ATOM     12  C   UNL     1       1.061  -2.263  -2.917  0.00  0.00    +0.015 A 
ATOM     13  C   UNL     1       2.261  -1.653  -3.238  0.00  0.00    +0.018 A 
ATOM     14  C   UNL     1       2.728  -0.601  -2.471  0.00  0.00    +0.015 A 
ATOM     15  C   UNL     1       1.993  -0.156  -1.388  0.00  0.00    +0.007 A 
ATOM     16 BR   UNL     1       3.262  -2.258  -4.723  0.00  0.00    -0.050 Br
ENDBRANCH   9  10
BRANCH   9  17
ATOM     17  O   UNL     1       0.606   0.890   0.655  0.00  0.00    -0.384 OA
ATOM     18  H   UNL     1       0.660   1.625   0.029  0.00  0.00    +0.211 HD
ENDBRANCH   9  17
ENDBRANCH   1   9
BRANCH   1  19
ATOM     19  C   UNL     1      -1.396   1.110  -1.413  0.00  0.00    -0.071 C 
BRANCH  19  20
ATOM     20  N   UNL     1      -2.755   1.332  -1.924  0.00  0.00    +0.380 N 
ATOM     21  H   UNL     1      -3.113   0.472  -2.312  0.00  0.00    -0.086 HD
ATOM     22  H   UNL     1      -3.353   1.635  -1.169  0.00  0.00    -0.086 HD
BRANCH  20  23
ATOM     23  C   UNL     1      -2.723   2.365  -2.968  0.00  0.00    -0.083 C 
BRANCH  23  24
ATOM     24  C   UNL     1      -4.139   2.596  -3.500  0.00  0.00    -0.017 C 
BRANCH  24  25
ATOM     25  C   UNL     1      -4.106   3.672  -4.588  0.00  0.00    +0.026 C 
BRANCH  25  26
ATOM     26  C   UNL     1      -5.521   3.903  -5.120  0.00  0.00    +0.156 C 
BRANCH  26  27
ATOM     27  O   UNL     1      -5.490   4.908  -6.136  0.00  0.00    -0.395 OA
ATOM     28  H   UNL     1      -6.355   5.106  -6.519  0.00  0.00    +0.209 HD
ENDBRANCH  26  27
ENDBRANCH  25  26
ENDBRANCH  24  25
ENDBRANCH  23  24
ENDBRANCH  20  23
ENDBRANCH  19  20
ENDBRANCH   1  19
TORSDOF 11
