REMARK  Name = ZINC50393241
REMARK  5 active torsions:
REMARK  status: ('A' for Active; 'I' for Inactive)
REMARK    1  A    between atoms: C_1  and  C_2
REMARK    2  A    between atoms: C_2  and  C_3
REMARK    3  A    between atoms: C_2  and  C_10
REMARK    4  A    between atoms: C_2  and  N_13
REMARK    5  A    between atoms: N_13  and  C_14
REMARK                            x       y       z     vdW  Elec       q    Type
REMARK                         _______ _______ _______ _____ _____    ______ ____
ROOT
ATOM      1  C   UNL     1      -1.004   0.361   0.570  0.00  0.00    +0.007 C 
ATOM      2  C   UNL     1       0.207  -0.489   0.181  0.00  0.00    +0.059 C 
ENDROOT
BRANCH   2   3
ATOM      3  C   UNL     1       0.865  -1.026   1.427  0.00  0.00    -0.048 A 
ATOM      4  C   UNL     1       2.149  -1.533   1.366  0.00  0.00    +0.004 A 
ATOM      5  C   UNL     1       2.753  -2.025   2.508  0.00  0.00    +0.015 A 
ATOM      6  C   UNL     1       2.071  -2.010   3.712  0.00  0.00    +0.018 A 
ATOM      7  C   UNL     1       0.785  -1.503   3.772  0.00  0.00    +0.015 A 
ATOM      8  C   UNL     1       0.185  -1.006   2.630  0.00  0.00    +0.004 A 
ATOM      9 BR   UNL     1       2.896  -2.683   5.274  0.00  0.00    -0.050 Br
ENDBRANCH   2   3
BRANCH   2  10
ATOM     10  C   UNL     1      -0.242  -1.638  -0.685  0.00  0.00    +0.349 C 
ATOM     11  O   UNL     1       0.117  -1.702  -1.848  0.00  0.00    -0.248 OA
ATOM     12  O   UNL     1      -0.965  -2.504  -0.222  0.00  0.00    -0.248 OA
ENDBRANCH   2  10
BRANCH   2  13
ATOM     13  N   UNL     1       1.168   0.337  -0.562  0.00  0.00    +0.400 N 
ATOM     14  H   UNL     1       1.775  -0.258  -1.105  0.00  0.00    -0.083 HD
ATOM     15  H   UNL     1       0.668   0.961  -1.179  0.00  0.00    -0.083 HD
BRANCH  13  16
ATOM     16  C   UNL     1       1.971   1.124   0.383  0.00  0.00    +0.018 C 
ATOM     17  C   UNL     1       3.289   1.528  -0.282  0.00  0.00    -0.005 C 
ATOM     18  C   UNL     1       3.983   2.566   0.607  0.00  0.00    +0.018 C 
ATOM     19  C   UNL     1       3.154   3.851   0.598  0.00  0.00    +0.104 C 
ATOM     20  N   UNL     1       1.758   3.560   0.898  0.00  0.00    -0.317 N 
ATOM     21  C   UNL     1       1.207   2.352   0.786  0.00  0.00    +0.199 C 
ATOM     22  O   UNL     1       0.023   2.239   1.024  0.00  0.00    -0.278 OA
ATOM     23  H   UNL     1       1.195   4.291   1.198  0.00  0.00    +0.149 HD
ENDBRANCH  13  16
ENDBRANCH   2  13
TORSDOF 4
