REMARK  Name = ZINC35886083
REMARK  8 active torsions:
REMARK  status: ('A' for Active; 'I' for Inactive)
REMARK    1  A    between atoms: C_1  and  O_2
REMARK    2  A    between atoms: O_2  and  C_3
REMARK    3  A    between atoms: C_7  and  N_9
REMARK    4  A    between atoms: N_12  and  C_15
REMARK    5  A    between atoms: C_15  and  C_16
REMARK    6  A    between atoms: C_21  and  C_23
REMARK    7  A    between atoms: C_27  and  C_29
REMARK    8  A    between atoms: C_33  and  C_35
REMARK                            x       y       z     vdW  Elec       q    Type
REMARK                         _______ _______ _______ _____ _____    ______ ____
ROOT
ATOM      1  C   UNL     1       3.199  -8.946  -2.800  0.00  0.00    -0.001 C 
ATOM      2  C   UNL     1       3.919  -7.958  -3.742  0.00  0.00    +0.110 C 
ATOM      3  N   UNL     1       5.056  -8.731  -4.295  0.00  0.00    -0.296 N 
ATOM      4  C   UNL     1       5.552  -9.526  -3.148  0.00  0.00    +0.116 C 
ATOM      5  C   UNL     1       4.273  -9.982  -2.407  0.00  0.00    +0.039 C 
ATOM      6  C   UNL     1       5.531  -8.714  -5.557  0.00  0.00    +0.253 C 
ATOM      7  O   UNL     1       6.527  -9.353  -5.840  0.00  0.00    -0.269 OA
ENDROOT
BRANCH   5   8
ATOM      8  C   UNL     1       4.496  -9.966  -0.917  0.00  0.00    -0.042 A 
ATOM      9  C   UNL     1       5.077  -8.865  -0.317  0.00  0.00    +0.004 A 
ATOM     10  C   UNL     1       5.282  -8.851   1.050  0.00  0.00    +0.001 A 
ATOM     11  C   UNL     1       4.905  -9.938   1.817  0.00  0.00    +0.012 A 
ATOM     12  C   UNL     1       4.323 -11.039   1.217  0.00  0.00    +0.055 A 
ATOM     13  C   UNL     1       4.114 -11.051  -0.150  0.00  0.00    +0.016 A 
BRANCH  12  14
ATOM     14  C   UNL     1       3.913 -12.224   2.052  0.00  0.00    +0.417 C 
ATOM     15  F   UNL     1       4.219 -11.976   3.395  0.00  0.00    -0.166 F 
ATOM     16  F   UNL     1       2.536 -12.433   1.920  0.00  0.00    -0.166 F 
ATOM     17  F   UNL     1       4.602 -13.361   1.618  0.00  0.00    -0.166 F 
ENDBRANCH  12  14
ENDBRANCH   5   8
BRANCH   6  18
ATOM     18  C   UNL     1       4.847  -7.926  -6.587  0.00  0.00    +0.074 A 
ATOM     19  C   UNL     1       5.098  -7.864  -7.949  0.00  0.00    +0.021 A 
ATOM     20  C   UNL     1       4.281  -7.026  -8.669  0.00  0.00    +0.008 A 
ATOM     21  C   UNL     1       3.312  -6.333  -8.020  0.00  0.00    +0.046 A 
ATOM     22  S   UNL     1       3.473  -6.803  -6.416  0.00  0.00    -0.092 S 
ENDBRANCH   6  18
BRANCH   1  23
ATOM     23  C   UNL     1       2.684  -8.217  -1.557  0.00  0.00    -0.073 C 
BRANCH  23  27
ATOM     24  N   UNL     1      -0.311 -10.065   0.706  0.00  0.00    -0.333 N 
ATOM     25  C   UNL     1       0.829  -9.499   1.442  0.00  0.00    +0.086 C 
ATOM     26  C   UNL     1       1.544  -8.493   0.533  0.00  0.00    -0.060 C 
ATOM     27  N   UNL     1       1.903  -9.148  -0.731  0.00  0.00    +0.382 N 
ATOM     28  C   UNL     1       0.688  -9.540  -1.455  0.00  0.00    -0.060 C 
ATOM     29  C   UNL     1      -0.068 -10.602  -0.642  0.00  0.00    +0.086 C 
ATOM     30  H   UNL     1       2.458  -9.968  -0.538  0.00  0.00    -0.082 HD
BRANCH  24  35
ATOM     31  C   UNL     1      -3.936 -10.561   1.086  0.00  0.00    +0.122 A 
ATOM     32  C   UNL     1      -4.117 -10.157   2.401  0.00  0.00    +0.046 A 
ATOM     33  C   UNL     1      -3.038  -9.725   3.148  0.00  0.00    +0.005 A 
ATOM     34  C   UNL     1      -1.775  -9.693   2.588  0.00  0.00    +0.023 A 
ATOM     35  C   UNL     1      -1.588 -10.097   1.272  0.00  0.00    +0.033 A 
ATOM     36  C   UNL     1      -2.670 -10.537   0.522  0.00  0.00    +0.068 A 
BRANCH  31  38
ATOM     37  C   UNL     1      -6.274 -10.985   0.998  0.00  0.00    +0.277 C 
ATOM     38  O   UNL     1      -4.998 -10.986   0.353  0.00  0.00    -0.495 OA
ENDBRANCH  31  38
ENDBRANCH  24  35
ENDBRANCH  23  27
ENDBRANCH   1  23
TORSDOF 7
