REMARK  Name = ZINC13061693
REMARK  11 active torsions:
REMARK  status: ('A' for Active; 'I' for Inactive)
REMARK    1  A    between atoms: C_1  and  C_2
REMARK    2  A    between atoms: C_5  and  C_27
REMARK    3  A    between atoms: C_6  and  N_8
REMARK    4  A    between atoms: C_9  and  C_11
REMARK    5  A    between atoms: C_11  and  N_52
REMARK    6  A    between atoms: C_12  and  N_52
REMARK    7  A    between atoms: C_13  and  C_14
REMARK    8  A    between atoms: C_13  and  N_52
REMARK    9  A    between atoms: N_16  and  C_17
REMARK   10  A    between atoms: C_20  and  S_23
REMARK   11  A    between atoms: S_23  and  N_26
REMARK                            x       y       z     vdW  Elec       q    Type
REMARK                         _______ _______ _______ _____ _____    ______ ____
ROOT
ATOM      1  C   UNL     1      -0.268   4.027   0.783  0.00  0.00    +0.019 C 
ENDROOT
BRANCH   1   2
ATOM      2  C   UNL     1      -0.605   4.649   2.113  0.00  0.00    +0.201 C 
ATOM      3  O   UNL     1      -1.169   3.994   2.964  0.00  0.00    -0.278 OA
ATOM      4  N   UNL     1      -0.278   5.934   2.358  0.00  0.00    -0.287 N 
ATOM      5  H   UNL     1       0.103   6.480   1.653  0.00  0.00    +0.155 HD
BRANCH   4   6
ATOM      6  C   UNL     1      -0.489   6.479   3.629  0.00  0.00    +0.033 A 
ATOM      7  C   UNL     1      -0.830   7.819   3.764  0.00  0.00    +0.025 A 
ATOM      8  C   UNL     1      -1.044   8.352   5.020  0.00  0.00    +0.030 A 
ATOM      9  C   UNL     1      -0.907   7.558   6.143  0.00  0.00    +0.105 A 
ATOM     10  C   UNL     1      -0.563   6.225   6.013  0.00  0.00    +0.030 A 
ATOM     11  C   UNL     1      -0.354   5.683   4.759  0.00  0.00    +0.025 A 
BRANCH   9  12
ATOM     12  S   UNL     1      -1.174   8.244   7.744  0.00  0.00    +0.056 S 
ATOM     13  O   UNL     1      -2.018   9.373   7.566  0.00  0.00    -0.153 OA
ATOM     14  O   UNL     1      -1.519   7.162   8.598  0.00  0.00    -0.153 OA
BRANCH  12  15
ATOM     15  N   UNL     1       0.283   8.822   8.277  0.00  0.00    -0.204 NA
ATOM     16  H   UNL     1       1.072   8.739   7.718  0.00  0.00    +0.144 HD
ATOM     17  H   UNL     1       0.348   9.243   9.149  0.00  0.00    +0.144 HD
ENDBRANCH  12  15
ENDBRANCH   9  12
ENDBRANCH   4   6
ENDBRANCH   1   2
BRANCH   1  19
ATOM     18  C   UNL     1      -2.191   2.555   0.826  0.00  0.00    -0.095 C 
ATOM     19  N   UNL     1      -0.714   2.618   0.789  0.00  0.00    +0.389 N 
ATOM     20  H   UNL     1      -0.340   2.153   1.625  0.00  0.00    -0.081 HD
BRANCH  19  21
ATOM     21  C   UNL     1      -0.209   1.922  -0.413  0.00  0.00    +0.019 C 
BRANCH  21  23
ATOM     22  N   UNL     1      -0.101  -0.405  -1.245  0.00  0.00    -0.287 N 
ATOM     23  C   UNL     1      -0.487   0.448  -0.275  0.00  0.00    +0.201 C 
ATOM     24  O   UNL     1      -1.058   0.028   0.709  0.00  0.00    -0.278 OA
ATOM     25  H   UNL     1       0.286  -0.062  -2.066  0.00  0.00    +0.155 HD
BRANCH  22  31
ATOM     26  C   UNL     1      -0.671  -4.246   1.770  0.00  0.00    +0.044 C 
ATOM     27  C   UNL     1      -0.537  -3.673   0.383  0.00  0.00    -0.049 A 
ATOM     28  C   UNL     1      -0.569  -4.511  -0.717  0.00  0.00    +0.004 A 
ATOM     29  C   UNL     1      -0.446  -3.989  -1.992  0.00  0.00    +0.005 A 
ATOM     30  C   UNL     1      -0.291  -2.628  -2.170  0.00  0.00    -0.029 A 
ATOM     31  C   UNL     1      -0.258  -1.784  -1.068  0.00  0.00    +0.036 A 
ATOM     32  C   UNL     1      -0.377  -2.312   0.211  0.00  0.00    +0.027 A 
ATOM     33  C   UNL     1      -0.156  -2.059  -3.559  0.00  0.00    +0.045 C 
ENDBRANCH  22  31
ENDBRANCH  21  23
ENDBRANCH  19  21
ENDBRANCH   1  19
TORSDOF 8
