REMARK  Name = ZINC40704100
REMARK  6 active torsions:
REMARK  status: ('A' for Active; 'I' for Inactive)
REMARK    1  A    between atoms: C_4  and  N_7
REMARK    2  A    between atoms: N_7  and  C_8
REMARK    3  A    between atoms: N_7  and  N_14
REMARK    4  A    between atoms: C_16  and  N_30
REMARK    5  A    between atoms: C_17  and  N_21
REMARK    6  A    between atoms: N_21  and  C_22
REMARK                            x       y       z     vdW  Elec       q    Type
REMARK                         _______ _______ _______ _____ _____    ______ ____
ROOT
ATOM      1  N   UNL     1       5.214  -0.375  -0.729  0.00  0.00    -0.242 N 
ATOM      2  C   UNL     1       6.245  -0.031   0.138  0.00  0.00    +0.161 A 
ATOM      3  C   UNL     1       7.168   0.955  -0.214  0.00  0.00    +0.105 A 
ATOM      4  C   UNL     1       8.183   1.262   0.693  0.00  0.00    +0.126 A 
ATOM      5  N   UNL     1       8.232   0.608   1.851  0.00  0.00    -0.333 N 
ATOM      6  C   UNL     1       7.340  -0.316   2.145  0.00  0.00    +0.200 A 
ATOM      7  N   UNL     1       6.363  -0.632   1.319  0.00  0.00    -0.219 NA
ATOM      8  H   UNL     1       5.135   0.068  -1.588  0.00  0.00    +0.172 HD
ATOM      9  H   UNL     1       8.934   0.815   2.488  0.00  0.00    +0.168 HD
ENDROOT
BRANCH   3  10
ATOM     10  N   UNL     1       7.078   1.619  -1.448  0.00  0.00    -0.353 N 
ATOM     11  H   UNL     1       6.368   1.395  -2.069  0.00  0.00    +0.143 HD
ATOM     12  H   UNL     1       7.727   2.302  -1.680  0.00  0.00    +0.143 HD
ENDBRANCH   3  10
BRANCH   4  13
ATOM     13  N   UNL     1       9.129   2.236   0.391  0.00  0.00    -0.299 N 
ATOM     14  H   UNL     1       9.035   2.772  -0.412  0.00  0.00    +0.154 HD
BRANCH  13  15
ATOM     15  C   UNL     1      10.216   2.442   1.246  0.00  0.00    +0.034 A 
ATOM     16  C   UNL     1      10.864   1.357   1.822  0.00  0.00    +0.025 A 
ATOM     17  C   UNL     1      11.938   1.563   2.665  0.00  0.00    +0.023 A 
ATOM     18  C   UNL     1      12.370   2.850   2.937  0.00  0.00    +0.059 A 
ATOM     19  C   UNL     1      11.726   3.934   2.364  0.00  0.00    +0.061 A 
ATOM     20  C   UNL     1      10.654   3.733   1.515  0.00  0.00    +0.044 A 
ATOM     21 CL   UNL     1      12.270   5.547   2.707  0.00  0.00    -0.082 Cl
ATOM     22 CL   UNL     1      13.720   3.106   3.998  0.00  0.00    -0.082 Cl
ENDBRANCH  13  15
ENDBRANCH   4  13
BRANCH   1  23
ATOM     23  N   UNL     1       4.290  -1.362  -0.361  0.00  0.00    -0.221 N 
BRANCH  23  27
ATOM     24  C   UNL     1       0.445  -0.279   0.813  0.00  0.00    +0.000 A 
ATOM     25  C   UNL     1       1.541   0.337   1.389  0.00  0.00    +0.002 A 
ATOM     26  C   UNL     1       2.818  -0.019   1.001  0.00  0.00    +0.025 A 
ATOM     27  C   UNL     1       3.000  -0.999   0.033  0.00  0.00    +0.053 A 
ATOM     28  C   UNL     1       1.896  -1.617  -0.542  0.00  0.00    +0.025 A 
ATOM     29  C   UNL     1       0.623  -1.254  -0.150  0.00  0.00    +0.002 A 
ENDBRANCH  23  27
BRANCH  23  30
ATOM     30  C   UNL     1       4.659  -2.709  -0.389  0.00  0.00    +0.053 A 
ATOM     31  C   UNL     1       5.876  -3.087  -0.942  0.00  0.00    +0.025 A 
ATOM     32  C   UNL     1       6.238  -4.419  -0.968  0.00  0.00    +0.002 A 
ATOM     33  C   UNL     1       5.389  -5.378  -0.444  0.00  0.00    +0.000 A 
ATOM     34  C   UNL     1       4.177  -5.006   0.107  0.00  0.00    +0.002 A 
ATOM     35  C   UNL     1       3.811  -3.675   0.141  0.00  0.00    +0.025 A 
ENDBRANCH  23  30
ENDBRANCH   1  23
TORSDOF 6
