REMARK  Name = ZINC06077485
REMARK  12 active torsions:
REMARK  status: ('A' for Active; 'I' for Inactive)
REMARK    1  A    between atoms: C_1  and  C_2
REMARK    2  A    between atoms: C_2  and  C_3
REMARK    3  A    between atoms: C_3  and  C_4
REMARK    4  A    between atoms: C_3  and  C_5
REMARK    5  A    between atoms: C_3  and  N_6
REMARK    6  A    between atoms: C_7  and  C_11
REMARK    7  A    between atoms: C_11  and  C_13
REMARK    8  A    between atoms: C_11  and  N_73
REMARK    9  A    between atoms: C_16  and  C_26
REMARK   10  A    between atoms: C_18  and  C_25
REMARK   11  A    between atoms: N_29  and  C_32
REMARK   12  A    between atoms: C_35  and  N_38
REMARK                            x       y       z     vdW  Elec       q    Type
REMARK                         _______ _______ _______ _____ _____    ______ ____
ROOT
ATOM      1  C   UNL     1       4.950   4.310  -0.065  0.00  0.00    +0.039 C 
ENDROOT
BRANCH   1   2
ATOM      2  C   UNL     1       3.580   3.704  -0.229  0.00  0.00    +0.011 A 
ATOM      3  C   UNL     1       3.436   2.356  -0.249  0.00  0.00    +0.018 A 
ATOM      4  C   UNL     1       2.092   1.798  -0.409  0.00  0.00    +0.002 A 
ATOM      5  C   UNL     1       1.881   0.415  -0.438  0.00  0.00    -0.041 A 
ATOM      6  C   UNL     1       0.614  -0.073  -0.590  0.00  0.00    +0.007 A 
ATOM      7  C   UNL     1      -0.466   0.790  -0.715  0.00  0.00    -0.048 A 
ATOM      8  C   UNL     1      -0.281   2.156  -0.690  0.00  0.00    +0.029 A 
ATOM      9  C   UNL     1       1.000   2.676  -0.537  0.00  0.00    +0.050 A 
ATOM     10  N   UNL     1       1.213   4.038  -0.509  0.00  0.00    -0.322 N 
ATOM     11  H   UNL     1       0.436   4.661  -0.600  0.00  0.00    +0.169 HD
ATOM     12  C   UNL     1       2.451   4.541  -0.361  0.00  0.00    +0.251 A 
ATOM     13  O   UNL     1       2.603   5.750  -0.341  0.00  0.00    -0.268 OA
ATOM     14  C   UNL     1      -1.854   0.228  -0.881  0.00  0.00    +0.044 C 
ATOM     15  C   UNL     1       3.046  -0.531  -0.301  0.00  0.00    +0.044 C 
ENDBRANCH   1   2
BRANCH   1  21
ATOM     16  C   UNL     1       5.067   4.561  -2.471  0.00  0.00    -0.058 C 
ATOM     17  C   UNL     1       5.268   5.577  -3.598  0.00  0.00    +0.086 C 
ATOM     18  N   UNL     1       6.598   6.189  -3.471  0.00  0.00    -0.333 N 
ATOM     19  C   UNL     1       6.742   6.865  -2.174  0.00  0.00    +0.086 C 
ATOM     20  C   UNL     1       6.541   5.849  -1.047  0.00  0.00    -0.058 C 
ATOM     21  N   UNL     1       5.192   5.258  -1.173  0.00  0.00    +0.391 N 
ATOM     22  H   UNL     1       4.493   6.009  -1.129  0.00  0.00    -0.080 HD
BRANCH  18  23
ATOM     23  C   UNL     1       6.847   7.071  -4.525  0.00  0.00    +0.030 A 
ATOM     24  C   UNL     1       7.173   8.395  -4.263  0.00  0.00    +0.025 A 
ATOM     25  C   UNL     1       7.423   9.263  -5.308  0.00  0.00    +0.034 A 
ATOM     26  C   UNL     1       7.339   8.818  -6.614  0.00  0.00    +0.126 A 
ATOM     27  C   UNL     1       7.009   7.501  -6.879  0.00  0.00    +0.034 A 
ATOM     28  C   UNL     1       6.763   6.627  -5.839  0.00  0.00    +0.025 A 
BRANCH  26  29
ATOM     29  N   UNL     1       7.602   9.752  -7.731  0.00  0.00    +0.056 N 
ATOM     30  O   UNL     1       7.529   9.361  -8.882  0.00  0.00    -0.126 OA
ATOM     31  O   UNL     1       7.893  10.912  -7.500  0.00  0.00    -0.126 OA
ENDBRANCH  26  29
ENDBRANCH  18  23
ENDBRANCH   1  21
BRANCH   1  33
ATOM     32  N   UNL     1       5.725   4.713   2.331  0.00  0.00    -0.225 N 
ATOM     33  C   UNL     1       5.014   5.059   1.241  0.00  0.00    +0.143 A 
ATOM     34  N   UNL     1       4.394   6.175   1.535  0.00  0.00    -0.115 NA
ATOM     35  N   UNL     1       4.701   6.495   2.745  0.00  0.00    -0.023 NA
ATOM     36  N   UNL     1       5.508   5.615   3.228  0.00  0.00    -0.043 NA
BRANCH  32  37
ATOM     37  C   UNL     1       6.584   3.535   2.472  0.00  0.00    +0.061 C 
ATOM     38  C   UNL     1       5.764   2.271   2.208  0.00  0.00    +0.036 C 
ATOM     39  C   UNL     1       7.733   3.618   1.464  0.00  0.00    +0.036 C 
BRANCH  37  41
ATOM     40  C   UNL     1       8.051   2.256   4.039  0.00  0.00    +0.006 C 
ATOM     41  C   UNL     1       7.154   3.486   3.891  0.00  0.00    +0.026 C 
ENDBRANCH  37  41
ENDBRANCH  32  37
ENDBRANCH   1  33
TORSDOF 7
