REMARK  Name = ZINC20206851
REMARK  8 active torsions:
REMARK  status: ('A' for Active; 'I' for Inactive)
REMARK    1  A    between atoms: C_1  and  C_2
REMARK    2  A    between atoms: C_2  and  S_3
REMARK    3  A    between atoms: S_3  and  C_6
REMARK    4  A    between atoms: C_14  and  C_15
REMARK    5  A    between atoms: C_18  and  O_22
REMARK    6  A    between atoms: O_22  and  C_23
REMARK    7  A    between atoms: C_23  and  C_24
REMARK    8  A    between atoms: C_27  and  C_30
REMARK                            x       y       z     vdW  Elec       q    Type
REMARK                         _______ _______ _______ _____ _____    ______ ____
ROOT
ATOM      1  C   UNL     1       4.017   2.264   1.092  0.00  0.00    +0.257 C 
ATOM      2  N   UNL     1       4.250   3.438   1.593  0.00  0.00    -0.174 NA
ATOM      3  S   UNL     1       4.008   3.239   3.240  0.00  0.00    +0.049 S 
ATOM      4  C   UNL     1       3.655   1.610   3.267  0.00  0.00    +0.183 C 
ATOM      5  N   UNL     1       3.414   0.811   4.282  0.00  0.00    -0.152 NA
ATOM      6  C   UNL     1       3.216  -0.501   4.061  0.00  0.00    +0.273 C 
ATOM      7  O   UNL     1       2.861  -1.241   4.965  0.00  0.00    -0.268 OA
ATOM      8  C   UNL     1       3.438  -1.027   2.691  0.00  0.00    +0.078 C 
ATOM      9  C   UNL     1       3.765  -2.345   2.462  0.00  0.00    +0.024 C 
ATOM     10  C   UNL     1       3.287  -0.048   1.576  0.00  0.00    +0.117 C 
ATOM     11  N   UNL     1       2.849  -0.372   0.390  0.00  0.00    -0.386 N 
ATOM     12  N   UNL     1       3.660   1.264   1.932  0.00  0.00    -0.203 N 
ATOM     13  H   UNL     1       2.695  -1.304   0.168  0.00  0.00    +0.157 HD
ATOM     14  H   UNL     1       2.676   0.319  -0.269  0.00  0.00    +0.157 HD
ENDROOT
BRANCH   9  15
ATOM     15  C   UNL     1       4.113  -3.219   3.585  0.00  0.00    -0.023 A 
ATOM     16  C   UNL     1       3.696  -4.557   3.591  0.00  0.00    +0.011 A 
ATOM     17  C   UNL     1       4.022  -5.370   4.639  0.00  0.00    +0.048 A 
ATOM     18  C   UNL     1       4.768  -4.876   5.703  0.00  0.00    +0.139 A 
ATOM     19  C   UNL     1       5.188  -3.549   5.710  0.00  0.00    +0.083 A 
ATOM     20  C   UNL     1       4.870  -2.721   4.656  0.00  0.00    +0.031 A 
ATOM     21 CL   UNL     1       6.118  -2.938   7.043  0.00  0.00    -0.080 Cl
BRANCH  18  22
ATOM     22  O   UNL     1       5.087  -5.691   6.741  0.00  0.00    -0.486 OA
BRANCH  22  23
ATOM     23  C   UNL     1       4.625  -7.041   6.671  0.00  0.00    +0.264 C 
BRANCH  23  24
ATOM     24  C   UNL     1       5.072  -7.789   7.901  0.00  0.00    -0.010 A 
ATOM     25  C   UNL     1       6.289  -8.444   7.907  0.00  0.00    +0.007 A 
ATOM     26  C   UNL     1       6.699  -9.130   9.034  0.00  0.00    +0.004 A 
ATOM     27  C   UNL     1       5.892  -9.161  10.156  0.00  0.00    -0.050 A 
ATOM     28  C   UNL     1       4.675  -8.505  10.151  0.00  0.00    +0.004 A 
ATOM     29  C   UNL     1       4.267  -7.815   9.024  0.00  0.00    +0.007 A 
ATOM     30  C   UNL     1       6.339  -9.910  11.386  0.00  0.00    +0.044 C 
ENDBRANCH  23  24
ENDBRANCH  22  23
ENDBRANCH  18  22
ENDBRANCH   9  15
BRANCH   1  31
ATOM     31  S   UNL     1       4.154   1.980  -0.641  0.00  0.00    +0.029 S 
ATOM     32  O   UNL     1       4.531   0.615  -0.756  0.00  0.00    -0.167 OA
ATOM     33  O   UNL     1       5.013   3.010  -1.111  0.00  0.00    -0.167 OA
BRANCH  31  35
ATOM     34  C   UNL     1       2.444   1.855  -2.773  0.00  0.00    +0.028 C 
ATOM     35  C   UNL     1       2.477   2.222  -1.288  0.00  0.00    +0.172 C 
ENDBRANCH  31  35
ENDBRANCH   1  31
TORSDOF 6
