REMARK  Name = ZINC20717135
REMARK  9 active torsions:
REMARK  status: ('A' for Active; 'I' for Inactive)
REMARK    1  A    between atoms: C_1  and  C_2
REMARK    2  A    between atoms: C_2  and  N_3
REMARK    3  A    between atoms: N_3  and  C_4
REMARK    4  A    between atoms: N_3  and  S_10
REMARK    5  A    between atoms: S_10  and  C_13
REMARK    6  A    between atoms: C_26  and  C_29
REMARK    7  A    between atoms: C_32  and  O_35
REMARK    8  A    between atoms: O_35  and  C_36
REMARK    9  A    between atoms: C_36  and  C_37
REMARK                            x       y       z     vdW  Elec       q    Type
REMARK                         _______ _______ _______ _____ _____    ______ ____
ROOT
ATOM      1  C   UNL     1       2.944  -3.199  -1.534  0.00  0.00    +0.109 A 
ATOM      2  C   UNL     1       1.838  -4.028  -1.565  0.00  0.00    +0.030 A 
ATOM      3  C   UNL     1       0.568  -3.489  -1.607  0.00  0.00    +0.025 A 
ATOM      4  C   UNL     1       0.391  -2.111  -1.621  0.00  0.00    +0.031 A 
ATOM      5  C   UNL     1       1.516  -1.278  -1.602  0.00  0.00    -0.018 A 
ATOM      6  C   UNL     1       2.780  -1.826  -1.552  0.00  0.00    +0.034 A 
ATOM      7  C   UNL     1       1.286   0.181  -1.660  0.00  0.00    +0.049 C 
ATOM      8  C   UNL     1       2.258   1.152  -1.096  0.00  0.00    -0.023 C 
ATOM      9  C   UNL     1       1.594   2.218  -0.665  0.00  0.00    -0.030 C 
ATOM     10  C   UNL     1       0.092   2.020  -0.883  0.00  0.00    +0.033 C 
ATOM     11  C   UNL     1      -0.022   0.490  -0.872  0.00  0.00    +0.029 C 
ATOM     12  C   UNL     1      -1.143  -0.127  -1.689  0.00  0.00    +0.105 C 
ATOM     13  N   UNL     1      -0.907  -1.587  -1.649  0.00  0.00    -0.336 N 
ATOM     14  H   UNL     1      -1.759  -2.282  -1.641  0.00  0.00    +0.147 HD
ENDROOT
BRANCH  12  15
ATOM     15  C   UNL     1      -2.478   0.201  -1.073  0.00  0.00    -0.027 A 
ATOM     16  C   UNL     1      -2.935  -0.524   0.012  0.00  0.00    +0.009 A 
ATOM     17  C   UNL     1      -4.157  -0.222   0.582  0.00  0.00    +0.046 A 
ATOM     18  C   UNL     1      -4.930   0.804   0.058  0.00  0.00    +0.121 A 
ATOM     19  C   UNL     1      -4.472   1.527  -1.034  0.00  0.00    +0.046 A 
ATOM     20  C   UNL     1      -3.247   1.224  -1.597  0.00  0.00    +0.009 A 
BRANCH  18  21
ATOM     21  O   UNL     1      -6.134   1.101   0.614  0.00  0.00    -0.492 OA
BRANCH  21  22
ATOM     22  C   UNL     1      -6.542   0.315   1.736  0.00  0.00    +0.225 C 
ATOM     23  C   UNL     1      -7.913   0.791   2.221  0.00  0.00    +0.048 C 
ENDBRANCH  21  22
ENDBRANCH  18  21
ENDBRANCH  12  15
BRANCH   1  24
ATOM     24  S   UNL     1       4.563  -3.891  -1.470  0.00  0.00    +0.075 S 
ATOM     25  O   UNL     1       5.406  -2.901  -0.898  0.00  0.00    -0.150 OA
ATOM     26  O   UNL     1       4.427  -5.191  -0.912  0.00  0.00    -0.150 OA
BRANCH  24  27
ATOM     27  N   UNL     1       5.069  -4.098  -3.033  0.00  0.00    -0.203 N 
BRANCH  27  28
ATOM     28  C   UNL     1       4.910  -5.336  -3.660  0.00  0.00    +0.051 A 
ATOM     29  C   UNL     1       4.139  -5.440  -4.811  0.00  0.00    +0.025 A 
ATOM     30  C   UNL     1       3.988  -6.665  -5.431  0.00  0.00    +0.002 A 
ATOM     31  C   UNL     1       4.595  -7.789  -4.902  0.00  0.00    +0.000 A 
ATOM     32  C   UNL     1       5.360  -7.690  -3.754  0.00  0.00    +0.002 A 
ATOM     33  C   UNL     1       5.519  -6.468  -3.132  0.00  0.00    +0.025 A 
ENDBRANCH  27  28
BRANCH  27  35
ATOM     34  C   UNL     1       7.205  -3.074  -3.639  0.00  0.00    +0.026 C 
ATOM     35  C   UNL     1       5.683  -2.983  -3.759  0.00  0.00    +0.128 C 
ENDBRANCH  27  35
ENDBRANCH  24  27
ENDBRANCH   1  24
TORSDOF 7
