REMARK  Name = ZINC06224541
REMARK  7 active torsions:
REMARK  status: ('A' for Active; 'I' for Inactive)
REMARK    1  A    between atoms: C_3  and  N_11
REMARK    2  A    between atoms: C_4  and  N_8
REMARK    3  A    between atoms: N_11  and  N_12
REMARK    4  A    between atoms: C_14  and  C_19
REMARK    5  A    between atoms: C_14  and  C_21
REMARK    6  A    between atoms: C_19  and  O_20
REMARK    7  A    between atoms: C_21  and  O_22
REMARK                            x       y       z     vdW  Elec       q    Type
REMARK                         _______ _______ _______ _____ _____    ______ ____
ROOT
ATOM      1  N   UNL     1      -1.178  -0.707   0.136  0.00  0.00    -0.246 N 
ATOM      2  C   UNL     1      -0.010  -0.002  -0.055  0.00  0.00    +0.196 C 
ATOM      3  C   UNL     1       2.380   0.051  -0.413  0.00  0.00    +0.120 C 
ATOM      4  C   UNL     1       2.162   1.474  -0.929  0.00  0.00    +0.265 C 
ATOM      5  O   UNL     1       1.163   2.129  -0.089  0.00  0.00    -0.457 OA
ATOM      6  C   UNL     1      -0.035   1.491  -0.070  0.00  0.00    +0.372 C 
ATOM      7  O   UNL     1      -1.080   2.107  -0.072  0.00  0.00    -0.242 OA
ATOM      8  H   UNL     1      -2.016  -0.234   0.259  0.00  0.00    +0.172 HD
ATOM      9  N   UNL     1       1.102  -0.723  -0.217  0.00  0.00    -0.354 N 
ATOM     10  H   UNL     1       1.087  -1.750  -0.210  0.00  0.00    +0.162 HD
ENDROOT
BRANCH   1  11
ATOM     11  N   UNL     1      -1.156  -2.108   0.151  0.00  0.00    -0.263 N 
ATOM     12  H   UNL     1      -0.319  -2.581   0.027  0.00  0.00    +0.170 HD
BRANCH  11  15
ATOM     13  C   UNL     1      -4.691  -2.860   0.825  0.00  0.00    +0.022 A 
ATOM     14  C   UNL     1      -3.521  -2.150   0.635  0.00  0.00    +0.028 A 
ATOM     15  C   UNL     1      -2.341  -2.823   0.344  0.00  0.00    +0.075 A 
ATOM     16  C   UNL     1      -2.343  -4.208   0.239  0.00  0.00    +0.150 A 
ATOM     17  C   UNL     1      -3.514  -4.913   0.434  0.00  0.00    +0.054 A 
ATOM     18  C   UNL     1      -4.688  -4.240   0.724  0.00  0.00    +0.043 A 
ATOM     19 CL   UNL     1      -6.160  -5.128   0.964  0.00  0.00    -0.083 Cl
BRANCH  16  20
ATOM     20  N   UNL     1      -1.089  -4.929  -0.077  0.00  0.00    +0.058 N 
ATOM     21  O   UNL     1      -1.109  -6.131  -0.268  0.00  0.00    -0.126 OA
ATOM     22  O   UNL     1      -0.037  -4.319  -0.145  0.00  0.00    -0.126 OA
ENDBRANCH  16  20
ENDBRANCH  11  15
ENDBRANCH   1  11
BRANCH   3  23
ATOM     23  C   UNL     1       3.128   0.108   0.921  0.00  0.00    +0.189 C 
BRANCH  23  24
ATOM     24  O   UNL     1       3.364  -1.220   1.393  0.00  0.00    -0.393 OA
ATOM     25  H   UNL     1       3.835  -1.260   2.236  0.00  0.00    +0.210 HD
ENDBRANCH  23  24
ENDBRANCH   3  23
BRANCH   3  26
ATOM     26  C   UNL     1       3.220  -0.729  -1.426  0.00  0.00    +0.189 C 
BRANCH  26  27
ATOM     27  O   UNL     1       3.357  -2.083  -0.991  0.00  0.00    -0.393 OA
ATOM     28  H   UNL     1       3.879  -2.637  -1.587  0.00  0.00    +0.210 HD
ENDBRANCH  26  27
ENDBRANCH   3  26
TORSDOF 7
