REMARK  Name = ZINC39653302
REMARK  10 active torsions:
REMARK  status: ('A' for Active; 'I' for Inactive)
REMARK    1  A    between atoms: C_1  and  C_2
REMARK    2  A    between atoms: C_2  and  O_3
REMARK    3  A    between atoms: O_3  and  C_4
REMARK    4  A    between atoms: C_6  and  C_12
REMARK    5  A    between atoms: C_9  and  O_10
REMARK    6  A    between atoms: O_10  and  C_11
REMARK    7  A    between atoms: C_12  and  C_13
REMARK    8  A    between atoms: C_13  and  N_14
REMARK    9  A    between atoms: C_15  and  C_17
REMARK   10  A    between atoms: C_28  and  C_30
REMARK                            x       y       z     vdW  Elec       q    Type
REMARK                         _______ _______ _______ _____ _____    ______ ____
ROOT
ATOM      1  C   UNL     1       3.364  -7.720   2.704  0.00  0.00    +0.100 C 
ATOM      2  C   UNL     1       3.319  -9.095   2.001  0.00  0.00    +0.121 C 
ATOM      3  N   UNL     1       4.176  -9.970   2.835  0.00  0.00    -0.296 N 
ATOM      4  C   UNL     1       3.867  -9.568   4.229  0.00  0.00    +0.115 C 
ATOM      5  C   UNL     1       3.724  -8.035   4.166  0.00  0.00    -0.004 C 
ATOM      6  C   UNL     1       5.042  -7.365   4.542  0.00  0.00    -0.010 C 
ATOM      7  C   UNL     1       5.350  -7.646   6.015  0.00  0.00    -0.082 C 
ATOM      8  N   UNL     1       4.260  -7.130   6.851  0.00  0.00    +0.379 N 
ATOM      9  C   UNL     1       3.014  -7.844   6.548  0.00  0.00    -0.082 C 
ATOM     10  C   UNL     1       2.607  -7.572   5.097  0.00  0.00    -0.010 C 
ATOM     11  C   UNL     1       5.041 -10.917   2.421  0.00  0.00    +0.247 C 
ATOM     12  O   UNL     1       5.281 -11.044   1.236  0.00  0.00    -0.270 OA
ATOM     13  H   UNL     1       4.493  -7.261   7.824  0.00  0.00    -0.086 HD
ATOM     14  H   UNL     1       4.134  -6.145   6.668  0.00  0.00    -0.086 HD
ENDROOT
BRANCH  11  15
ATOM     15  C   UNL     1       5.697 -11.801   3.407  0.00  0.00    +0.038 A 
ATOM     16  C   UNL     1       5.139 -11.973   4.675  0.00  0.00    +0.013 A 
ATOM     17  C   UNL     1       5.756 -12.799   5.591  0.00  0.00    +0.002 A 
ATOM     18  C   UNL     1       6.925 -13.459   5.256  0.00  0.00    +0.020 A 
ATOM     19  C   UNL     1       7.484 -13.294   4.000  0.00  0.00    +0.042 A 
ATOM     20  C   UNL     1       6.874 -12.473   3.072  0.00  0.00    +0.033 A 
ATOM     21 CL   UNL     1       8.951 -14.125   3.588  0.00  0.00    -0.084 Cl
ENDBRANCH  11  15
BRANCH   1  23
ATOM     22  N   UNL     1       1.936  -5.702   2.600  0.00  0.00    -0.315 N 
ATOM     23  C   UNL     1       2.017  -7.048   2.628  0.00  0.00    +0.218 C 
ATOM     24  O   UNL     1       1.006  -7.717   2.593  0.00  0.00    -0.275 OA
ATOM     25  H   UNL     1       2.744  -5.167   2.629  0.00  0.00    +0.149 HD
BRANCH  22  26
ATOM     26  C   UNL     1       0.627  -5.049   2.527  0.00  0.00    +0.109 C 
BRANCH  26  27
ATOM     27  C   UNL     1       0.815  -3.531   2.509  0.00  0.00    +0.054 C 
BRANCH  27  30
ATOM     28  C   UNL     1      -2.443  -1.911   3.527  0.00  0.00    +0.162 A 
ATOM     29  C   UNL     1      -1.205  -2.530   3.595  0.00  0.00    +0.053 A 
ATOM     30  C   UNL     1      -0.532  -2.859   2.433  0.00  0.00    -0.042 A 
ATOM     31  C   UNL     1      -1.091  -2.572   1.202  0.00  0.00    +0.007 A 
ATOM     32  C   UNL     1      -2.326  -1.955   1.127  0.00  0.00    +0.049 A 
ATOM     33  C   UNL     1      -3.009  -1.628   2.288  0.00  0.00    +0.162 A 
BRANCH  33  34
ATOM     34  O   UNL     1      -4.226  -1.027   2.216  0.00  0.00    -0.491 OA
ATOM     35  C   UNL     1      -4.745  -0.766   0.910  0.00  0.00    +0.277 C 
ENDBRANCH  33  34
BRANCH  28  36
ATOM     36  O   UNL     1      -3.106  -1.587   4.669  0.00  0.00    -0.489 OA
BRANCH  36  38
ATOM     37  C   UNL     1      -3.356  -1.472   7.070  0.00  0.00    +0.048 C 
ATOM     38  C   UNL     1      -2.465  -1.908   5.905  0.00  0.00    +0.226 C 
ENDBRANCH  36  38
ENDBRANCH  28  36
ENDBRANCH  27  30
ENDBRANCH  26  27
ENDBRANCH  22  26
ENDBRANCH   1  23
TORSDOF 8
