REMARK  Name = ZINC63281963
REMARK  8 active torsions:
REMARK  status: ('A' for Active; 'I' for Inactive)
REMARK    1  A    between atoms: C_7  and  C_10
REMARK    2  A    between atoms: C_10  and  C_11
REMARK    3  A    between atoms: C_11  and  N_12
REMARK    4  A    between atoms: C_13  and  C_15
REMARK    5  A    between atoms: N_17  and  C_18
REMARK    6  A    between atoms: C_23  and  C_24
REMARK    7  A    between atoms: N_26  and  C_27
REMARK    8  A    between atoms: C_27  and  C_28
REMARK                            x       y       z     vdW  Elec       q    Type
REMARK                         _______ _______ _______ _____ _____    ______ ____
ROOT
ATOM      1  C   UNL     1      -1.752  -6.537  -2.632  0.00  0.00    +0.303 C 
ATOM      2  O   UNL     1      -2.180  -6.966  -1.581  0.00  0.00    -0.265 OA
ATOM      3  N   UNL     1      -2.105  -7.123  -3.793  0.00  0.00    -0.277 N 
ATOM      4  H   UNL     1      -1.816  -6.742  -4.636  0.00  0.00    +0.155 HD
ENDROOT
BRANCH   3   5
ATOM      5  C   UNL     1      -2.885  -8.275  -3.782  0.00  0.00    +0.046 A 
ATOM      6  C   UNL     1      -3.870  -8.442  -2.817  0.00  0.00    +0.024 A 
ATOM      7  C   UNL     1      -4.643  -9.586  -2.808  0.00  0.00    +0.002 A 
ATOM      8  C   UNL     1      -4.443 -10.575  -3.758  0.00  0.00    +0.001 A 
ATOM      9  C   UNL     1      -3.469 -10.427  -4.723  0.00  0.00    +0.015 A 
ATOM     10  C   UNL     1      -2.684  -9.272  -4.748  0.00  0.00    +0.058 A 
BRANCH  10  11
ATOM     11  C   UNL     1      -1.644  -9.105  -5.782  0.00  0.00    +0.246 C 
ATOM     12  O   UNL     1      -0.895  -8.149  -5.741  0.00  0.00    -0.270 OA
ATOM     13  N   UNL     1      -1.526 -10.012  -6.771  0.00  0.00    -0.306 N 
ATOM     14  H   UNL     1      -2.124 -10.775  -6.804  0.00  0.00    +0.149 HD
BRANCH  13  15
ATOM     15  C   UNL     1      -0.493  -9.846  -7.798  0.00  0.00    +0.160 C 
BRANCH  15  16
ATOM     16  C   UNL     1      -0.573 -10.987  -8.779  0.00  0.00    +0.058 A 
ATOM     17  C   UNL     1      -1.291 -10.832  -9.950  0.00  0.00    +0.025 A 
ATOM     18  C   UNL     1      -1.358 -11.887 -10.847  0.00  0.00    +0.003 A 
ATOM     19  C   UNL     1      -0.697 -13.065 -10.530  0.00  0.00    +0.020 A 
ATOM     20  C   UNL     1       0.001 -13.146  -9.341  0.00  0.00    +0.111 A 
ATOM     21  N   UNL     1       0.048 -12.120  -8.514  0.00  0.00    -0.258 NA
ENDBRANCH  15  16
ENDBRANCH  13  15
ENDBRANCH  10  11
ENDBRANCH   3   5
BRANCH   1  23
ATOM     22  N   UNL     1      -0.479  -4.774  -1.478  0.00  0.00    -0.307 N 
ATOM     23  C   UNL     1      -0.832  -5.360  -2.639  0.00  0.00    +0.299 C 
ATOM     24  O   UNL     1      -0.404  -4.931  -3.690  0.00  0.00    -0.265 OA
ATOM     25  H   UNL     1      -0.822  -5.117  -0.637  0.00  0.00    +0.149 HD
BRANCH  22  26
ATOM     26  C   UNL     1       0.423  -3.620  -1.484  0.00  0.00    +0.109 C 
BRANCH  26  27
ATOM     27  C   UNL     1       0.661  -3.150  -0.048  0.00  0.00    +0.052 C 
BRANCH  27  34
ATOM     28  C   UNL     1      -0.098   1.375  -0.007  0.00  0.00    +0.001 A 
ATOM     29  C   UNL     1       1.076   2.142  -0.022  0.00  0.00    +0.002 A 
ATOM     30  C   UNL     1       2.308   1.590  -0.045  0.00  0.00    +0.026 A 
ATOM     31  C   UNL     1       2.461   0.176  -0.056  0.00  0.00    +0.043 A 
ATOM     32  N   UNL     1       3.528  -0.586  -0.078  0.00  0.00    -0.380 N 
ATOM     33  C   UNL     1       3.100  -1.989  -0.080  0.00  0.00    +0.144 C 
ATOM     34  C   UNL     1       1.588  -1.962  -0.055  0.00  0.00    -0.040 C 
ATOM     35  C   UNL     1       1.237  -0.656  -0.041  0.00  0.00    -0.001 A 
ATOM     36  C   UNL     1      -0.064   0.024  -0.016  0.00  0.00    +0.010 A 
ATOM     37  H   UNL     1       4.446  -0.274  -0.091  0.00  0.00    +0.160 HD
ENDBRANCH  27  34
ENDBRANCH  26  27
ENDBRANCH  22  26
ENDBRANCH   1  23
TORSDOF 8
