REMARK  Name = ZINC01901795
REMARK  3 active torsions:
REMARK  status: ('A' for Active; 'I' for Inactive)
REMARK    1  A    between atoms: C_4  and  O_7
REMARK    2  A    between atoms: O_7  and  C_8
REMARK    3  A    between atoms: C_11  and  C_14
REMARK                            x       y       z     vdW  Elec       q    Type
REMARK                         _______ _______ _______ _____ _____    ______ ____
ROOT
ATOM      1  C   UNL     1       1.023   1.823   0.044  0.00  0.00    +0.047 C 
ATOM      2  C   UNL     1      -0.023   0.977   0.113  0.00  0.00    +0.023 C 
ATOM      3  C   UNL     1      -1.245   1.853   0.107  0.00  0.00    +0.138 C 
ATOM      4  C   UNL     1      -2.256   1.556   1.180  0.00  0.00    +0.017 A 
ATOM      5  C   UNL     1      -2.426   0.324   1.750  0.00  0.00    +0.009 A 
ATOM      6  C   UNL     1      -3.361   0.159   2.761  0.00  0.00    +0.001 A 
ATOM      7  C   UNL     1      -4.113   1.239   3.184  0.00  0.00    +0.004 A 
ATOM      8  C   UNL     1      -3.949   2.481   2.603  0.00  0.00    +0.046 A 
ATOM      9  C   UNL     1      -3.022   2.655   1.587  0.00  0.00    +0.128 A 
ATOM     10  O   UNL     1      -2.858   3.861   0.991  0.00  0.00    -0.469 OA
ATOM     11  C   UNL     1      -1.616   4.220   0.368  0.00  0.00    +0.177 C 
ATOM     12  N   UNL     1      -0.658   3.158   0.550  0.00  0.00    -0.177 NA
ATOM     13  N   UNL     1       0.562   3.154  -0.015  0.00  0.00    -0.273 N 
ATOM     14  C   UNL     1      -1.867   4.467  -1.124  0.00  0.00    +0.047 C 
ATOM     15  C   UNL     1      -2.878   5.604  -1.283  0.00  0.00    -0.077 C 
ATOM     16  C   UNL     1      -2.138   6.626   0.786  0.00  0.00    -0.077 C 
ATOM     17  C   UNL     1      -1.105   5.518   1.004  0.00  0.00    +0.047 C 
ATOM     18  H   UNL     1       1.031   3.916  -0.388  0.00  0.00    +0.167 HD
ATOM     19  N   UNL     1      -2.349   6.832  -0.659  0.00  0.00    +0.379 N 
ATOM     20  H   UNL     1      -3.020   7.598  -0.797  0.00  0.00    -0.086 HD
ATOM     21  H   UNL     1      -1.455   7.077  -1.100  0.00  0.00    -0.086 HD
ENDROOT
BRANCH   1  25
ATOM     22  C   UNL     1       5.110   0.654   0.010  0.00  0.00    +0.128 A 
ATOM     23  C   UNL     1       4.774   2.000  -0.053  0.00  0.00    +0.047 A 
ATOM     24  C   UNL     1       3.450   2.383  -0.042  0.00  0.00    +0.013 A 
ATOM     25  C   UNL     1       2.447   1.416   0.032  0.00  0.00    -0.003 A 
ATOM     26  C   UNL     1       2.788   0.065   0.100  0.00  0.00    +0.013 A 
ATOM     27  C   UNL     1       4.114  -0.311   0.084  0.00  0.00    +0.047 A 
BRANCH  22  28
ATOM     28  O   UNL     1       6.416   0.281  -0.001  0.00  0.00    -0.456 OA
BRANCH  28  32
ATOM     29  C   UNL     1       7.816  -1.771  -3.294  0.00  0.00    +0.000 A 
ATOM     30  C   UNL     1       8.633  -1.594  -2.193  0.00  0.00    +0.004 A 
ATOM     31  C   UNL     1       8.167  -0.908  -1.089  0.00  0.00    +0.046 A 
ATOM     32  C   UNL     1       6.878  -0.395  -1.086  0.00  0.00    +0.128 A 
ATOM     33  C   UNL     1       6.058  -0.578  -2.190  0.00  0.00    +0.046 A 
ATOM     34  C   UNL     1       6.531  -1.261  -3.294  0.00  0.00    +0.004 A 
ENDBRANCH  28  32
ENDBRANCH  22  28
ENDBRANCH   1  25
TORSDOF 3
