REMARK  Name = ZINC64604327
REMARK  8 active torsions:
REMARK  status: ('A' for Active; 'I' for Inactive)
REMARK    1  A    between atoms: C_5  and  S_12
REMARK    2  A    between atoms: S_12  and  C_13
REMARK    3  A    between atoms: C_13  and  C_14
REMARK    4  A    between atoms: C_16  and  C_19
REMARK    5  A    between atoms: C_19  and  C_20
REMARK    6  A    between atoms: C_20  and  C_21
REMARK    7  A    between atoms: N_23  and  C_24
REMARK    8  A    between atoms: C_26  and  C_37
REMARK                            x       y       z     vdW  Elec       q    Type
REMARK                         _______ _______ _______ _____ _____    ______ ____
ROOT
ATOM      1  C   UNL     1       5.087   0.745  -4.210  0.00  0.00    +0.182 A 
ATOM      2  N   UNL     1       5.429   1.840  -4.898  0.00  0.00    -0.195 NA
ATOM      3  C   UNL     1       6.048   1.504  -5.995  0.00  0.00    +0.228 A 
ATOM      4  O   UNL     1       6.122   0.168  -6.043  0.00  0.00    -0.338 OA
ATOM      5  N   UNL     1       5.492  -0.307  -4.863  0.00  0.00    -0.060 NA
ENDROOT
BRANCH   1   6
ATOM      6  C   UNL     1       4.358   0.730  -2.891  0.00  0.00    +0.152 C 
BRANCH   6   7
ATOM      7  S   UNL     1       5.560   0.786  -1.535  0.00  0.00    -0.107 S 
BRANCH   7  12
ATOM      8  C   UNL     1      -0.017   1.404   0.010  0.00  0.00    +0.022 A 
ATOM      9  C   UNL     1       1.108   2.145   0.003  0.00  0.00    +0.029 A 
ATOM     10  C   UNL     1       2.417   1.477  -0.013  0.00  0.00    +0.061 A 
ATOM     11  N   UNL     1       3.639   1.925  -0.023  0.00  0.00    -0.355 N 
ATOM     12  C   UNL     1       4.535   0.762  -0.038  0.00  0.00    +0.236 C 
ATOM     13  N   UNL     1       3.672  -0.426  -0.036  0.00  0.00    -0.355 N 
ATOM     14  C   UNL     1       2.438  -0.012  -0.021  0.00  0.00    +0.062 A 
ATOM     15  C   UNL     1       1.149  -0.715  -0.012  0.00  0.00    +0.047 A 
ATOM     16  C   UNL     1       0.002  -0.004   0.002  0.00  0.00    +0.043 A 
ATOM     17 CL   UNL     1      -1.509  -0.859   0.012  0.00  0.00    -0.083 Cl
ATOM     18  H   UNL     1       3.908   2.857  -0.021  0.00  0.00    +0.162 HD
ATOM     19  H   UNL     1       3.968  -1.350  -0.044  0.00  0.00    +0.162 HD
ENDBRANCH   7  12
ENDBRANCH   6   7
ENDBRANCH   1   6
BRANCH   3  20
ATOM     20  C   UNL     1       6.588   2.456  -7.031  0.00  0.00    +0.108 C 
BRANCH  20  21
ATOM     21  C   UNL     1       8.032   2.823  -6.684  0.00  0.00    +0.105 C 
BRANCH  21  22
ATOM     22  C   UNL     1       8.572   3.775  -7.720  0.00  0.00    +0.214 C 
ATOM     23  O   UNL     1       7.870   4.126  -8.645  0.00  0.00    -0.276 OA
ATOM     24  N   UNL     1       9.834   4.237  -7.618  0.00  0.00    -0.302 N 
ATOM     25  H   UNL     1      10.395   3.957  -6.878  0.00  0.00    +0.150 HD
BRANCH  24  26
ATOM     26  C   UNL     1      10.358   5.163  -8.625  0.00  0.00    +0.148 C 
ATOM     27  C   UNL     1      11.162   6.298  -7.956  0.00  0.00    +0.126 C 
ATOM     28  C   UNL     1      12.655   5.980  -7.934  0.00  0.00    +0.021 C 
ATOM     29  C   UNL     1      13.487   7.168  -7.536  0.00  0.00    +0.006 C 
ATOM     30  C   UNL     1      13.789   8.132  -8.666  0.00  0.00    +0.000 C 
ATOM     31  C   UNL     1      14.302   7.399  -9.901  0.00  0.00    +0.001 C 
ATOM     32  C   UNL     1      13.258   6.372 -10.345  0.00  0.00    +0.014 C 
ATOM     33  C   UNL     1      13.095   5.336  -9.256  0.00  0.00    +0.053 C 
ATOM     34  S   UNL     1      11.607   4.329  -9.686  0.00  0.00    -0.134 S 
BRANCH  27  35
ATOM     35  C   UNL     1      10.948   7.547  -8.705  0.00  0.00    +0.069 C 
ATOM     36  N   UNL     1      10.783   8.511  -9.283  0.00  0.00    -0.196 NA
ENDBRANCH  27  35
ENDBRANCH  24  26
ENDBRANCH  21  22
ENDBRANCH  20  21
ENDBRANCH   3  20
TORSDOF 8
