REMARK  Name = ZINC32964038
REMARK  2 active torsions:
REMARK  status: ('A' for Active; 'I' for Inactive)
REMARK    1  A    between atoms: C_6  and  N_11
REMARK    2  A    between atoms: C_15  and  C_16
REMARK                            x       y       z     vdW  Elec       q    Type
REMARK                         _______ _______ _______ _____ _____    ______ ____
ROOT
ATOM      1  N   UNL     1       4.844  -2.837  -0.176  0.00  0.00    -0.316 N 
ATOM      2  C   UNL     1       5.701  -2.885  -1.229  0.00  0.00    +0.092 A 
ATOM      3  C   UNL     1       6.603  -3.877  -1.020  0.00  0.00    +0.020 A 
ATOM      4  C   UNL     1       6.308  -4.478   0.205  0.00  0.00    +0.027 A 
ATOM      5  C   UNL     1       5.206  -3.816   0.729  0.00  0.00    +0.047 A 
ENDROOT
BRANCH   5   6
ATOM      6  C   UNL     1       4.573  -4.092   1.955  0.00  0.00    +0.042 C 
ATOM      7  C   UNL     1       5.145  -4.987   2.844  0.00  0.00    +0.082 C 
ATOM      8  C   UNL     1       6.574  -5.391   2.738  0.00  0.00    +0.153 C 
ATOM      9  N   UNL     1       7.516  -4.590   2.313  0.00  0.00    -0.283 NA
ATOM     10  N   UNL     1       6.811  -6.722   3.143  0.00  0.00    -0.152 N 
ATOM     11  C   UNL     1       5.902  -7.296   4.005  0.00  0.00    +0.180 C 
ATOM     12  N   UNL     1       4.774  -6.786   4.431  0.00  0.00    -0.152 NA
ATOM     13  C   UNL     1       4.369  -5.590   3.952  0.00  0.00    +0.273 C 
ATOM     14  O   UNL     1       3.392  -5.023   4.415  0.00  0.00    -0.268 OA
ATOM     15  S   UNL     1       6.651  -8.868   4.341  0.00  0.00    -0.041 S 
ATOM     16  C   UNL     1       8.054  -8.698   3.247  0.00  0.00    +0.179 C 
ATOM     17  N   UNL     1       7.882  -7.501   2.762  0.00  0.00    -0.173 NA
ATOM     18  H   UNL     1       8.443  -4.878   2.332  0.00  0.00    +0.188 HD
ENDBRANCH   5   6
BRANCH   1  24
ATOM     19  C   UNL     1       0.787   2.035   0.348  0.00  0.00    +0.001 A 
ATOM     20  C   UNL     1       2.071   2.535   0.142  0.00  0.00    +0.001 A 
ATOM     21  C   UNL     1       3.134   1.697  -0.004  0.00  0.00    +0.008 A 
ATOM     22  C   UNL     1       2.936   0.306   0.053  0.00  0.00    -0.016 A 
ATOM     23  C   UNL     1       4.010  -0.588  -0.093  0.00  0.00    +0.034 A 
ATOM     24  C   UNL     1       3.776  -1.943  -0.031  0.00  0.00    +0.047 A 
ATOM     25  C   UNL     1       2.483  -2.437   0.176  0.00  0.00    +0.027 A 
ATOM     26  C   UNL     1       1.428  -1.593   0.320  0.00  0.00    +0.010 A 
ATOM     27  C   UNL     1       1.630  -0.202   0.262  0.00  0.00    -0.018 A 
ATOM     28  C   UNL     1       0.558   0.695   0.409  0.00  0.00    +0.008 A 
ENDBRANCH   1  24
TORSDOF 2
