REMARK  Name = ZINC49789808
REMARK  11 active torsions:
REMARK  status: ('A' for Active; 'I' for Inactive)
REMARK    1  A    between atoms: C_1  and  C_2
REMARK    2  A    between atoms: C_7  and  N_8
REMARK    3  A    between atoms: N_11  and  N_12
REMARK    4  A    between atoms: N_15  and  C_16
REMARK    5  A    between atoms: C_16  and  C_17
REMARK    6  A    between atoms: C_17  and  C_19
REMARK    7  A    between atoms: C_17  and  N_27
REMARK    8  A    between atoms: C_24  and  O_25
REMARK    9  A    between atoms: O_25  and  C_26
REMARK   10  A    between atoms: N_27  and  C_28
REMARK   11  A    between atoms: N_27  and  C_29
REMARK                            x       y       z     vdW  Elec       q    Type
REMARK                         _______ _______ _______ _____ _____    ______ ____
ROOT
ATOM      1  N   UNL     1       0.098   2.141   4.920  0.00  0.00    -0.217 N 
ATOM      2  C   UNL     1      -0.016   2.610   6.179  0.00  0.00    +0.316 C 
ATOM      3  O   UNL     1       0.054   3.805   6.391  0.00  0.00    -0.251 OA
ATOM      4  N   UNL     1      -0.207   1.754   7.202  0.00  0.00    -0.299 N 
ATOM      5  H   UNL     1       0.236   2.757   4.184  0.00  0.00    +0.174 HD
ATOM      6  H   UNL     1      -0.263   0.800   7.033  0.00  0.00    +0.150 HD
ENDROOT
BRANCH   1  10
ATOM      7  N   UNL     1       0.323   1.151   2.394  0.00  0.00    -0.268 N 
ATOM      8  C   UNL     1       0.132   0.295   3.418  0.00  0.00    +0.320 C 
ATOM      9  O   UNL     1       0.062  -0.900   3.205  0.00  0.00    -0.251 OA
ATOM     10  N   UNL     1       0.018   0.764   4.676  0.00  0.00    -0.217 N 
ATOM     11  H   UNL     1       0.446   2.097   2.570  0.00  0.00    +0.156 HD
ATOM     12  H   UNL     1      -0.120   0.148   5.412  0.00  0.00    +0.174 HD
BRANCH   7  19
ATOM     13  C   UNL     1      -0.698   2.834   0.340  0.00  0.00    +0.045 C 
ATOM     14  C   UNL     1      -0.143   1.464   0.045  0.00  0.00    -0.029 A 
ATOM     15  C   UNL     1      -0.116   0.994  -1.253  0.00  0.00    +0.005 A 
ATOM     16  C   UNL     1       0.392  -0.263  -1.524  0.00  0.00    +0.000 A 
ATOM     17  C   UNL     1       0.874  -1.054  -0.496  0.00  0.00    +0.002 A 
ATOM     18  C   UNL     1       0.849  -0.589   0.804  0.00  0.00    +0.023 A 
ATOM     19  C   UNL     1       0.345   0.675   1.079  0.00  0.00    +0.038 A 
ENDBRANCH   7  19
ENDBRANCH   1  10
BRANCH   4  20
ATOM     20  C   UNL     1      -0.332   2.264   8.570  0.00  0.00    +0.095 C 
BRANCH  20  21
ATOM     21  C   UNL     1      -0.412   1.089   9.547  0.00  0.00    -0.017 C 
BRANCH  21  22
ATOM     22  C   UNL     1      -1.689   0.324   9.309  0.00  0.00    -0.018 A 
ATOM     23  C   UNL     1      -1.666  -0.848   8.577  0.00  0.00    +0.005 A 
ATOM     24  C   UNL     1      -2.837  -1.550   8.358  0.00  0.00    +0.000 A 
ATOM     25  C   UNL     1      -4.033  -1.081   8.870  0.00  0.00    +0.004 A 
ATOM     26  C   UNL     1      -4.061   0.089   9.603  0.00  0.00    +0.046 A 
ATOM     27  C   UNL     1      -2.886   0.793   9.829  0.00  0.00    +0.122 A 
BRANCH  27  28
ATOM     28  O   UNL     1      -2.909   1.942  10.554  0.00  0.00    -0.495 OA
ATOM     29  C   UNL     1      -4.178   2.365  11.059  0.00  0.00    +0.277 C 
ENDBRANCH  27  28
ENDBRANCH  21  22
BRANCH  21  30
ATOM     30  N   UNL     1       0.738   0.199   9.338  0.00  0.00    +0.382 N 
ATOM     31  C   UNL     1       1.982   0.974   9.437  0.00  0.00    -0.096 C 
ATOM     32  C   UNL     1       0.735  -0.855  10.362  0.00  0.00    -0.096 C 
ATOM     33  H   UNL     1       0.676  -0.222   8.423  0.00  0.00    -0.082 HD
ENDBRANCH  21  30
ENDBRANCH  20  21
ENDBRANCH   4  20
TORSDOF 7
