REMARK  Name = ZINC12731005
REMARK  15 active torsions:
REMARK  status: ('A' for Active; 'I' for Inactive)
REMARK    1  A    between atoms: C_1  and  C_2
REMARK    2  A    between atoms: C_2  and  C_3
REMARK    3  A    between atoms: C_2  and  C_4
REMARK    4  A    between atoms: C_4  and  C_6
REMARK    5  A    between atoms: C_4  and  N_21
REMARK    6  A    between atoms: N_8  and  C_9
REMARK    7  A    between atoms: C_9  and  C_10
REMARK    8  A    between atoms: C_10  and  C_11
REMARK    9  A    between atoms: C_14  and  S_17
REMARK   10  A    between atoms: S_17  and  N_20
REMARK   11  A    between atoms: C_22  and  C_24
REMARK   12  A    between atoms: C_27  and  C_30
REMARK   13  A    between atoms: C_30  and  C_31
REMARK   14  A    between atoms: C_30  and  C_32
REMARK   15  A    between atoms: C_30  and  C_33
REMARK                            x       y       z     vdW  Elec       q    Type
REMARK                         _______ _______ _______ _____ _____    ______ ____
ROOT
ATOM      1  C   UNL     1       0.765  -0.592  -1.187  0.00  0.00    +0.161 C 
ENDROOT
BRANCH   1   2
ATOM      2  C   UNL     1       0.152  -0.095  -2.471  0.00  0.00    +0.234 C 
ATOM      3  O   UNL     1      -0.385  -0.875  -3.229  0.00  0.00    -0.274 OA
ATOM      4  N   UNL     1       0.201   1.216  -2.779  0.00  0.00    -0.313 N 
ATOM      5  H   UNL     1       0.565   1.850  -2.141  0.00  0.00    +0.149 HD
BRANCH   4   6
ATOM      6  C   UNL     1      -0.296   1.684  -4.075  0.00  0.00    +0.109 C 
BRANCH   6   7
ATOM      7  C   UNL     1      -0.125   3.202  -4.169  0.00  0.00    +0.054 C 
BRANCH   7   8
ATOM      8  C   UNL     1      -0.636   3.683  -5.502  0.00  0.00    -0.046 A 
ATOM      9  C   UNL     1       0.217   3.747  -6.588  0.00  0.00    +0.005 A 
ATOM     10  C   UNL     1      -0.251   4.189  -7.811  0.00  0.00    +0.029 A 
ATOM     11  C   UNL     1      -1.574   4.566  -7.949  0.00  0.00    +0.105 A 
ATOM     12  C   UNL     1      -2.428   4.501  -6.864  0.00  0.00    +0.029 A 
ATOM     13  C   UNL     1      -1.960   4.055  -5.642  0.00  0.00    +0.005 A 
BRANCH  11  14
ATOM     14  S   UNL     1      -2.171   5.130  -9.508  0.00  0.00    +0.056 S 
ATOM     15  O   UNL     1      -3.308   5.939  -9.239  0.00  0.00    -0.153 OA
ATOM     16  O   UNL     1      -1.043   5.614 -10.223  0.00  0.00    -0.153 OA
BRANCH  14  17
ATOM     17  N   UNL     1      -2.719   3.802 -10.331  0.00  0.00    -0.204 NA
ATOM     18  H   UNL     1      -3.446   3.892 -10.968  0.00  0.00    +0.144 HD
ATOM     19  H   UNL     1      -2.315   2.934 -10.177  0.00  0.00    +0.144 HD
ENDBRANCH  14  17
ENDBRANCH  11  14
ENDBRANCH   7   8
ENDBRANCH   6   7
ENDBRANCH   4   6
ENDBRANCH   1   2
BRANCH   1  20
ATOM     20  N   UNL     1       1.134  -2.002  -1.336  0.00  0.00    -0.304 N 
ATOM     21  C   UNL     1       2.112  -2.526  -0.571  0.00  0.00    +0.217 C 
ATOM     22  O   UNL     1       2.687  -1.831   0.239  0.00  0.00    -0.275 OA
ATOM     23  H   UNL     1       0.674  -2.558  -1.984  0.00  0.00    +0.149 HD
BRANCH  21  24
ATOM     24  C   UNL     1       2.491  -3.977  -0.724  0.00  0.00    +0.075 C 
ATOM     25  C   UNL     1       1.276  -4.856  -0.424  0.00  0.00    +0.013 C 
ATOM     26  C   UNL     1       1.661  -6.329  -0.579  0.00  0.00    +0.005 C 
ATOM     27  C   UNL     1       2.789  -6.666   0.399  0.00  0.00    -0.006 C 
ATOM     28  C   UNL     1       4.005  -5.787   0.098  0.00  0.00    +0.005 C 
ATOM     29  C   UNL     1       3.619  -4.314   0.253  0.00  0.00    +0.013 C 
BRANCH  27  30
ATOM     30  C   UNL     1       3.174  -8.139   0.244  0.00  0.00    -0.035 C 
ATOM     31  C   UNL     1       3.647  -8.394  -1.189  0.00  0.00    +0.011 C 
ATOM     32  C   UNL     1       4.302  -8.477   1.221  0.00  0.00    +0.011 C 
ATOM     33  C   UNL     1       1.959  -9.018   0.544  0.00  0.00    +0.011 C 
ENDBRANCH  27  30
ENDBRANCH  21  24
ENDBRANCH   1  20
BRANCH   1  35
ATOM     34  C   UNL     1      -1.437  -1.375  -0.303  0.00  0.00    +0.009 C 
ATOM     35  C   UNL     1      -0.248  -0.446  -0.050  0.00  0.00    +0.012 C 
ATOM     36  C   UNL     1       0.418  -0.820   1.276  0.00  0.00    +0.009 C 
ENDBRANCH   1  35
TORSDOF 10
