REMARK  Name = ZINC50441546
REMARK  7 active torsions:
REMARK  status: ('A' for Active; 'I' for Inactive)
REMARK    1  A    between atoms: C_1  and  C_2
REMARK    2  A    between atoms: C_2  and  C_3
REMARK    3  A    between atoms: C_2  and  C_16
REMARK    4  A    between atoms: C_2  and  N_19
REMARK    5  A    between atoms: C_3  and  O_4
REMARK    6  A    between atoms: O_4  and  C_5
REMARK    7  A    between atoms: C_8  and  N_12
REMARK                            x       y       z     vdW  Elec       q    Type
REMARK                         _______ _______ _______ _____ _____    ______ ____
ROOT
ATOM      1  C   UNL     1       0.742  -0.511   1.242  0.00  0.00    +0.225 C 
ENDROOT
BRANCH   1   3
ATOM      2  C   UNL     1      -0.019   1.526   0.010  0.00  0.00    +0.002 C 
ATOM      3  C   UNL     1       0.002  -0.004   0.002  0.00  0.00    +0.039 C 
BRANCH   3   4
ATOM      4  C   UNL     1       0.707  -0.490  -1.238  0.00  0.00    +0.202 C 
ATOM      5  O   UNL     1       1.889  -0.763  -1.196  0.00  0.00    -0.277 OA
ATOM      6  N   UNL     1       0.026  -0.622  -2.393  0.00  0.00    -0.330 N 
ATOM      7  H   UNL     1      -0.919  -0.404  -2.426  0.00  0.00    +0.145 HD
ATOM      8  H   UNL     1       0.480  -0.934  -3.191  0.00  0.00    +0.145 HD
ENDBRANCH   3   4
BRANCH   3   9
ATOM      9  N   UNL     1      -1.376  -0.512   0.012  0.00  0.00    +0.390 N 
ATOM     10  H   UNL     1      -1.864  -0.178  -0.805  0.00  0.00    -0.088 HD
ATOM     11  H   UNL     1      -1.362  -1.521   0.007  0.00  0.00    -0.088 HD
ATOM     12  H   UNL     1      -1.848  -0.187   0.843  0.00  0.00    -0.088 HD
ENDBRANCH   3   9
ENDBRANCH   1   3
BRANCH   1  13
ATOM     13  O   UNL     1       0.010  -0.149   2.414  0.00  0.00    -0.491 OA
BRANCH  13  14
ATOM     14  C   UNL     1       0.535  -0.527   3.610  0.00  0.00    +0.148 A 
ATOM     15  C   UNL     1       0.200  -1.757   4.159  0.00  0.00    +0.063 A 
ATOM     16  C   UNL     1       0.735  -2.139   5.375  0.00  0.00    +0.051 A 
ATOM     17  C   UNL     1       1.603  -1.296   6.045  0.00  0.00    +0.129 A 
ATOM     18  C   UNL     1       1.938  -0.070   5.500  0.00  0.00    +0.051 A 
ATOM     19  C   UNL     1       1.411   0.314   4.282  0.00  0.00    +0.063 A 
ATOM     20 BR   UNL     1       1.876   1.988   3.535  0.00  0.00    -0.046 Br
ATOM     21 BR   UNL     1      -0.988  -2.909   3.244  0.00  0.00    -0.046 Br
BRANCH  17  22
ATOM     22  N   UNL     1       2.174  -1.707   7.347  0.00  0.00    +0.056 N 
ATOM     23  O   UNL     1       1.881  -2.779   7.824  0.00  0.00    -0.126 OA
ATOM     24  O   UNL     1       2.933  -0.972   7.934  0.00  0.00    -0.126 OA
ENDBRANCH  17  22
ENDBRANCH  13  14
ENDBRANCH   1  13
TORSDOF 6
