REMARK  Name = ZINC44933405
REMARK  6 active torsions:
REMARK  status: ('A' for Active; 'I' for Inactive)
REMARK    1  A    between atoms: C_1  and  C_2
REMARK    2  A    between atoms: C_4  and  C_20
REMARK    3  A    between atoms: C_7  and  C_8
REMARK    4  A    between atoms: C_8  and  N_10
REMARK    5  A    between atoms: N_11  and  C_12
REMARK    6  A    between atoms: C_12  and  C_19
REMARK                            x       y       z     vdW  Elec       q    Type
REMARK                         _______ _______ _______ _____ _____    ______ ____
ROOT
ATOM      1  C   UNL     1      -0.079   1.391  -0.143  0.00  0.00    +0.044 C 
ATOM      2  C   UNL     1       0.082  -0.107  -0.103  0.00  0.00    -0.036 A 
ATOM      3  C   UNL     1       0.239  -0.834  -1.271  0.00  0.00    +0.025 A 
ATOM      4  C   UNL     1       0.386  -2.208  -1.203  0.00  0.00    +0.015 A 
ATOM      5  N   UNL     1       0.378  -2.840  -0.046  0.00  0.00    -0.347 N 
ATOM      6  C   UNL     1       0.231  -2.195   1.101  0.00  0.00    +0.107 A 
ATOM      7  C   UNL     1       0.083  -0.797   1.115  0.00  0.00    +0.044 A 
ATOM      8  N   UNL     1       0.229  -2.899   2.291  0.00  0.00    -0.323 N 
ATOM      9  C   UNL     1       0.556  -2.997  -2.476  0.00  0.00    +0.063 C 
ATOM     10  H   UNL     1       0.121  -2.429   3.133  0.00  0.00    +0.148 HD
ATOM     11  H   UNL     1       0.482  -3.805  -0.034  0.00  0.00    +0.167 HD
ENDROOT
BRANCH   8  12
ATOM     12  C   UNL     1       0.389  -4.355   2.281  0.00  0.00    +0.051 C 
ATOM     13  C   UNL     1      -0.714  -4.963   1.417  0.00  0.00    +0.049 C 
ATOM     14  C   UNL     1      -1.047  -6.402   1.901  0.00  0.00    +0.168 C 
ATOM     15  S   UNL     1      -0.943  -6.144   3.727  0.00  0.00    -0.029 S 
ATOM     16  O   UNL     1      -0.451  -7.328   4.339  0.00  0.00    -0.174 OA
ATOM     17  O   UNL     1      -2.158  -5.567   4.187  0.00  0.00    -0.174 OA
ATOM     18  C   UNL     1       0.379  -4.863   3.737  0.00  0.00    +0.191 C 
ATOM     19  C   UNL     1       1.742  -4.694   1.653  0.00  0.00    +0.033 C 
ENDBRANCH   8  12
BRANCH   7  20
ATOM     20  C   UNL     1      -0.074  -0.072   2.387  0.00  0.00    +0.080 C 
ATOM     21  S   UNL     1       1.292   0.617   3.154  0.00  0.00    -0.035 S 
BRANCH  20  22
ATOM     22  N   UNL     1      -1.294   0.050   2.947  0.00  0.00    -0.352 N 
ATOM     23  H   UNL     1      -2.078  -0.276   2.477  0.00  0.00    +0.143 HD
ATOM     24  H   UNL     1      -1.388   0.463   3.819  0.00  0.00    +0.143 HD
ENDBRANCH  20  22
ENDBRANCH   7  20
TORSDOF 3
