REMARK  Name = ZINC50368360
REMARK  6 active torsions:
REMARK  status: ('A' for Active; 'I' for Inactive)
REMARK    1  A    between atoms: C_1  and  O_2
REMARK    2  A    between atoms: O_2  and  C_3
REMARK    3  A    between atoms: C_8  and  N_10
REMARK    4  A    between atoms: N_10  and  S_11
REMARK    5  A    between atoms: S_11  and  C_14
REMARK    6  A    between atoms: C_19  and  N_20
REMARK                            x       y       z     vdW  Elec       q    Type
REMARK                         _______ _______ _______ _____ _____    ______ ____
ROOT
ATOM      1  S   UNL     1       3.647  -2.620  -0.001  0.00  0.00    +0.061 S 
ATOM      2  O   UNL     1       5.004  -2.332  -0.308  0.00  0.00    -0.153 OA
ATOM      3  O   UNL     1       3.046  -2.232   1.226  0.00  0.00    -0.153 OA
ENDROOT
BRANCH   1   4
ATOM      4  C   UNL     1       3.465  -4.369  -0.120  0.00  0.00    +0.127 A 
ATOM      5  C   UNL     1       2.865  -5.073   0.906  0.00  0.00    +0.045 A 
ATOM      6  C   UNL     1       2.721  -6.446   0.813  0.00  0.00    +0.020 A 
ATOM      7  C   UNL     1       3.179  -7.118  -0.307  0.00  0.00    +0.017 A 
ATOM      8  C   UNL     1       3.779  -6.419  -1.335  0.00  0.00    +0.026 A 
ATOM      9  C   UNL     1       3.919  -5.040  -1.248  0.00  0.00    +0.051 A 
ATOM     10 BR   UNL     1       1.900  -7.406   2.220  0.00  0.00    -0.050 Br
BRANCH   9  11
ATOM     11  N   UNL     1       4.521  -4.330  -2.290  0.00  0.00    -0.356 N 
ATOM     12  H   UNL     1       4.588  -3.363  -2.243  0.00  0.00    +0.142 HD
ATOM     13  H   UNL     1       4.872  -4.803  -3.060  0.00  0.00    +0.142 HD
ENDBRANCH   9  11
ENDBRANCH   1   4
BRANCH   1  14
ATOM     14  N   UNL     1       2.735  -1.949  -1.209  0.00  0.00    -0.184 NA
ATOM     15  H   UNL     1       3.164  -1.446  -1.918  0.00  0.00    +0.148 HD
BRANCH  14  20
ATOM     16  C   UNL     1       0.591  -0.741  -1.181  0.00  0.00    +0.136 C 
ATOM     17  C   UNL     1      -0.257  -0.648  -2.467  0.00  0.00    +0.033 C 
ATOM     18  C   UNL     1       0.418  -1.645  -3.441  0.00  0.00    +0.004 C 
ATOM     19  C   UNL     1       0.824  -2.812  -2.507  0.00  0.00    +0.023 C 
ATOM     20  C   UNL     1       1.280  -2.117  -1.206  0.00  0.00    +0.105 C 
BRANCH  16  22
ATOM     21  C   UNL     1      -0.401   0.699   0.458  0.00  0.00    +0.194 C 
ATOM     22  O   UNL     1      -0.250  -0.635  -0.031  0.00  0.00    -0.378 OA
ENDBRANCH  16  22
ENDBRANCH  14  20
ENDBRANCH   1  14
TORSDOF 5
