REMARK  Name = ZINC08742529
REMARK  11 active torsions:
REMARK  status: ('A' for Active; 'I' for Inactive)
REMARK    1  A    between atoms: C_1  and  C_2
REMARK    2  A    between atoms: C_2  and  C_3
REMARK    3  A    between atoms: C_3  and  C_5
REMARK    4  A    between atoms: C_3  and  C_6
REMARK    5  A    between atoms: C_6  and  C_8
REMARK    6  A    between atoms: C_6  and  N_20
REMARK    7  A    between atoms: N_10  and  C_11
REMARK    8  A    between atoms: C_11  and  C_12
REMARK    9  A    between atoms: C_15  and  O_18
REMARK   10  A    between atoms: O_18  and  C_19
REMARK   11  A    between atoms: C_21  and  C_23
REMARK                            x       y       z     vdW  Elec       q    Type
REMARK                         _______ _______ _______ _____ _____    ______ ____
ROOT
ATOM      1  C   UNL     1       2.437   5.333   1.021  0.00  0.00    +0.162 C 
ENDROOT
BRANCH   1   2
ATOM      2  C   UNL     1       3.542   5.554   2.022  0.00  0.00    +0.234 C 
ATOM      3  O   UNL     1       4.189   4.612   2.428  0.00  0.00    -0.274 OA
ATOM      4  N   UNL     1       3.810   6.798   2.466  0.00  0.00    -0.310 N 
ATOM      5  H   UNL     1       3.247   7.541   2.198  0.00  0.00    +0.149 HD
BRANCH   4   6
ATOM      6  C   UNL     1       4.953   7.028   3.354  0.00  0.00    +0.139 C 
BRANCH   6   7
ATOM      7  C   UNL     1       5.032   8.492   3.701  0.00  0.00    -0.030 A 
ATOM      8  C   UNL     1       5.774   9.350   2.912  0.00  0.00    +0.009 A 
ATOM      9  C   UNL     1       5.844  10.694   3.225  0.00  0.00    +0.046 A 
ATOM     10  C   UNL     1       5.176  11.180   4.340  0.00  0.00    +0.120 A 
ATOM     11  C   UNL     1       4.436  10.316   5.134  0.00  0.00    +0.046 A 
ATOM     12  C   UNL     1       4.366   8.975   4.813  0.00  0.00    +0.009 A 
BRANCH  10  13
ATOM     13  O   UNL     1       5.247  12.501   4.654  0.00  0.00    -0.495 OA
ATOM     14  C   UNL     1       6.027  13.331   3.791  0.00  0.00    +0.277 C 
ENDBRANCH  10  13
ENDBRANCH   6   7
ENDBRANCH   4   6
ENDBRANCH   1   2
BRANCH   1  15
ATOM     15  N   UNL     1       1.999   3.937   1.077  0.00  0.00    -0.305 N 
ATOM     16  C   UNL     1       0.752   3.605   0.686  0.00  0.00    +0.200 C 
ATOM     17  O   UNL     1      -0.006   4.463   0.287  0.00  0.00    -0.278 OA
ATOM     18  H   UNL     1       2.606   3.251   1.396  0.00  0.00    +0.149 HD
BRANCH  16  19
ATOM     19  C   UNL     1       0.302   2.168   0.744  0.00  0.00    +0.021 C 
ATOM     20  C   UNL     1       0.820   1.418  -0.484  0.00  0.00    +0.028 C 
ATOM     21  C   UNL     1       0.180   0.056  -0.561  0.00  0.00    -0.047 A 
ATOM     22  C   UNL     1       0.761  -0.903  -1.378  0.00  0.00    +0.004 A 
ATOM     23  C   UNL     1       0.202  -2.160  -1.484  0.00  0.00    +0.000 A 
ATOM     24  C   UNL     1      -0.943  -2.466  -0.773  0.00  0.00    +0.000 A 
ATOM     25  C   UNL     1      -1.521  -1.514   0.042  0.00  0.00    +0.002 A 
ATOM     26  C   UNL     1      -0.960  -0.250   0.151  0.00  0.00    -0.061 A 
ATOM     27  C   UNL     1      -1.625   0.754   1.056  0.00  0.00    -0.045 C 
ATOM     28  N   UNL     1      -1.172   2.115   0.739  0.00  0.00    +0.389 N 
ATOM     29  H   UNL     1      -1.519   2.382  -0.190  0.00  0.00    -0.084 HD
ATOM     30  H   UNL     1      -1.539   2.768   1.441  0.00  0.00    -0.084 HD
ENDBRANCH  16  19
ENDBRANCH   1  15
BRANCH   1  31
ATOM     31  C   UNL     1       2.952   5.650  -0.385  0.00  0.00    +0.015 C 
ATOM     32  C   UNL     1       4.027   4.634  -0.775  0.00  0.00    +0.010 C 
BRANCH  31  34
ATOM     33  C   UNL     1       0.782   6.680  -1.072  0.00  0.00    +0.004 C 
ATOM     34  C   UNL     1       1.794   5.575  -1.381  0.00  0.00    +0.002 C 
ENDBRANCH  31  34
ENDBRANCH   1  31
TORSDOF 8
