REMARK  Name = ZINC61689512
REMARK  8 active torsions:
REMARK  status: ('A' for Active; 'I' for Inactive)
REMARK    1  A    between atoms: C_1  and  C_2
REMARK    2  A    between atoms: C_2  and  C_3
REMARK    3  A    between atoms: C_3  and  C_5
REMARK    4  A    between atoms: C_3  and  N_6
REMARK    5  A    between atoms: N_6  and  C_7
REMARK    6  A    between atoms: C_7  and  C_8
REMARK    7  A    between atoms: C_7  and  C_9
REMARK    8  A    between atoms: C_7  and  C_17
REMARK                            x       y       z     vdW  Elec       q    Type
REMARK                         _______ _______ _______ _____ _____    ______ ____
ROOT
ATOM      1  C   UNL     1       2.744  -0.269  -2.048  0.00  0.00    +0.033 C 
ATOM      2  C   UNL     1       2.273   0.567  -3.239  0.00  0.00    +0.004 C 
ENDROOT
BRANCH   1   3
ATOM      3  C   UNL     1       4.165   0.100  -1.705  0.00  0.00    -0.049 A 
ATOM      4  C   UNL     1       4.466   0.596  -0.450  0.00  0.00    +0.005 A 
ATOM      5  C   UNL     1       5.768   0.934  -0.134  0.00  0.00    +0.040 A 
ATOM      6  C   UNL     1       6.772   0.778  -1.075  0.00  0.00    +0.137 A 
ATOM      7  C   UNL     1       6.469   0.281  -2.332  0.00  0.00    +0.053 A 
ATOM      8  C   UNL     1       5.166  -0.062  -2.644  0.00  0.00    +0.020 A 
ATOM      9 BR   UNL     1       7.838   0.066  -3.619  0.00  0.00    -0.047 Br
ATOM     10  F   UNL     1       8.045   1.109  -0.767  0.00  0.00    -0.204 F 
ENDBRANCH   1   3
BRANCH   1  11
ATOM     11  C   UNL     1       2.678  -1.732  -2.403  0.00  0.00    +0.204 C 
ATOM     12  O   UNL     1       2.639  -2.073  -3.566  0.00  0.00    -0.277 OA
ATOM     13  N   UNL     1       2.661  -2.662  -1.428  0.00  0.00    -0.330 N 
ATOM     14  H   UNL     1       2.692  -2.390  -0.497  0.00  0.00    +0.145 HD
ATOM     15  H   UNL     1       2.618  -3.604  -1.656  0.00  0.00    +0.145 HD
ENDBRANCH   1  11
BRANCH   1  16
ATOM     16  N   UNL     1       1.878  -0.006  -0.891  0.00  0.00    +0.393 N 
ATOM     17  H   UNL     1       2.015   0.943  -0.577  0.00  0.00    -0.084 HD
ATOM     18  H   UNL     1       2.109  -0.644  -0.145  0.00  0.00    -0.084 HD
BRANCH  16  19
ATOM     19  C   UNL     1       0.473  -0.195  -1.279  0.00  0.00    -0.073 C 
ATOM     20  C   UNL     1       0.222  -1.675  -1.577  0.00  0.00    -0.014 C 
BRANCH  19  22
ATOM     21  C   UNL     1      -0.276   1.763   0.080  0.00  0.00    +0.002 C 
ATOM     22  C   UNL     1      -0.437   0.257  -0.135  0.00  0.00    -0.019 C 
ENDBRANCH  19  22
ENDBRANCH  16  19
ENDBRANCH   1  16
TORSDOF 5
