REMARK  Name = ZINC50672042
REMARK  6 active torsions:
REMARK  status: ('A' for Active; 'I' for Inactive)
REMARK    1  A    between atoms: C_1  and  N_2
REMARK    2  A    between atoms: C_7  and  C_9
REMARK    3  A    between atoms: C_9  and  N_10
REMARK    4  A    between atoms: N_10  and  S_11
REMARK    5  A    between atoms: S_11  and  C_14
REMARK    6  A    between atoms: C_19  and  N_20
REMARK                            x       y       z     vdW  Elec       q    Type
REMARK                         _______ _______ _______ _____ _____    ______ ____
ROOT
ATOM      1  S   UNL     1      -1.234   2.042   3.471  0.00  0.00    +0.062 S 
ATOM      2  O   UNL     1      -1.301   3.450   3.290  0.00  0.00    -0.153 OA
ATOM      3  O   UNL     1      -2.386   1.212   3.418  0.00  0.00    -0.153 OA
ENDROOT
BRANCH   1   4
ATOM      4  C   UNL     1      -0.490   1.772   5.045  0.00  0.00    +0.146 A 
ATOM      5  C   UNL     1      -1.076   0.915   5.960  0.00  0.00    +0.048 A 
ATOM      6  C   UNL     1      -0.455   0.732   7.189  0.00  0.00    +0.038 A 
ATOM      7  C   UNL     1       0.721   1.405   7.459  0.00  0.00    +0.128 A 
ATOM      8  N   UNL     1       1.257   2.217   6.567  0.00  0.00    -0.238 NA
ATOM      9  C   UNL     1       0.698   2.413   5.383  0.00  0.00    +0.143 A 
ATOM     10 BR   UNL     1      -1.211  -0.426   8.478  0.00  0.00    -0.049 Br
BRANCH   9  11
ATOM     11  N   UNL     1       1.301   3.271   4.470  0.00  0.00    -0.342 N 
ATOM     12  H   UNL     1       0.862   3.470   3.628  0.00  0.00    +0.144 HD
ATOM     13  H   UNL     1       2.160   3.671   4.675  0.00  0.00    +0.144 HD
ENDBRANCH   9  11
ENDBRANCH   1   4
BRANCH   1  14
ATOM     14  N   UNL     1      -0.183   1.467   2.328  0.00  0.00    -0.191 NA
ATOM     15  H   UNL     1       0.215   2.075   1.685  0.00  0.00    +0.148 HD
BRANCH  14  16
ATOM     16  C   UNL     1       0.145   0.040   2.286  0.00  0.00    +0.090 C 
BRANCH  16  23
ATOM     17  C   UNL     1       2.886   0.424   1.809  0.00  0.00    -0.096 C 
ATOM     18  N   UNL     1       1.933   0.572   0.701  0.00  0.00    +0.381 N 
ATOM     19  C   UNL     1       2.588   0.203  -0.559  0.00  0.00    -0.079 C 
ATOM     20  C   UNL     1       1.625   0.432  -1.726  0.00  0.00    -0.019 C 
ATOM     21  C   UNL     1       0.376  -0.430  -1.527  0.00  0.00    -0.003 C 
ATOM     22  C   UNL     1      -0.258  -0.089  -0.176  0.00  0.00    -0.014 C 
ATOM     23  C   UNL     1       0.775  -0.299   0.934  0.00  0.00    -0.053 C 
ATOM     24  H   UNL     1       1.625   1.532   0.649  0.00  0.00    -0.082 HD
ENDBRANCH  16  23
ENDBRANCH  14  16
ENDBRANCH   1  14
TORSDOF 5
