REMARK  Name = ZINC61502354
REMARK  10 active torsions:
REMARK  status: ('A' for Active; 'I' for Inactive)
REMARK    1  A    between atoms: C_1  and  C_2
REMARK    2  A    between atoms: C_5  and  C_8
REMARK    3  A    between atoms: C_8  and  C_9
REMARK    4  A    between atoms: C_8  and  N_25
REMARK    5  A    between atoms: C_9  and  N_10
REMARK    6  A    between atoms: C_11  and  C_13
REMARK    7  A    between atoms: C_13  and  O_14
REMARK    8  A    between atoms: O_14  and  C_15
REMARK    9  A    between atoms: C_18  and  C_21
REMARK   10  A    between atoms: C_21  and  C_22
REMARK                            x       y       z     vdW  Elec       q    Type
REMARK                         _______ _______ _______ _____ _____    ______ ____
ROOT
ATOM      1  N   UNL     1      -2.205  -4.393  -0.961  0.00  0.00    -0.314 N 
ATOM      2  C   UNL     1      -3.511  -4.721  -0.992  0.00  0.00    +0.251 C 
ATOM      3  O   UNL     1      -3.977  -5.435  -0.129  0.00  0.00    -0.272 OA
ATOM      4  H   UNL     1      -1.832  -3.821  -1.651  0.00  0.00    +0.149 HD
ENDROOT
BRANCH   1   5
ATOM      5  C   UNL     1      -1.347  -4.898   0.113  0.00  0.00    +0.093 C 
BRANCH   5   6
ATOM      6  C   UNL     1       0.045  -4.274  -0.009  0.00  0.00    -0.020 C 
BRANCH   6  11
ATOM      7  C   UNL     1      -0.311   1.419   0.913  0.00  0.00    +0.044 C 
ATOM      8  C   UNL     1      -0.218  -0.066   0.672  0.00  0.00    -0.050 A 
ATOM      9  C   UNL     1      -0.149  -0.554  -0.619  0.00  0.00    +0.003 A 
ATOM     10  C   UNL     1      -0.064  -1.916  -0.840  0.00  0.00    +0.002 A 
ATOM     11  C   UNL     1      -0.047  -2.790   0.231  0.00  0.00    -0.059 A 
ATOM     12  C   UNL     1      -0.115  -2.301   1.523  0.00  0.00    +0.002 A 
ATOM     13  C   UNL     1      -0.196  -0.939   1.743  0.00  0.00    +0.003 A 
ENDBRANCH   6  11
BRANCH   6  14
ATOM     14  N   UNL     1       0.941  -4.877   0.987  0.00  0.00    +0.385 N 
ATOM     15  C   UNL     1       1.104  -6.329   0.717  0.00  0.00    -0.078 C 
ATOM     16  C   UNL     1       2.435  -6.675   1.431  0.00  0.00    -0.020 C 
ATOM     17  C   UNL     1       3.300  -5.419   1.176  0.00  0.00    -0.020 C 
ATOM     18  C   UNL     1       2.295  -4.292   0.875  0.00  0.00    -0.078 C 
ATOM     19  H   UNL     1       0.575  -4.734   1.916  0.00  0.00    -0.081 HD
ENDBRANCH   6  14
ENDBRANCH   5   6
ENDBRANCH   1   5
BRANCH   2  20
ATOM     20  C   UNL     1      -4.394  -4.201  -2.097  0.00  0.00    +0.324 C 
BRANCH  20  21
ATOM     21  O   UNL     1      -5.726  -4.685  -1.911  0.00  0.00    -0.483 OA
BRANCH  21  22
ATOM     22  C   UNL     1      -6.654  -4.305  -2.828  0.00  0.00    +0.121 A 
ATOM     23  C   UNL     1      -6.289  -3.490  -3.889  0.00  0.00    +0.046 A 
ATOM     24  C   UNL     1      -7.234  -3.106  -4.821  0.00  0.00    +0.007 A 
ATOM     25  C   UNL     1      -8.543  -3.534  -4.696  0.00  0.00    -0.038 A 
ATOM     26  C   UNL     1      -8.909  -4.346  -3.639  0.00  0.00    +0.007 A 
ATOM     27  C   UNL     1      -7.966  -4.738  -2.708  0.00  0.00    +0.046 A 
BRANCH  25  28
ATOM     28  C   UNL     1      -9.572  -3.113  -5.713  0.00  0.00    +0.130 C 
BRANCH  28  29
ATOM     29  C   UNL     1      -9.614  -4.122  -6.832  0.00  0.00    +0.215 C 
ATOM     30  O   UNL     1      -8.880  -5.087  -6.806  0.00  0.00    -0.276 OA
ATOM     31  N   UNL     1     -10.466  -3.951  -7.862  0.00  0.00    -0.329 N 
ATOM     32  H   UNL     1     -11.053  -3.179  -7.883  0.00  0.00    +0.145 HD
ATOM     33  H   UNL     1     -10.493  -4.601  -8.582  0.00  0.00    +0.145 HD
ENDBRANCH  28  29
ENDBRANCH  25  28
ENDBRANCH  21  22
ENDBRANCH  20  21
ENDBRANCH   2  20
TORSDOF 9
