REMARK  Name = ZINC52859037
REMARK  7 active torsions:
REMARK  status: ('A' for Active; 'I' for Inactive)
REMARK    1  A    between atoms: C_1  and  C_2
REMARK    2  A    between atoms: C_2  and  C_4
REMARK    3  A    between atoms: C_2  and  N_16
REMARK    4  A    between atoms: C_4  and  N_5
REMARK    5  A    between atoms: N_5  and  C_6
REMARK    6  A    between atoms: C_11  and  C_12
REMARK    7  A    between atoms: C_12  and  N_14
REMARK                            x       y       z     vdW  Elec       q    Type
REMARK                         _______ _______ _______ _____ _____    ______ ____
ROOT
ATOM      1  N   UNL     1       2.307   0.353   1.024  0.00  0.00    -0.345 N 
ATOM      2  H   UNL     1       2.733   1.006   0.447  0.00  0.00    +0.146 HD
ENDROOT
BRANCH   1   3
ATOM      3  C   UNL     1       3.043  -0.283   2.017  0.00  0.00    +0.037 A 
ATOM      4  C   UNL     1       2.570  -0.318   3.322  0.00  0.00    +0.025 A 
ATOM      5  C   UNL     1       3.302  -0.950   4.306  0.00  0.00    +0.022 A 
ATOM      6  C   UNL     1       4.514  -1.553   4.002  0.00  0.00    +0.042 A 
ATOM      7  C   UNL     1       4.999  -1.528   2.712  0.00  0.00    +0.032 A 
ATOM      8  C   UNL     1       4.266  -0.897   1.704  0.00  0.00    +0.025 A 
ATOM      9 CL   UNL     1       5.423  -2.343   5.253  0.00  0.00    -0.084 Cl
BRANCH   8  10
ATOM     10  C   UNL     1       4.776  -0.871   0.323  0.00  0.00    +0.079 C 
ATOM     11  S   UNL     1       3.799  -0.252  -0.939  0.00  0.00    -0.035 S 
BRANCH  10  12
ATOM     12  N   UNL     1       6.012  -1.336   0.052  0.00  0.00    -0.352 N 
ATOM     13  H   UNL     1       6.565  -1.687   0.766  0.00  0.00    +0.143 HD
ATOM     14  H   UNL     1       6.348  -1.319  -0.858  0.00  0.00    +0.143 HD
ENDBRANCH  10  12
ENDBRANCH   8  10
ENDBRANCH   1   3
BRANCH   1  15
ATOM     15  C   UNL     1       0.887   0.036   0.849  0.00  0.00    +0.086 C 
BRANCH  15  17
ATOM     16  C   UNL     1       0.448   2.287  -0.142  0.00  0.00    -0.012 C 
ATOM     17  C   UNL     1       0.346   0.779  -0.375  0.00  0.00    -0.054 C 
BRANCH  17  18
ATOM     18  N   UNL     1      -1.060   0.410  -0.589  0.00  0.00    +0.382 N 
ATOM     19  C   UNL     1      -1.162  -1.044  -0.759  0.00  0.00    -0.078 C 
ATOM     20  C   UNL     1      -2.633  -1.443  -0.902  0.00  0.00    -0.019 C 
ATOM     21  C   UNL     1      -3.229  -0.741  -2.125  0.00  0.00    -0.004 C 
ATOM     22  C   UNL     1      -3.050   0.772  -1.972  0.00  0.00    -0.019 C 
ATOM     23  C   UNL     1      -1.564   1.088  -1.789  0.00  0.00    -0.078 C 
ATOM     24  H   UNL     1      -1.606   0.693   0.210  0.00  0.00    -0.081 HD
ENDBRANCH  17  18
ENDBRANCH  15  17
ENDBRANCH   1  15
TORSDOF 6
