REMARK  Name = ZINC64340248
REMARK  8 active torsions:
REMARK  status: ('A' for Active; 'I' for Inactive)
REMARK    1  A    between atoms: C_1  and  C_2
REMARK    2  A    between atoms: C_2  and  C_4
REMARK    3  A    between atoms: C_2  and  N_20
REMARK    4  A    between atoms: N_6  and  N_7
REMARK    5  A    between atoms: C_8  and  C_10
REMARK    6  A    between atoms: C_10  and  C_11
REMARK    7  A    between atoms: N_20  and  S_21
REMARK    8  A    between atoms: S_21  and  C_24
REMARK                            x       y       z     vdW  Elec       q    Type
REMARK                         _______ _______ _______ _____ _____    ______ ____
ROOT
ATOM      1  C   UNL     1       0.731  -0.503   1.223  0.00  0.00    +0.247 C 
ATOM      2  O   UNL     1       0.159  -1.213   2.023  0.00  0.00    -0.273 OA
ATOM      3  N   UNL     1       2.019  -0.161   1.426  0.00  0.00    -0.233 N 
ATOM      4  H   UNL     1       2.476   0.406   0.786  0.00  0.00    +0.173 HD
ENDROOT
BRANCH   3   5
ATOM      5  N   UNL     1       2.696  -0.625   2.561  0.00  0.00    -0.234 N 
ATOM      6  C   UNL     1       3.984  -0.283   2.764  0.00  0.00    +0.233 C 
ATOM      7  O   UNL     1       4.556   0.426   1.964  0.00  0.00    -0.274 OA
ATOM      8  H   UNL     1       2.239  -1.193   3.201  0.00  0.00    +0.173 HD
BRANCH   6   9
ATOM      9  C   UNL     1       4.713  -0.783   3.985  0.00  0.00    +0.130 C 
BRANCH   9  10
ATOM     10  C   UNL     1       6.127  -0.261   3.974  0.00  0.00    -0.033 C 
ATOM     11  C   UNL     1       6.590   0.845   4.600  0.00  0.00    -0.001 A 
ATOM     12  C   UNL     1       5.942   1.855   5.445  0.00  0.00    +0.010 A 
ATOM     13  C   UNL     1       6.684   2.872   5.939  0.00  0.00    +0.001 A 
ATOM     14  C   UNL     1       8.054   2.985   5.664  0.00  0.00    +0.002 A 
ATOM     15  C   UNL     1       8.720   2.097   4.897  0.00  0.00    +0.026 A 
ATOM     16  C   UNL     1       8.038   0.987   4.325  0.00  0.00    +0.043 A 
ATOM     17  N   UNL     1       8.453   0.007   3.560  0.00  0.00    -0.380 N 
ATOM     18  C   UNL     1       7.316  -0.872   3.266  0.00  0.00    +0.145 C 
ATOM     19  H   UNL     1       9.362  -0.118   3.244  0.00  0.00    +0.160 HD
ENDBRANCH   9  10
ENDBRANCH   6   9
ENDBRANCH   3   5
BRANCH   1  21
ATOM     20  C   UNL     1      -0.019   1.526   0.010  0.00  0.00    +0.035 C 
ATOM     21  C   UNL     1       0.002  -0.004   0.002  0.00  0.00    +0.160 C 
BRANCH  21  22
ATOM     22  N   UNL     1      -1.372  -0.511   0.012  0.00  0.00    -0.178 NA
ATOM     23  H   UNL     1      -1.845  -0.615   0.853  0.00  0.00    +0.149 HD
BRANCH  22  24
ATOM     24  S   UNL     1      -2.119  -0.907  -1.411  0.00  0.00    +0.062 S 
ATOM     25  O   UNL     1      -3.414  -1.386  -1.071  0.00  0.00    -0.153 OA
ATOM     26  O   UNL     1      -1.920   0.189  -2.293  0.00  0.00    -0.153 OA
BRANCH  24  27
ATOM     27  C   UNL     1      -1.242  -2.272  -2.098  0.00  0.00    +0.142 A 
ATOM     28  C   UNL     1      -0.176  -2.051  -2.951  0.00  0.00    +0.069 A 
ATOM     29  C   UNL     1       0.513  -3.123  -3.490  0.00  0.00    +0.022 A 
ATOM     30  C   UNL     1       0.135  -4.415  -3.176  0.00  0.00    +0.003 A 
ATOM     31  C   UNL     1      -0.930  -4.637  -2.324  0.00  0.00    +0.022 A 
ATOM     32  C   UNL     1      -1.616  -3.566  -1.780  0.00  0.00    +0.069 A 
ATOM     33 CL   UNL     1      -2.949  -3.844  -0.704  0.00  0.00    -0.081 Cl
ATOM     34 CL   UNL     1       0.298  -0.428  -3.345  0.00  0.00    -0.081 Cl
ENDBRANCH  24  27
ENDBRANCH  22  24
ENDBRANCH  21  22
ENDBRANCH   1  21
TORSDOF 7
