REMARK  Name = ZINC49564993
REMARK  5 active torsions:
REMARK  status: ('A' for Active; 'I' for Inactive)
REMARK    1  A    between atoms: C_3  and  C_9
REMARK    2  A    between atoms: C_9  and  C_11
REMARK    3  A    between atoms: C_9  and  O_24
REMARK    4  A    between atoms: C_11  and  N_12
REMARK    5  A    between atoms: N_12  and  C_13
REMARK                            x       y       z     vdW  Elec       q    Type
REMARK                         _______ _______ _______ _____ _____    ______ ____
ROOT
ATOM      1  C   UNL     1       4.159   2.350  -1.462  0.00  0.00    -0.046 C 
ENDROOT
BRANCH   1   2
ATOM      2  N   UNL     1       5.478   2.998  -1.462  0.00  0.00    +0.384 N 
ATOM      3  H   UNL     1       5.407   3.905  -1.028  0.00  0.00    -0.085 HD
ATOM      4  H   UNL     1       6.133   2.428  -0.947  0.00  0.00    -0.085 HD
BRANCH   2   5
ATOM      5  C   UNL     1       5.947   3.153  -2.846  0.00  0.00    -0.053 C 
ATOM      6  C   UNL     1       6.263   1.770  -3.470  0.00  0.00    +0.001 C 
ATOM      7  C   UNL     1       7.787   1.799  -3.756  0.00  0.00    +0.083 C 
ATOM      8  N   UNL     1       8.296   2.803  -2.810  0.00  0.00    -0.301 NA
ATOM      9  C   UNL     1       7.286   3.897  -2.878  0.00  0.00    +0.043 C 
ATOM     10  C   UNL     1       7.514   4.810  -1.681  0.00  0.00    +0.017 C 
ATOM     11  C   UNL     1       8.915   5.424  -1.825  0.00  0.00    +0.003 C 
ATOM     12  C   UNL     1       9.972   4.327  -1.950  0.00  0.00    +0.015 C 
ATOM     13  C   UNL     1       9.618   3.349  -3.088  0.00  0.00    +0.084 C 
ENDBRANCH   2   5
ENDBRANCH   1   2
BRANCH   1  14
ATOM     14  C   UNL     1       3.671   2.188  -0.021  0.00  0.00    +0.130 C 
BRANCH  14  17
ATOM     15  C   UNL     1      -0.017   1.380   0.010  0.00  0.00    +0.039 A 
ATOM     16  C   UNL     1       1.171   2.088   0.002  0.00  0.00    +0.012 A 
ATOM     17  C   UNL     1       2.377   1.415  -0.013  0.00  0.00    +0.014 A 
ATOM     18  C   UNL     1       2.399   0.030  -0.021  0.00  0.00    +0.132 A 
ATOM     19  C   UNL     1       1.210  -0.679  -0.014  0.00  0.00    +0.077 A 
ATOM     20  C   UNL     1       0.002  -0.004   0.002  0.00  0.00    +0.126 A 
ATOM     21  F   UNL     1      -1.158  -0.696   0.010  0.00  0.00    -0.205 F 
ATOM     22  F   UNL     1       3.579  -0.627  -0.037  0.00  0.00    -0.205 F 
ENDBRANCH  14  17
BRANCH  14  23
ATOM     23  O   UNL     1       3.459   3.478   0.557  0.00  0.00    -0.389 OA
ATOM     24  H   UNL     1       2.803   4.014   0.092  0.00  0.00    +0.210 HD
ENDBRANCH  14  23
ENDBRANCH   1  14
TORSDOF 5
