REMARK  Name = ZINC48299343
REMARK  7 active torsions:
REMARK  status: ('A' for Active; 'I' for Inactive)
REMARK    1  A    between atoms: C_1  and  C_2
REMARK    2  A    between atoms: C_5  and  N_9
REMARK    3  A    between atoms: C_6  and  C_8
REMARK    4  A    between atoms: C_13  and  C_15
REMARK    5  A    between atoms: C_15  and  N_16
REMARK    6  A    between atoms: N_16  and  C_17
REMARK    7  A    between atoms: N_16  and  C_27
REMARK                            x       y       z     vdW  Elec       q    Type
REMARK                         _______ _______ _______ _____ _____    ______ ____
ROOT
ATOM      1  N   UNL     1      -3.602  -9.604   0.836  0.00  0.00    -0.269 N 
ATOM      2  C   UNL     1      -3.081  -9.768  -0.396  0.00  0.00    +0.310 C 
ATOM      3  O   UNL     1      -3.660 -10.456  -1.214  0.00  0.00    -0.252 OA
ATOM      4  N   UNL     1      -1.918  -9.169  -0.722  0.00  0.00    -0.241 N 
ATOM      5  C   UNL     1      -1.397  -9.334  -1.954  0.00  0.00    +0.204 C 
ATOM      6  O   UNL     1      -1.974 -10.020  -2.769  0.00  0.00    -0.277 OA
ATOM      7  H   UNL     1      -3.180  -8.996   1.464  0.00  0.00    +0.156 HD
ATOM      8  H   UNL     1      -1.456  -8.620  -0.069  0.00  0.00    +0.159 HD
ENDROOT
BRANCH   1  13
ATOM      9  C   UNL     1      -8.258 -12.469   2.351  0.00  0.00    +0.044 C 
ATOM     10  C   UNL     1      -7.021 -11.708   1.948  0.00  0.00    -0.050 A 
ATOM     11  C   UNL     1      -6.851 -11.313   0.634  0.00  0.00    +0.005 A 
ATOM     12  C   UNL     1      -5.719 -10.615   0.262  0.00  0.00    +0.024 A 
ATOM     13  C   UNL     1      -4.750 -10.310   1.210  0.00  0.00    +0.038 A 
ATOM     14  C   UNL     1      -4.924 -10.708   2.529  0.00  0.00    -0.029 A 
ATOM     15  C   UNL     1      -6.061 -11.402   2.895  0.00  0.00    +0.008 A 
ATOM     16  C   UNL     1      -3.876 -10.380   3.560  0.00  0.00    +0.045 C 
ENDBRANCH   1  13
BRANCH   5  17
ATOM     17  C   UNL     1      -0.097  -8.664  -2.317  0.00  0.00    +0.020 C 
BRANCH  17  18
ATOM     18  N   UNL     1       0.341  -9.130  -3.640  0.00  0.00    +0.392 N 
ATOM     19  H   UNL     1       1.230  -8.710  -3.867  0.00  0.00    -0.080 HD
BRANCH  18  20
ATOM     20  C   UNL     1       0.481 -10.592  -3.622  0.00  0.00    -0.036 C 
ATOM     21  C   UNL     1       0.630 -11.134  -5.059  0.00  0.00    -0.006 C 
ATOM     22  C   UNL     1       1.597 -12.322  -4.867  0.00  0.00    +0.034 C 
ATOM     23  C   UNL     1       2.401 -11.983  -3.630  0.00  0.00    -0.046 A 
ATOM     24  C   UNL     1       1.758 -10.989  -2.912  0.00  0.00    -0.058 A 
ATOM     25  C   UNL     1       2.313 -10.518  -1.734  0.00  0.00    +0.002 A 
ATOM     26  C   UNL     1       3.507 -11.038  -1.272  0.00  0.00    +0.000 A 
ATOM     27  C   UNL     1       4.149 -12.032  -1.987  0.00  0.00    +0.000 A 
ATOM     28  C   UNL     1       3.598 -12.502  -3.168  0.00  0.00    +0.004 A 
ENDBRANCH  18  20
BRANCH  18  29
ATOM     29  C   UNL     1      -0.655  -8.746  -4.649  0.00  0.00    -0.067 C 
ATOM     30  C   UNL     1      -0.144  -8.082  -5.929  0.00  0.00    -0.017 C 
ATOM     31  C   UNL     1      -0.886  -7.252  -4.880  0.00  0.00    -0.017 C 
ENDBRANCH  18  29
ENDBRANCH  17  18
ENDBRANCH   5  17
TORSDOF 5
