REMARK  Name = ZINC06188718
REMARK  7 active torsions:
REMARK  status: ('A' for Active; 'I' for Inactive)
REMARK    1  A    between atoms: C_1  and  C_2
REMARK    2  A    between atoms: C_4  and  C_23
REMARK    3  A    between atoms: C_5  and  N_7
REMARK    4  A    between atoms: C_8  and  C_10
REMARK    5  A    between atoms: C_19  and  C_21
REMARK    6  A    between atoms: C_23  and  O_25
REMARK    7  A    between atoms: O_25  and  C_26
REMARK                            x       y       z     vdW  Elec       q    Type
REMARK                         _______ _______ _______ _____ _____    ______ ____
ROOT
ATOM      1  N   UNL     1      -0.212  -3.117   0.119  0.00  0.00    -0.279 N 
ATOM      2  C   UNL     1      -0.414  -4.447   0.046  0.00  0.00    +0.222 C 
ATOM      3  O   UNL     1      -1.543  -4.890   0.046  0.00  0.00    -0.275 OA
ATOM      4  H   UNL     1       0.691  -2.762   0.119  0.00  0.00    +0.155 HD
ENDROOT
BRANCH   2   5
ATOM      5  C   UNL     1       0.763  -5.385  -0.036  0.00  0.00    +0.092 C 
ATOM      6  C   UNL     1       0.275  -6.861  -0.152  0.00  0.00    +0.002 C 
ATOM      7  C   UNL     1       1.570  -7.714   0.011  0.00  0.00    +0.004 C 
ATOM      8  C   UNL     1       2.370  -7.463  -1.288  0.00  0.00    +0.004 C 
ATOM      9  C   UNL     1       1.483  -6.482  -2.113  0.00  0.00    +0.004 C 
ATOM     10  C   UNL     1       0.049  -6.970  -1.701  0.00  0.00    +0.008 C 
ATOM     11  C   UNL     1       1.565  -5.131  -1.333  0.00  0.00    +0.117 C 
BRANCH  11  12
ATOM     12  C   UNL     1       2.998  -4.796  -1.008  0.00  0.00    +0.360 C 
ATOM     13  O   UNL     1       3.470  -5.128   0.053  0.00  0.00    -0.246 OA
ATOM     14  O   UNL     1       3.749  -4.128  -1.898  0.00  0.00    -0.246 OA
ENDBRANCH  11  12
ENDBRANCH   2   5
BRANCH   1  19
ATOM     15  C   UNL     1      -5.116  -0.598   0.378  0.00  0.00    +0.051 C 
ATOM     16  C   UNL     1      -3.666  -1.004   0.321  0.00  0.00    -0.011 A 
ATOM     17  C   UNL     1      -2.577  -0.216   0.347  0.00  0.00    +0.027 A 
ATOM     18  C   UNL     1      -1.290  -0.866   0.275  0.00  0.00    +0.088 A 
ATOM     19  C   UNL     1      -1.295  -2.254   0.194  0.00  0.00    +0.086 A 
ATOM     20  S   UNL     1      -2.982  -2.645   0.209  0.00  0.00    -0.078 S 
BRANCH  18  21
ATOM     21  C   UNL     1      -0.041  -0.102   0.291  0.00  0.00    +0.341 C 
ATOM     22  O   UNL     1       1.028  -0.681   0.234  0.00  0.00    -0.245 OA
BRANCH  21  23
ATOM     23  O   UNL     1      -0.075   1.244   0.370  0.00  0.00    -0.464 OA
ATOM     24  C   UNL     1       1.202   1.937   0.382  0.00  0.00    +0.280 C 
ENDBRANCH  21  23
ENDBRANCH  18  21
ENDBRANCH   1  19
TORSDOF 5
