REMARK  Name = ZINC31302649
REMARK  13 active torsions:
REMARK  status: ('A' for Active; 'I' for Inactive)
REMARK    1  A    between atoms: C_1  and  C_2
REMARK    2  A    between atoms: C_1  and  N_13
REMARK    3  A    between atoms: C_2  and  N_3
REMARK    4  A    between atoms: N_3  and  C_4
REMARK    5  A    between atoms: N_3  and  C_8
REMARK    6  A    between atoms: C_4  and  C_5
REMARK    7  A    between atoms: C_8  and  P_9
REMARK    8  A    between atoms: P_9  and  O_12
REMARK    9  A    between atoms: N_13  and  C_14
REMARK   10  A    between atoms: N_13  and  C_18
REMARK   11  A    between atoms: C_14  and  C_15
REMARK   12  A    between atoms: C_18  and  P_19
REMARK   13  A    between atoms: P_19  and  O_22
REMARK                            x       y       z     vdW  Elec       q    Type
REMARK                         _______ _______ _______ _____ _____    ______ ____
ROOT
ATOM      1  C   UNL     1      -0.875   2.129  -0.842  0.00  0.00    -0.062 C 
ENDROOT
BRANCH   1   2
ATOM      2  N   UNL     1      -0.202   1.581   0.344  0.00  0.00    +0.395 N 
ATOM      3  H   UNL     1      -0.387   2.266   1.184  0.00  0.00    -0.080 HD
BRANCH   2   4
ATOM      4  C   UNL     1       1.250   1.502   0.136  0.00  0.00    +0.049 C 
BRANCH   4   5
ATOM      5  C   UNL     1       1.545   0.549  -0.994  0.00  0.00    +0.340 C 
ATOM      6  O   UNL     1       0.637   0.042  -1.608  0.00  0.00    -0.249 OA
ATOM      7  O   UNL     1       2.816   0.264  -1.317  0.00  0.00    -0.249 OA
ENDBRANCH   4   5
ENDBRANCH   2   4
BRANCH   2   8
ATOM      8  C   UNL     1      -0.754   0.268   0.703  0.00  0.00    +0.054 C 
BRANCH   8   9
ATOM      9  P   UNL     1      -0.484  -0.040   2.479  0.00  0.00    +0.342 P 
ATOM     10  O   UNL     1       0.956   0.099   2.790  0.00  0.00    -0.258 OA
ATOM     11  O   UNL     1      -1.326   1.026   3.343  0.00  0.00    -0.143 OA
BRANCH   9  12
ATOM     12  O   UNL     1      -0.970  -1.531   2.845  0.00  0.00    -0.324 OA
ATOM     13  H   UNL     1      -0.884  -1.899   3.878  0.00  0.00    +0.220 HD
ENDBRANCH   9  12
ENDBRANCH   8   9
ENDBRANCH   2   8
ENDBRANCH   1   2
BRANCH   1  14
ATOM     14  C   UNL     1      -0.549   3.618  -0.970  0.00  0.00    +0.067 C 
BRANCH  14  15
ATOM     15  N   UNL     1      -1.141   4.144  -2.208  0.00  0.00    -0.283 NA
BRANCH  15  16
ATOM     16  C   UNL     1      -0.656   5.502  -2.487  0.00  0.00    +0.210 C 
BRANCH  16  17
ATOM     17  C   UNL     1      -0.900   5.834  -3.937  0.00  0.00    +0.370 C 
ATOM     18  O   UNL     1      -1.434   5.027  -4.660  0.00  0.00    -0.245 OA
ATOM     19  O   UNL     1      -0.525   7.027  -4.424  0.00  0.00    -0.245 OA
ENDBRANCH  16  17
ENDBRANCH  15  16
BRANCH  15  20
ATOM     20  C   UNL     1      -2.608   4.111  -2.145  0.00  0.00    +0.214 C 
BRANCH  20  21
ATOM     21  P   UNL     1      -3.228   2.721  -3.149  0.00  0.00    +0.371 P 
ATOM     22  O   UNL     1      -2.568   1.469  -2.718  0.00  0.00    -0.255 OA
ATOM     23  O   UNL     1      -4.820   2.584  -2.950  0.00  0.00    -0.139 OA
BRANCH  21  24
ATOM     24  O   UNL     1      -2.902   2.993  -4.702  0.00  0.00    -0.322 OA
ATOM     25  H   UNL     1      -3.203   2.259  -5.464  0.00  0.00    +0.220 HD
ENDBRANCH  21  24
ENDBRANCH  20  21
ENDBRANCH  15  20
ENDBRANCH  14  15
ENDBRANCH   1  14
TORSDOF 13
