REMARK  Name = ZINC67487508
REMARK  7 active torsions:
REMARK  status: ('A' for Active; 'I' for Inactive)
REMARK    1  A    between atoms: C_1  and  C_2
REMARK    2  A    between atoms: N_5  and  C_8
REMARK    3  A    between atoms: C_8  and  C_9
REMARK    4  A    between atoms: C_9  and  C_11
REMARK    5  A    between atoms: C_9  and  O_24
REMARK    6  A    between atoms: C_11  and  N_12
REMARK    7  A    between atoms: N_15  and  C_16
REMARK                            x       y       z     vdW  Elec       q    Type
REMARK                         _______ _______ _______ _____ _____    ______ ____
ROOT
ATOM      1  N   UNL     1       0.542  -6.331   4.071  0.00  0.00    -0.297 N 
ATOM      2  C   UNL     1       0.694  -7.642   4.348  0.00  0.00    +0.304 C 
ATOM      3  O   UNL     1       0.346  -8.478   3.537  0.00  0.00    -0.253 OA
ATOM      4  N   UNL     1       1.230  -8.024   5.523  0.00  0.00    -0.267 N 
ATOM      5  H   UNL     1       0.819  -5.664   4.718  0.00  0.00    +0.150 HD
ATOM      6  H   UNL     1       1.566  -7.358   6.143  0.00  0.00    +0.156 HD
ENDROOT
BRANCH   4   7
ATOM      7  C   UNL     1       1.302  -9.385   5.850  0.00  0.00    +0.070 A 
ATOM      8  C   UNL     1       1.528 -10.328   4.858  0.00  0.00    +0.027 A 
ATOM      9  C   UNL     1       1.599 -11.669   5.183  0.00  0.00    +0.017 A 
ATOM     10  C   UNL     1       1.444 -12.073   6.497  0.00  0.00    +0.021 A 
ATOM     11  C   UNL     1       1.218 -11.137   7.490  0.00  0.00    +0.055 A 
ATOM     12  C   UNL     1       1.152  -9.793   7.171  0.00  0.00    +0.146 A 
ATOM     13  F   UNL     1       0.937  -8.877   8.142  0.00  0.00    -0.204 F 
ATOM     14 BR   UNL     1       1.542 -13.910   6.936  0.00  0.00    -0.050 Br
ENDBRANCH   4   7
BRANCH   1  15
ATOM     15  C   UNL     1      -0.041  -5.915   2.793  0.00  0.00    +0.135 C 
BRANCH  15  16
ATOM     16  C   UNL     1      -0.100  -4.387   2.733  0.00  0.00    +0.115 C 
BRANCH  16  17
ATOM     17  O   UNL     1      -0.907  -3.899   3.806  0.00  0.00    -0.392 OA
ATOM     18  H   UNL     1      -1.819  -4.220   3.790  0.00  0.00    +0.210 HD
ENDBRANCH  16  17
BRANCH  16  19
ATOM     19  C   UNL     1      -0.709  -3.953   1.398  0.00  0.00    -0.046 C 
BRANCH  19  24
ATOM     20  C   UNL     1       0.065   1.515  -0.027  0.00  0.00    +0.007 C 
ATOM     21  C   UNL     1       0.075  -0.015  -0.030  0.00  0.00    -0.018 C 
ATOM     22  C   UNL     1      -1.365  -0.537  -0.012  0.00  0.00    -0.016 C 
ATOM     23  C   UNL     1      -1.347  -2.065   0.065  0.00  0.00    -0.078 C 
ATOM     24  N   UNL     1      -0.656  -2.489   1.289  0.00  0.00    +0.381 N 
ATOM     25  C   UNL     1       0.745  -2.053   1.246  0.00  0.00    -0.078 C 
ATOM     26  C   UNL     1       0.808  -0.525   1.215  0.00  0.00    -0.016 C 
ATOM     27  H   UNL     1      -1.110  -2.077   2.090  0.00  0.00    -0.082 HD
ENDBRANCH  19  24
ENDBRANCH  16  19
ENDBRANCH  15  16
ENDBRANCH   1  15
TORSDOF 6
