REMARK  Name = ZINC64131660
REMARK  14 active torsions:
REMARK  status: ('A' for Active; 'I' for Inactive)
REMARK    1  A    between atoms: C_1  and  C_2
REMARK    2  A    between atoms: C_2  and  C_3
REMARK    3  A    between atoms: C_2  and  C_4
REMARK    4  A    between atoms: C_4  and  C_5
REMARK    5  A    between atoms: C_10  and  N_30
REMARK    6  A    between atoms: C_12  and  C_16
REMARK    7  A    between atoms: N_14  and  C_15
REMARK    8  A    between atoms: N_18  and  C_19
REMARK    9  A    between atoms: C_19  and  C_20
REMARK   10  A    between atoms: C_20  and  C_21
REMARK   11  A    between atoms: N_30  and  S_31
REMARK   12  A    between atoms: S_31  and  N_34
REMARK   13  A    between atoms: N_34  and  C_35
REMARK   14  A    between atoms: N_34  and  C_36
REMARK                            x       y       z     vdW  Elec       q    Type
REMARK                         _______ _______ _______ _____ _____    ______ ____
ROOT
ATOM      1  C   UNL     1       0.943  -0.271   2.784  0.00  0.00    +0.158 C 
ATOM      2  N   UNL     1       0.432   1.093   2.960  0.00  0.00    -0.324 N 
ATOM      3  C   UNL     1       0.545   1.406   4.322  0.00  0.00    +0.052 A 
ATOM      4  C   UNL     1       0.206   2.563   5.011  0.00  0.00    +0.049 A 
ATOM      5  C   UNL     1       0.410   2.652   6.383  0.00  0.00    +0.052 A 
ATOM      6  C   UNL     1       0.954   1.586   7.076  0.00  0.00    +0.039 A 
ATOM      7  C   UNL     1       1.300   0.415   6.395  0.00  0.00    +0.061 A 
ATOM      8  C   UNL     1       1.093   0.326   5.009  0.00  0.00    +0.064 A 
ATOM      9  N   UNL     1       1.353  -0.721   4.120  0.00  0.00    -0.313 N 
ATOM     10  C   UNL     1       1.928  -2.025   4.457  0.00  0.00    +0.131 C 
ATOM     11  H   UNL     1       0.082   1.671   2.264  0.00  0.00    +0.148 HD
ENDROOT
BRANCH   7  12
ATOM     12  C   UNL     1       1.880  -0.724   7.130  0.00  0.00    +0.246 C 
ATOM     13  O   UNL     1       2.881  -1.272   6.710  0.00  0.00    -0.270 OA
ATOM     14  N   UNL     1       1.301  -1.157   8.267  0.00  0.00    -0.311 N 
ATOM     15  H   UNL     1       0.464  -0.768   8.564  0.00  0.00    +0.149 HD
BRANCH  14  16
ATOM     16  C   UNL     1       1.937  -2.215   9.055  0.00  0.00    +0.109 C 
BRANCH  16  17
ATOM     17  C   UNL     1       1.082  -2.518  10.287  0.00  0.00    +0.052 C 
BRANCH  17  18
ATOM     18  C   UNL     1       1.736  -3.607  11.098  0.00  0.00    -0.040 C 
ATOM     19  C   UNL     1       2.557  -3.447  12.161  0.00  0.00    -0.001 A 
ATOM     20  C   UNL     1       3.069  -2.258  12.853  0.00  0.00    +0.010 A 
ATOM     21  C   UNL     1       3.895  -2.420  13.911  0.00  0.00    +0.001 A 
ATOM     22  C   UNL     1       4.274  -3.691  14.363  0.00  0.00    +0.002 A 
ATOM     23  C   UNL     1       3.845  -4.830  13.779  0.00  0.00    +0.026 A 
ATOM     24  C   UNL     1       2.972  -4.778  12.658  0.00  0.00    +0.043 A 
ATOM     25  N   UNL     1       2.429  -5.724  11.931  0.00  0.00    -0.380 N 
ATOM     26  C   UNL     1       1.601  -5.099  10.893  0.00  0.00    +0.144 C 
ATOM     27  H   UNL     1       2.550  -6.678  12.059  0.00  0.00    +0.160 HD
ENDBRANCH  17  18
ENDBRANCH  16  17
ENDBRANCH  14  16
ENDBRANCH   7  12
BRANCH   5  28
ATOM     28  N   UNL     1       0.065   3.825   7.065  0.00  0.00    -0.206 N 
ATOM     29  H   UNL     1       0.623   4.614   6.986  0.00  0.00    +0.175 HD
BRANCH  28  30
ATOM     30  S   UNL     1      -1.297   3.864   8.006  0.00  0.00    +0.111 S 
ATOM     31  O   UNL     1      -1.241   2.722   8.850  0.00  0.00    -0.138 OA
ATOM     32  O   UNL     1      -1.398   5.186   8.519  0.00  0.00    -0.138 OA
BRANCH  30  33
ATOM     33  N   UNL     1      -2.594   3.646   7.000  0.00  0.00    -0.170 NA
ATOM     34  C   UNL     1      -3.160   2.308   6.814  0.00  0.00    +0.132 C 
ATOM     35  C   UNL     1      -3.176   4.792   6.296  0.00  0.00    +0.132 C 
ENDBRANCH  30  33
ENDBRANCH  28  30
ENDBRANCH   5  28
BRANCH   1  36
ATOM     36  C   UNL     1       2.144  -0.267   1.836  0.00  0.00    +0.045 C 
BRANCH  36  38
ATOM     37  C   UNL     1       2.907   0.289  -0.477  0.00  0.00    +0.007 C 
ATOM     38  C   UNL     1       1.687   0.144   0.435  0.00  0.00    -0.014 C 
ATOM     39  C   UNL     1       0.751  -0.926  -0.130  0.00  0.00    +0.007 C 
ENDBRANCH  36  38
ENDBRANCH   1  36
TORSDOF 9
