REMARK  Name = ZINC48274447
REMARK  3 active torsions:
REMARK  status: ('A' for Active; 'I' for Inactive)
REMARK    1  A    between atoms: C_6  and  S_11
REMARK    2  A    between atoms: S_11  and  N_14
REMARK    3  A    between atoms: C_17  and  C_20
REMARK                            x       y       z     vdW  Elec       q    Type
REMARK                         _______ _______ _______ _____ _____    ______ ____
ROOT
ATOM      1  N   UNL     1       5.880  -2.572   1.633  0.00  0.00    -0.177 NA
ATOM      2  C   UNL     1       6.358  -1.790   2.781  0.00  0.00    +0.110 C 
ATOM      3  C   UNL     1       7.603  -2.471   3.358  0.00  0.00    +0.030 C 
ATOM      4  C   UNL     1       7.276  -3.930   3.685  0.00  0.00    +0.078 C 
ATOM      5  C   UNL     1       6.874  -4.664   2.403  0.00  0.00    +0.030 C 
ATOM      6  C   UNL     1       5.616  -4.006   1.817  0.00  0.00    +0.110 C 
ENDROOT
BRANCH   4   7
ATOM      7  C   UNL     1       8.489  -4.595   4.284  0.00  0.00    +0.219 C 
ATOM      8  O   UNL     1       9.600  -4.223   3.973  0.00  0.00    -0.275 OA
ATOM      9  N   UNL     1       8.338  -5.602   5.167  0.00  0.00    -0.294 N 
ATOM     10  C   UNL     1       7.009  -6.161   5.474  0.00  0.00    +0.136 C 
ATOM     11  C   UNL     1       7.071  -7.686   5.347  0.00  0.00    +0.179 C 
ATOM     12  O   UNL     1       8.174  -8.192   6.107  0.00  0.00    -0.373 OA
ATOM     13  C   UNL     1       9.440  -7.708   5.664  0.00  0.00    +0.139 C 
ATOM     14  C   UNL     1       9.491  -6.192   5.858  0.00  0.00    +0.105 C 
ATOM     15  C   UNL     1      10.802  -5.665   5.277  0.00  0.00    +0.025 C 
ATOM     16  C   UNL     1      11.971  -6.308   6.030  0.00  0.00    +0.002 C 
ATOM     17  C   UNL     1      11.911  -7.829   5.886  0.00  0.00    +0.003 C 
ATOM     18  C   UNL     1      10.585  -8.337   6.455  0.00  0.00    +0.033 C 
ENDBRANCH   4   7
BRANCH   1  19
ATOM     19  S   UNL     1       5.637  -1.851   0.163  0.00  0.00    +0.061 S 
ATOM     20  O   UNL     1       5.729  -2.878  -0.814  0.00  0.00    -0.153 OA
ATOM     21  O   UNL     1       6.466  -0.697   0.135  0.00  0.00    -0.153 OA
BRANCH  19  27
ATOM     22  C   UNL     1      -0.273   1.309   0.488  0.00  0.00    +0.001 A 
ATOM     23  C   UNL     1       0.735   2.147   0.962  0.00  0.00    +0.001 A 
ATOM     24  C   UNL     1       2.031   1.734   0.998  0.00  0.00    +0.008 A 
ATOM     25  C   UNL     1       2.362   0.443   0.552  0.00  0.00    -0.016 A 
ATOM     26  C   UNL     1       3.689  -0.019   0.574  0.00  0.00    +0.037 A 
ATOM     27  C   UNL     1       3.972  -1.275   0.134  0.00  0.00    +0.106 A 
ATOM     28  C   UNL     1       2.964  -2.114  -0.340  0.00  0.00    +0.029 A 
ATOM     29  C   UNL     1       1.668  -1.700  -0.376  0.00  0.00    +0.010 A 
ATOM     30  C   UNL     1       1.337  -0.409   0.070  0.00  0.00    -0.018 A 
ATOM     31  C   UNL     1       0.010   0.053   0.048  0.00  0.00    +0.008 A 
ENDBRANCH  19  27
ENDBRANCH   1  19
TORSDOF 3
