REMARK  Name = ZINC09096460
REMARK  4 active torsions:
REMARK  status: ('A' for Active; 'I' for Inactive)
REMARK    1  A    between atoms: C_6  and  N_7
REMARK    2  A    between atoms: C_10  and  C_15
REMARK    3  A    between atoms: C_15  and  N_50
REMARK    4  A    between atoms: N_18  and  C_21
REMARK                            x       y       z     vdW  Elec       q    Type
REMARK                         _______ _______ _______ _____ _____    ______ ____
ROOT
ATOM      1  N   UNL     1       0.024   4.601   5.633  0.00  0.00    -0.284 N 
ATOM      2  C   UNL     1      -0.467   3.362   5.272  0.00  0.00    +0.224 A 
ATOM      3  N   UNL     1       0.019   2.738   4.201  0.00  0.00    -0.201 NA
ATOM      4  C   UNL     1      -0.454   1.555   3.851  0.00  0.00    +0.120 A 
ATOM      5  N   UNL     1      -1.404   0.981   4.568  0.00  0.00    -0.202 NA
ATOM      6  C   UNL     1      -1.892   1.596   5.643  0.00  0.00    +0.217 A 
ATOM      7  N   UNL     1      -1.423   2.788   5.995  0.00  0.00    -0.181 NA
ATOM      8  N   UNL     1      -2.884   0.996   6.391  0.00  0.00    -0.327 N 
ATOM      9  H   UNL     1       0.775   4.984   5.153  0.00  0.00    +0.155 HD
ATOM     10  H   UNL     1      -3.227   0.126   6.134  0.00  0.00    +0.145 HD
ATOM     11  H   UNL     1      -3.239   1.444   7.175  0.00  0.00    +0.145 HD
ENDROOT
BRANCH   1  17
ATOM     12  C   UNL     1      -1.926   5.194   6.930  0.00  0.00    +0.026 A 
ATOM     13  C   UNL     1      -2.500   5.885   7.979  0.00  0.00    +0.040 A 
ATOM     14  C   UNL     1      -1.720   6.695   8.786  0.00  0.00    +0.124 A 
ATOM     15  C   UNL     1      -0.361   6.810   8.548  0.00  0.00    +0.040 A 
ATOM     16  C   UNL     1       0.219   6.117   7.503  0.00  0.00    +0.026 A 
ATOM     17  C   UNL     1      -0.562   5.304   6.692  0.00  0.00    +0.034 A 
ATOM     18  F   UNL     1      -2.285   7.373   9.809  0.00  0.00    -0.205 F 
ENDBRANCH   1  17
BRANCH   4  19
ATOM     19  C   UNL     1       0.095   0.856   2.634  0.00  0.00    -0.001 C 
BRANCH  19  25
ATOM     20  C   UNL     1      -0.045   0.770   0.218  0.00  0.00    -0.059 C 
ATOM     21  C   UNL     1      -0.930   1.120  -0.981  0.00  0.00    +0.086 C 
ATOM     22  N   UNL     1      -1.144   2.573  -1.021  0.00  0.00    -0.333 N 
ATOM     23  C   UNL     1      -1.788   3.042   0.213  0.00  0.00    +0.086 C 
ATOM     24  C   UNL     1      -0.903   2.693   1.412  0.00  0.00    -0.059 C 
ATOM     25  N   UNL     1      -0.714   1.228   1.454  0.00  0.00    +0.386 N 
ATOM     26  H   UNL     1      -1.633   0.774   1.523  0.00  0.00    -0.081 HD
BRANCH  22  27
ATOM     27  C   UNL     1      -1.890   2.939  -2.146  0.00  0.00    +0.030 A 
ATOM     28  C   UNL     1      -2.314   1.968  -3.044  0.00  0.00    +0.026 A 
ATOM     29  C   UNL     1      -3.055   2.331  -4.152  0.00  0.00    +0.040 A 
ATOM     30  C   UNL     1      -3.366   3.662  -4.373  0.00  0.00    +0.124 A 
ATOM     31  C   UNL     1      -2.939   4.632  -3.482  0.00  0.00    +0.040 A 
ATOM     32  C   UNL     1      -2.202   4.273  -2.370  0.00  0.00    +0.026 A 
ATOM     33  F   UNL     1      -4.086   4.015  -5.460  0.00  0.00    -0.205 F 
ENDBRANCH  22  27
ENDBRANCH  19  25
ENDBRANCH   4  19
TORSDOF 4
