REMARK  Name = ZINC23125518
REMARK  11 active torsions:
REMARK  status: ('A' for Active; 'I' for Inactive)
REMARK    1  A    between atoms: C_1  and  C_2
REMARK    2  A    between atoms: C_2  and  C_3
REMARK    3  A    between atoms: C_7  and  C_35
REMARK    4  A    between atoms: C_8  and  N_9
REMARK    5  A    between atoms: C_10  and  C_12
REMARK    6  A    between atoms: C_12  and  N_13
REMARK    7  A    between atoms: C_14  and  N_34
REMARK    8  A    between atoms: C_15  and  C_22
REMARK    9  A    between atoms: N_18  and  C_19
REMARK   10  A    between atoms: C_19  and  C_20
REMARK   11  A    between atoms: C_24  and  C_27
REMARK                            x       y       z     vdW  Elec       q    Type
REMARK                         _______ _______ _______ _____ _____    ______ ____
ROOT
ATOM      1  N   UNL     1      -0.307   4.943   0.208  0.00  0.00    -0.262 N 
ATOM      2  C   UNL     1      -1.298   5.792   0.550  0.00  0.00    +0.127 A 
ATOM      3  C   UNL     1      -2.487   5.069   0.529  0.00  0.00    +0.117 A 
ATOM      4  C   UNL     1      -2.156   3.739   0.166  0.00  0.00    +0.127 A 
ATOM      5  N   UNL     1      -0.862   3.680  -0.024  0.00  0.00    -0.282 N 
ATOM      6  N   UNL     1      -3.054   2.678   0.030  0.00  0.00    -0.325 N 
ATOM      7  H   UNL     1      -4.126   2.838   0.214  0.00  0.00    +0.148 HD
ATOM      8  H   UNL     1      -0.215   2.840  -0.316  0.00  0.00    +0.188 HD
ENDROOT
BRANCH   3   9
ATOM      9  C   UNL     1      -3.830   5.586   0.828  0.00  0.00    +0.265 A 
ATOM     10  N   UNL     1      -4.962   4.900   0.807  0.00  0.00    -0.187 NA
ATOM     11  C   UNL     1      -5.923   5.783   1.149  0.00  0.00    +0.202 A 
ATOM     12  N   UNL     1      -5.341   6.938   1.349  0.00  0.00    -0.056 NA
ATOM     13  O   UNL     1      -4.146   6.846   1.171  0.00  0.00    -0.332 OA
BRANCH  11  14
ATOM     14  C   UNL     1      -7.375   5.498   1.270  0.00  0.00    +0.023 A 
ATOM     15  C   UNL     1      -7.858   4.215   1.020  0.00  0.00    +0.013 A 
ATOM     16  C   UNL     1      -9.208   3.954   1.137  0.00  0.00    +0.021 A 
ATOM     17  C   UNL     1     -10.083   4.966   1.494  0.00  0.00    +0.041 A 
ATOM     18  C   UNL     1      -9.608   6.244   1.738  0.00  0.00    +0.021 A 
ATOM     19  C   UNL     1      -8.259   6.513   1.628  0.00  0.00    +0.013 A 
ATOM     20 CL   UNL     1     -11.781   4.633   1.635  0.00  0.00    -0.084 Cl
ENDBRANCH  11  14
ENDBRANCH   3   9
BRANCH   2  21
ATOM     21  N   UNL     1      -1.159   7.133   0.858  0.00  0.00    -0.343 N 
ATOM     22  H   UNL     1      -2.044   7.731   1.123  0.00  0.00    +0.144 HD
ATOM     23  H   UNL     1      -0.165   7.602   0.837  0.00  0.00    +0.144 HD
ENDBRANCH   2  21
BRANCH   1  24
ATOM     24  C   UNL     1       1.113   5.286   0.099  0.00  0.00    +0.239 C 
BRANCH  24  26
ATOM     25  N   UNL     1       2.667   6.105  -1.642  0.00  0.00    -0.284 N 
ATOM     26  C   UNL     1       1.414   5.737  -1.307  0.00  0.00    +0.239 C 
ATOM     27  O   UNL     1       0.530   5.769  -2.136  0.00  0.00    -0.273 OA
ATOM     28  H   UNL     1       3.456   6.133  -0.876  0.00  0.00    +0.155 HD
BRANCH  25  34
ATOM     29  C   UNL     1       3.597   7.655  -3.244  0.00  0.00    -0.026 A 
ATOM     30  C   UNL     1       3.888   7.994  -4.551  0.00  0.00    +0.005 A 
ATOM     31  C   UNL     1       3.549   7.136  -5.581  0.00  0.00    +0.001 A 
ATOM     32  C   UNL     1       2.917   5.937  -5.307  0.00  0.00    +0.005 A 
ATOM     33  C   UNL     1       2.629   5.590  -4.002  0.00  0.00    -0.029 A 
ATOM     34  C   UNL     1       2.963   6.452  -2.965  0.00  0.00    +0.040 A 
ATOM     35  C   UNL     1       1.947   4.279  -3.703  0.00  0.00    +0.045 C 
BRANCH  29  37
ATOM     36  C   UNL     1       5.321   8.181  -1.541  0.00  0.00    +0.009 C 
ATOM     37  C   UNL     1       3.966   8.591  -2.122  0.00  0.00    +0.033 C 
ENDBRANCH  29  37
ENDBRANCH  25  34
ENDBRANCH  24  26
ENDBRANCH   1  24
BRANCH   6  38
ATOM     38  C   UNL     1      -2.567   1.352  -0.358  0.00  0.00    +0.130 C 
BRANCH  38  39
ATOM     39  C   UNL     1      -3.728   0.394  -0.434  0.00  0.00    -0.016 C 
ATOM     40  C   UNL     1      -3.947  -0.284  -1.534  0.00  0.00    +0.005 C 
ENDBRANCH  38  39
ENDBRANCH   6  38
TORSDOF 9
