REMARK  Name = ZINC31936200
REMARK  9 active torsions:
REMARK  status: ('A' for Active; 'I' for Inactive)
REMARK    1  A    between atoms: C_1  and  C_2
REMARK    2  A    between atoms: C_2  and  C_3
REMARK    3  A    between atoms: C_2  and  C_4
REMARK    4  A    between atoms: C_4  and  C_6
REMARK    5  A    between atoms: C_4  and  N_12
REMARK    6  A    between atoms: N_8  and  C_9
REMARK    7  A    between atoms: C_9  and  C_10
REMARK    8  A    between atoms: C_10  and  N_11
REMARK    9  A    between atoms: C_14  and  N_19
REMARK                            x       y       z     vdW  Elec       q    Type
REMARK                         _______ _______ _______ _____ _____    ______ ____
ROOT
ATOM      1  C   UNL     1      -2.579   0.533  -0.269  0.00  0.00    +0.178 C 
ENDROOT
BRANCH   1   2
ATOM      2  N   UNL     1      -3.547   1.628  -0.375  0.00  0.00    -0.301 N 
ATOM      3  C   UNL     1      -4.252   1.794  -1.526  0.00  0.00    +0.113 A 
ATOM      4  C   UNL     1      -5.158   2.800  -1.644  0.00  0.00    +0.046 A 
ATOM      5  C   UNL     1      -5.363   3.685  -0.571  0.00  0.00    +0.030 A 
ATOM      6  C   UNL     1      -4.649   3.516   0.578  0.00  0.00    +0.072 A 
ATOM      7  C   UNL     1      -3.724   2.462   0.667  0.00  0.00    +0.252 A 
ATOM      8  O   UNL     1      -3.079   2.303   1.692  0.00  0.00    -0.268 OA
BRANCH   4   9
ATOM      9  N   UNL     1      -5.883   2.957  -2.834  0.00  0.00    -0.329 N 
ATOM     10  C   UNL     1      -5.624   4.282  -3.442  0.00  0.00    +0.105 C 
ATOM     11  C   UNL     1      -6.575   4.606  -4.562  0.00  0.00    +0.019 C 
ATOM     12  C   UNL     1      -7.756   5.413  -3.983  0.00  0.00    +0.002 C 
ATOM     13  C   UNL     1      -8.724   4.560  -3.302  0.00  0.00    +0.002 C 
ATOM     14  C   UNL     1      -8.101   3.813  -2.104  0.00  0.00    +0.019 C 
ATOM     15  C   UNL     1      -7.315   2.642  -2.629  0.00  0.00    +0.105 C 
ENDBRANCH   4   9
ENDBRANCH   1   2
BRANCH   1  16
ATOM     16  C   UNL     1      -1.207   1.099  -0.011  0.00  0.00    +0.236 C 
ATOM     17  O   UNL     1      -1.087   2.195   0.493  0.00  0.00    -0.274 OA
ATOM     18  N   UNL     1      -0.111   0.386  -0.341  0.00  0.00    -0.315 N 
ATOM     19  H   UNL     1      -0.217  -0.642  -0.717  0.00  0.00    +0.149 HD
BRANCH  18  20
ATOM     20  C   UNL     1       1.220   0.981  -0.198  0.00  0.00    +0.085 C 
BRANCH  20  21
ATOM     21  C   UNL     1       2.280  -0.028  -0.644  0.00  0.00    -0.067 C 
BRANCH  21  22
ATOM     22  N   UNL     1       3.615   0.568  -0.500  0.00  0.00    +0.379 N 
ATOM     23  H   UNL     1       4.377  -0.158  -0.821  0.00  0.00    -0.090 HD
ATOM     24  H   UNL     1       3.785   0.838   0.552  0.00  0.00    -0.090 HD
ATOM     25  H   UNL     1       3.682   1.470  -1.125  0.00  0.00    -0.090 HD
ENDBRANCH  21  22
ENDBRANCH  20  21
ENDBRANCH  18  20
ENDBRANCH   1  16
BRANCH   1  27
ATOM     26  C   UNL     1      -4.332  -1.031   0.583  0.00  0.00    +0.010 C 
ATOM     27  C   UNL     1      -2.977  -0.388   0.886  0.00  0.00    +0.015 C 
ATOM     28  C   UNL     1      -1.919  -1.482   1.052  0.00  0.00    +0.010 C 
ENDBRANCH   1  27
TORSDOF 7
