REMARK  Name = ZINC67400690
REMARK  7 active torsions:
REMARK  status: ('A' for Active; 'I' for Inactive)
REMARK    1  A    between atoms: C_6  and  C_7
REMARK    2  A    between atoms: C_7  and  C_9
REMARK    3  A    between atoms: C_7  and  O_27
REMARK    4  A    between atoms: N_12  and  C_15
REMARK    5  A    between atoms: C_15  and  C_16
REMARK    6  A    between atoms: C_16  and  C_18
REMARK    7  A    between atoms: C_16  and  O_26
REMARK                            x       y       z     vdW  Elec       q    Type
REMARK                         _______ _______ _______ _____ _____    ______ ____
ROOT
ATOM      1  C   UNL     1      -1.297  -1.198  -1.635  0.00  0.00    +0.019 C 
ATOM      2  C   UNL     1      -1.549   0.013  -2.538  0.00  0.00    -0.012 C 
ATOM      3  C   UNL     1      -2.071  -0.468  -3.893  0.00  0.00    -0.078 C 
ATOM      4  N   UNL     1      -3.325  -1.208  -3.703  0.00  0.00    +0.382 N 
ATOM      5  C   UNL     1      -3.078  -2.409  -2.898  0.00  0.00    -0.078 C 
ATOM      6  C   UNL     1      -2.594  -2.003  -1.504  0.00  0.00    -0.012 C 
ATOM      7  H   UNL     1      -3.994  -0.618  -3.230  0.00  0.00    -0.082 HD
ENDROOT
BRANCH   1   8
ATOM      8  C   UNL     1      -0.850  -0.721  -0.251  0.00  0.00    +0.147 C 
BRANCH   8  14
ATOM      9  C   UNL     1       0.385   1.453  -0.373  0.00  0.00    +0.007 A 
ATOM     10  C   UNL     1       1.554   2.180  -0.492  0.00  0.00    +0.020 A 
ATOM     11  C   UNL     1       2.766   1.524  -0.619  0.00  0.00    +0.041 A 
ATOM     12  C   UNL     1       2.806   0.141  -0.627  0.00  0.00    +0.020 A 
ATOM     13  C   UNL     1       1.636  -0.585  -0.508  0.00  0.00    +0.007 A 
ATOM     14  C   UNL     1       0.425   0.071  -0.381  0.00  0.00    -0.019 A 
ATOM     15 CL   UNL     1       4.235   2.436  -0.769  0.00  0.00    -0.084 Cl
ENDBRANCH   8  14
BRANCH   8  16
ATOM     16  O   UNL     1      -0.625  -1.852   0.593  0.00  0.00    -0.387 OA
ATOM     17  H   UNL     1       0.055  -2.457   0.266  0.00  0.00    +0.210 HD
ENDBRANCH   8  16
ENDBRANCH   1   8
BRANCH   4  18
ATOM     18  C   UNL     1      -3.863  -1.600  -5.013  0.00  0.00    -0.042 C 
BRANCH  18  19
ATOM     19  C   UNL     1      -4.271  -0.348  -5.793  0.00  0.00    +0.128 C 
BRANCH  19  20
ATOM     20  C   UNL     1      -4.817  -0.750  -7.138  0.00  0.00    -0.018 A 
ATOM     21  C   UNL     1      -6.149  -1.096  -7.267  0.00  0.00    +0.009 A 
ATOM     22  C   UNL     1      -6.653  -1.465  -8.500  0.00  0.00    +0.041 A 
ATOM     23  C   UNL     1      -5.823  -1.488  -9.608  0.00  0.00    +0.158 A 
ATOM     24  C   UNL     1      -4.487  -1.141  -9.479  0.00  0.00    +0.159 A 
ATOM     25  C   UNL     1      -3.987  -0.767  -8.243  0.00  0.00    +0.047 A 
ATOM     26  F   UNL     1      -3.675  -1.163 -10.558  0.00  0.00    -0.202 F 
ATOM     27  F   UNL     1      -6.314  -1.849 -10.813  0.00  0.00    -0.202 F 
ENDBRANCH  19  20
BRANCH  19  28
ATOM     28  O   UNL     1      -5.274   0.362  -5.064  0.00  0.00    -0.389 OA
ATOM     29  H   UNL     1      -6.079  -0.149  -4.904  0.00  0.00    +0.210 HD
ENDBRANCH  19  28
ENDBRANCH  18  19
ENDBRANCH   4  18
TORSDOF 7
