REMARK  Name = ZINC38115004
REMARK  6 active torsions:
REMARK  status: ('A' for Active; 'I' for Inactive)
REMARK    1  A    between atoms: C_3  and  CA_9
REMARK    2  A    between atoms: CA_9  and  C_11
REMARK    3  A    between atoms: CA_9  and  N_13
REMARK    4  A    between atoms: C_11  and  O_12
REMARK    5  A    between atoms: N_13  and  C_14
REMARK    6  A    between atoms: C_14  and  C_15
REMARK                            x       y       z     vdW  Elec       q    Type
REMARK                         _______ _______ _______ _____ _____    ______ ____
ROOT
ATOM      1  CA  UNL     1       3.671   2.187  -0.022  0.00  0.00    -0.012 C 
ENDROOT
BRANCH   1   4
ATOM      2  C   UNL     1      -0.017   1.379   0.010  0.00  0.00    +0.015 A 
ATOM      3  C   UNL     1       1.171   2.087   0.002  0.00  0.00    +0.006 A 
ATOM      4  C   UNL     1       2.377   1.414  -0.013  0.00  0.00    -0.024 A 
ATOM      5  C   UNL     1       2.398   0.030  -0.021  0.00  0.00    +0.126 A 
ATOM      6  C   UNL     1       1.209  -0.679  -0.013  0.00  0.00    +0.053 A 
ATOM      7  C   UNL     1       0.002  -0.004   0.002  0.00  0.00    +0.021 A 
ATOM      8 BR   UNL     1      -1.623  -0.972   0.012  0.00  0.00    -0.050 Br
ATOM      9  F   UNL     1       3.577  -0.629  -0.036  0.00  0.00    -0.205 F 
ENDBRANCH   1   4
BRANCH   1  10
ATOM     10  N   UNL     1       3.419   3.558  -0.486  0.00  0.00    +0.387 N 
ATOM     11  H1  UNL     1       2.962   3.530  -1.385  0.00  0.00    -0.085 HD
ATOM     12  H2  UNL     1       2.828   4.035   0.178  0.00  0.00    -0.085 HD
BRANCH  10  13
ATOM     13  C   UNL     1       4.696   4.275  -0.609  0.00  0.00    -0.050 C 
BRANCH  13  14
ATOM     14  C   UNL     1       4.433   5.703  -1.093  0.00  0.00    +0.101 C 
ATOM     15  C   UNL     1       5.774   6.426  -1.340  0.00  0.00    +0.032 C 
ATOM     16  C   UNL     1       5.479   7.857  -0.814  0.00  0.00    +0.030 C 
ATOM     17  C   UNL     1       4.520   7.546   0.363  0.00  0.00    +0.160 C 
ATOM     18  O   UNL     1       3.724   6.435  -0.086  0.00  0.00    -0.378 OA
ENDBRANCH  13  14
ENDBRANCH  10  13
ENDBRANCH   1  10
BRANCH   1  19
ATOM     19  C   UNL     1       4.251   2.227   1.393  0.00  0.00    +0.145 C 
BRANCH  19  20
ATOM     20  O   UNL     1       3.276   2.757   2.293  0.00  0.00    -0.396 OA
ATOM     21  H   UNL     1       3.576   2.812   3.211  0.00  0.00    +0.209 HD
ENDBRANCH  19  20
ENDBRANCH   1  19
TORSDOF 6
