REMARK  Name = ZINC08964211
REMARK  9 active torsions:
REMARK  status: ('A' for Active; 'I' for Inactive)
REMARK    1  A    between atoms: C_1  and  C_2
REMARK    2  A    between atoms: N_4  and  C_5
REMARK    3  A    between atoms: C_8  and  N_11
REMARK    4  A    between atoms: C_12  and  C_14
REMARK    5  A    between atoms: N_16  and  C_17
REMARK    6  A    between atoms: C_17  and  C_18
REMARK    7  A    between atoms: C_18  and  C_20
REMARK    8  A    between atoms: C_18  and  N_64
REMARK    9  A    between atoms: N_28  and  C_29
REMARK                            x       y       z     vdW  Elec       q    Type
REMARK                         _______ _______ _______ _____ _____    ______ ____
ROOT
ATOM      1  C   UNL     1      -3.604   9.117  -3.036  0.00  0.00    +0.299 C 
ATOM      2  O   UNL     1      -2.550   9.708  -2.929  0.00  0.00    -0.265 OA
ATOM      3  N   UNL     1      -3.792   7.951  -2.385  0.00  0.00    -0.309 N 
ATOM      4  H   UNL     1      -4.635   7.479  -2.471  0.00  0.00    +0.149 HD
ENDROOT
BRANCH   1   6
ATOM      5  N   UNL     1      -4.505  10.846  -4.538  0.00  0.00    -0.278 N 
ATOM      6  C   UNL     1      -4.693   9.681  -3.887  0.00  0.00    +0.303 C 
ATOM      7  O   UNL     1      -5.748   9.089  -3.994  0.00  0.00    -0.265 OA
ATOM      8  H   UNL     1      -3.636  11.276  -4.521  0.00  0.00    +0.155 HD
BRANCH   5  12
ATOM      9  C   UNL     1      -7.659  12.602  -6.621  0.00  0.00    +0.033 A 
ATOM     10  C   UNL     1      -7.910  11.881  -5.461  0.00  0.00    +0.025 A 
ATOM     11  C   UNL     1      -6.865  11.299  -4.771  0.00  0.00    +0.025 A 
ATOM     12  C   UNL     1      -5.564  11.435  -5.237  0.00  0.00    +0.034 A 
ATOM     13  C   UNL     1      -5.313  12.162  -6.394  0.00  0.00    +0.025 A 
ATOM     14  C   UNL     1      -6.358  12.738  -7.087  0.00  0.00    +0.025 A 
BRANCH   9  18
ATOM     15  C   UNL     1      -9.742  14.040  -9.408  0.00  0.00    +0.109 C 
ATOM     16  C   UNL     1      -8.667  13.290  -8.665  0.00  0.00    +0.214 C 
ATOM     17  O   UNL     1      -7.754  12.774  -9.276  0.00  0.00    -0.276 OA
ATOM     18  N   UNL     1      -8.719  13.191  -7.322  0.00  0.00    -0.286 N 
ATOM     19  H   UNL     1      -9.491  13.528  -6.840  0.00  0.00    +0.155 HD
ENDBRANCH   9  18
ENDBRANCH   5  12
ENDBRANCH   1   6
BRANCH   3  20
ATOM     20  C   UNL     1      -2.723   7.398  -1.550  0.00  0.00    +0.094 C 
BRANCH  20  21
ATOM     21  C   UNL     1      -3.248   6.175  -0.795  0.00  0.00    -0.020 C 
BRANCH  21  22
ATOM     22  C   UNL     1      -2.101   5.478  -0.109  0.00  0.00    -0.059 A 
ATOM     23  C   UNL     1      -1.479   6.071   0.975  0.00  0.00    +0.004 A 
ATOM     24  C   UNL     1      -0.431   5.436   1.608  0.00  0.00    +0.023 A 
ATOM     25  C   UNL     1       0.008   4.192   1.160  0.00  0.00    +0.033 A 
ATOM     26  C   UNL     1      -0.619   3.607   0.066  0.00  0.00    -0.025 A 
ATOM     27  C   UNL     1      -1.668   4.245  -0.562  0.00  0.00    +0.007 A 
ATOM     28  C   UNL     1       0.059   2.279  -0.207  0.00  0.00    +0.056 C 
ATOM     29  C   UNL     1       1.378   2.397   0.591  0.00  0.00    +0.109 C 
ATOM     30  N   UNL     1       1.034   3.370   1.650  0.00  0.00    -0.332 N 
ATOM     31  C   UNL     1       2.209   4.162   2.039  0.00  0.00    +0.129 C 
ENDBRANCH  21  22
BRANCH  21  36
ATOM     32  C   UNL     1      -5.441   7.170  -0.441  0.00  0.00    -0.078 C 
ATOM     33  C   UNL     1      -6.520   7.064   0.666  0.00  0.00    -0.020 C 
ATOM     34  C   UNL     1      -6.184   5.719   1.350  0.00  0.00    -0.020 C 
ATOM     35  C   UNL     1      -4.705   5.454   1.010  0.00  0.00    -0.078 C 
ATOM     36  N   UNL     1      -4.256   6.602   0.221  0.00  0.00    +0.385 N 
ATOM     37  H   UNL     1      -3.834   7.304   0.839  0.00  0.00    -0.081 HD
ENDBRANCH  21  36
ENDBRANCH  20  21
ENDBRANCH   3  20
TORSDOF 7
