REMARK  Name = ZINC66968452
REMARK  9 active torsions:
REMARK  status: ('A' for Active; 'I' for Inactive)
REMARK    1  A    between atoms: C_1  and  C_2
REMARK    2  A    between atoms: C_2  and  C_3
REMARK    3  A    between atoms: C_3  and  N_4
REMARK    4  A    between atoms: C_10  and  N_13
REMARK    5  A    between atoms: N_13  and  C_14
REMARK    6  A    between atoms: C_14  and  C_16
REMARK    7  A    between atoms: C_14  and  C_17
REMARK    8  A    between atoms: N_22  and  C_23
REMARK    9  A    between atoms: C_23  and  C_24
REMARK                            x       y       z     vdW  Elec       q    Type
REMARK                         _______ _______ _______ _____ _____    ______ ____
ROOT
ATOM      1  C   UNL     1       2.195  -2.890  -6.904  0.00  0.00    +0.154 C 
ATOM      2  C   UNL     1       2.052  -1.520  -7.569  0.00  0.00    +0.038 C 
ENDROOT
BRANCH   1   3
ATOM      3  C   UNL     1       3.568  -3.443  -7.183  0.00  0.00    +0.240 C 
ATOM      4  O   UNL     1       4.318  -3.697  -6.264  0.00  0.00    -0.273 OA
ATOM      5  N   UNL     1       3.964  -3.655  -8.453  0.00  0.00    -0.239 N 
ATOM      6  C   UNL     1       5.193  -4.149  -8.703  0.00  0.00    +0.306 C 
ATOM      7  O   UNL     1       5.944  -4.404  -7.782  0.00  0.00    -0.252 OA
ATOM      8  N   UNL     1       5.589  -4.361  -9.974  0.00  0.00    -0.295 N 
ATOM      9  H   UNL     1       3.365  -3.452  -9.188  0.00  0.00    +0.159 HD
ATOM     10  H   UNL     1       4.989  -4.158 -10.709  0.00  0.00    +0.151 HD
BRANCH   8  11
ATOM     11  C   UNL     1       6.925  -4.899 -10.245  0.00  0.00    +0.141 C 
BRANCH  11  12
ATOM     12  C   UNL     1       7.117  -5.040 -11.733  0.00  0.00    -0.030 A 
ATOM     13  C   UNL     1       6.761  -6.216 -12.367  0.00  0.00    +0.005 A 
ATOM     14  C   UNL     1       6.938  -6.346 -13.732  0.00  0.00    +0.000 A 
ATOM     15  C   UNL     1       7.468  -5.299 -14.463  0.00  0.00    +0.000 A 
ATOM     16  C   UNL     1       7.823  -4.123 -13.829  0.00  0.00    +0.000 A 
ATOM     17  C   UNL     1       7.643  -3.992 -12.464  0.00  0.00    +0.005 A 
ENDBRANCH  11  12
ENDBRANCH   8  11
ENDBRANCH   1   3
BRANCH   1  18
ATOM     18  N   UNL     1       2.008  -2.753  -5.457  0.00  0.00    -0.333 N 
ATOM     19  H   UNL     1       2.778  -2.648  -4.876  0.00  0.00    +0.147 HD
BRANCH  18  26
ATOM     20  N   UNL     1       0.738  -1.966  -1.265  0.00  0.00    +0.385 N 
ATOM     21  C   UNL     1      -0.620  -2.503  -1.509  0.00  0.00    -0.042 C 
ATOM     22  C   UNL     1      -0.732  -2.663  -3.008  0.00  0.00    -0.061 A 
ATOM     23  C   UNL     1      -1.828  -2.812  -3.838  0.00  0.00    +0.002 A 
ATOM     24  C   UNL     1      -1.653  -2.942  -5.204  0.00  0.00    +0.002 A 
ATOM     25  C   UNL     1      -0.382  -2.922  -5.744  0.00  0.00    +0.023 A 
ATOM     26  C   UNL     1       0.721  -2.772  -4.914  0.00  0.00    +0.029 A 
ATOM     27  C   UNL     1       0.543  -2.643  -3.543  0.00  0.00    -0.042 A 
ATOM     28  C   UNL     1       1.530  -2.469  -2.411  0.00  0.00    -0.040 C 
ATOM     29  H   UNL     1       1.110  -2.320  -0.396  0.00  0.00    -0.081 HD
BRANCH  20  30
ATOM     30  C   UNL     1       0.718  -0.497  -1.257  0.00  0.00    -0.078 C 
BRANCH  30  32
ATOM     31  C   UNL     1      -0.019   1.526   0.010  0.00  0.00    +0.002 C 
ATOM     32  C   UNL     1       0.002  -0.004   0.002  0.00  0.00    -0.022 C 
ENDBRANCH  30  32
ENDBRANCH  20  30
ENDBRANCH  18  26
ENDBRANCH   1  18
TORSDOF 7
