REMARK  Name = ZINC48366044
REMARK  9 active torsions:
REMARK  status: ('A' for Active; 'I' for Inactive)
REMARK    1  A    between atoms: C_1  and  C_2
REMARK    2  A    between atoms: C_2  and  C_3
REMARK    3  A    between atoms: C_3  and  C_5
REMARK    4  A    between atoms: C_3  and  N_15
REMARK    5  A    between atoms: N_15  and  C_16
REMARK    6  A    between atoms: C_16  and  C_17
REMARK    7  A    between atoms: N_19  and  C_20
REMARK    8  A    between atoms: C_24  and  S_26
REMARK    9  A    between atoms: S_26  and  N_29
REMARK                            x       y       z     vdW  Elec       q    Type
REMARK                         _______ _______ _______ _____ _____    ______ ____
ROOT
ATOM      1  C   UNL     1      -2.921   1.860   2.577  0.00  0.00    +0.200 C 
ATOM      2  O   UNL     1      -3.174   1.068   3.459  0.00  0.00    -0.278 OA
ATOM      3  N   UNL     1      -3.281   3.153   2.708  0.00  0.00    -0.287 N 
ATOM      4  H   UNL     1      -3.151   3.769   1.971  0.00  0.00    +0.155 HD
ENDROOT
BRANCH   3   5
ATOM      5  C   UNL     1      -3.842   3.604   3.908  0.00  0.00    +0.035 A 
ATOM      6  C   UNL     1      -4.803   4.607   3.893  0.00  0.00    +0.023 A 
ATOM      7  C   UNL     1      -5.354   5.050   5.078  0.00  0.00    +0.004 A 
ATOM      8  C   UNL     1      -4.950   4.497   6.280  0.00  0.00    +0.029 A 
ATOM      9  C   UNL     1      -3.994   3.499   6.298  0.00  0.00    +0.114 A 
ATOM     10  C   UNL     1      -3.443   3.047   5.115  0.00  0.00    +0.052 A 
BRANCH   9  11
ATOM     11  S   UNL     1      -3.482   2.799   7.832  0.00  0.00    +0.100 S 
ATOM     12  O   UNL     1      -2.182   2.266   7.622  0.00  0.00    -0.146 OA
ATOM     13  O   UNL     1      -3.755   3.770   8.833  0.00  0.00    -0.146 OA
BRANCH  11  14
ATOM     14  N   UNL     1      -4.478   1.511   8.138  0.00  0.00    -0.118 NA
ATOM     15  C   UNL     1      -4.318   0.812   9.214  0.00  0.00    +0.117 C 
ATOM     16  C   UNL     1      -5.154  -0.387   9.605  0.00  0.00    +0.074 C 
ATOM     17  C   UNL     1      -4.320  -1.094  10.699  0.00  0.00    +0.026 C 
ATOM     18  C   UNL     1      -3.473   0.068  11.261  0.00  0.00    +0.103 C 
ATOM     19  N   UNL     1      -3.364   1.041  10.167  0.00  0.00    -0.331 N 
ATOM     20  H   UNL     1      -2.705   1.752  10.127  0.00  0.00    +0.147 HD
ENDBRANCH  11  14
ENDBRANCH   9  11
ENDBRANCH   3   5
BRANCH   1  21
ATOM     21  C   UNL     1      -2.203   1.401   1.334  0.00  0.00    +0.016 C 
BRANCH  21  22
ATOM     22  N   UNL     1      -1.924  -0.038   1.434  0.00  0.00    +0.387 N 
ATOM     23  H   UNL     1      -2.794  -0.547   1.477  0.00  0.00    -0.085 HD
ATOM     24  H   UNL     1      -1.386  -0.219   2.268  0.00  0.00    -0.085 HD
BRANCH  22  25
ATOM     25  C   UNL     1      -1.161  -0.471   0.256  0.00  0.00    -0.065 C 
BRANCH  25  26
ATOM     26  C   UNL     1      -1.395  -1.964   0.017  0.00  0.00    -0.041 C 
ATOM     27  C   UNL     1      -0.934  -2.756   1.243  0.00  0.00    +0.009 C 
ATOM     28  C   UNL     1      -1.169  -4.248   1.004  0.00  0.00    -0.010 C 
ATOM     29  C   UNL     1      -0.374  -4.700  -0.223  0.00  0.00    +0.007 C 
ATOM     30  C   UNL     1      -0.835  -3.909  -1.449  0.00  0.00    -0.010 C 
ATOM     31  C   UNL     1      -0.601  -2.416  -1.210  0.00  0.00    +0.009 C 
ATOM     32  C   UNL     1      -2.326  -4.159  -1.686  0.00  0.00    +0.007 C 
ATOM     33  C   UNL     1      -3.121  -3.708  -0.459  0.00  0.00    -0.010 C 
ATOM     34  C   UNL     1      -2.659  -4.499   0.766  0.00  0.00    +0.007 C 
ATOM     35  C   UNL     1      -2.886  -2.215  -0.221  0.00  0.00    +0.009 C 
ENDBRANCH  25  26
BRANCH  25  37
ATOM     36  C   UNL     1       0.587   1.285   0.579  0.00  0.00    +0.002 C 
ATOM     37  C   UNL     1       0.330  -0.221   0.493  0.00  0.00    -0.019 C 
ENDBRANCH  25  37
ENDBRANCH  22  25
ENDBRANCH  21  22
ENDBRANCH   1  21
TORSDOF 8
