REMARK  Name = ZINC44549924
REMARK  13 active torsions:
REMARK  status: ('A' for Active; 'I' for Inactive)
REMARK    1  A    between atoms: C_1  and  O_2
REMARK    2  A    between atoms: O_2  and  C_3
REMARK    3  A    between atoms: C_5  and  C_11
REMARK    4  A    between atoms: C_7  and  O_9
REMARK    5  A    between atoms: O_9  and  C_10
REMARK    6  A    between atoms: C_11  and  C_12
REMARK    7  A    between atoms: C_15  and  S_18
REMARK    8  A    between atoms: S_18  and  C_19
REMARK    9  A    between atoms: C_19  and  C_20
REMARK   10  A    between atoms: C_20  and  C_22
REMARK   11  A    between atoms: C_20  and  O_30
REMARK   12  A    between atoms: C_22  and  N_23
REMARK   13  A    between atoms: N_23  and  C_24
REMARK                            x       y       z     vdW  Elec       q    Type
REMARK                         _______ _______ _______ _____ _____    ______ ____
ROOT
ATOM      1  C   UNL     1      -2.542  -4.679   1.435  0.00  0.00    +0.156 A 
ATOM      2  N   UNL     1      -3.632  -4.897   2.171  0.00  0.00    -0.205 NA
ATOM      3  H   UNL     1      -1.386  -5.688   4.147  0.00  0.00    +0.191 HD
ATOM      4  C   UNL     1      -3.282  -5.334   3.363  0.00  0.00    +0.184 A 
ATOM      5  N   UNL     1      -1.934  -5.401   3.400  0.00  0.00    -0.254 N 
ATOM      6  N   UNL     1      -1.483  -4.977   2.139  0.00  0.00    -0.156 NA
ENDROOT
BRANCH   1   7
ATOM      7  C   UNL     1      -2.533  -4.175   0.015  0.00  0.00    +0.113 C 
BRANCH   7  10
ATOM      8  C   UNL     1      -1.200  -0.637   0.010  0.00  0.00    +0.124 A 
ATOM      9  C   UNL     1      -1.255  -2.024   0.009  0.00  0.00    +0.050 A 
ATOM     10  C   UNL     1      -2.477  -2.669   0.017  0.00  0.00    -0.033 A 
ATOM     11  C   UNL     1      -3.647  -1.935   0.025  0.00  0.00    +0.050 A 
ATOM     12  C   UNL     1      -3.598  -0.548   0.027  0.00  0.00    +0.124 A 
ATOM     13  C   UNL     1      -2.373   0.101   0.025  0.00  0.00    +0.091 A 
BRANCH   8  15
ATOM     14  C   UNL     1      -0.017   1.425   0.010  0.00  0.00    +0.277 C 
ATOM     15  O   UNL     1       0.002  -0.004   0.002  0.00  0.00    -0.495 OA
ENDBRANCH   8  15
BRANCH  12  16
ATOM     16  O   UNL     1      -4.750   0.173   0.036  0.00  0.00    -0.495 OA
ATOM     17  C   UNL     1      -4.624   1.597   0.037  0.00  0.00    +0.277 C 
ENDBRANCH  12  16
ENDBRANCH   7  10
ENDBRANCH   1   7
BRANCH   4  18
ATOM     18  S   UNL     1      -4.379  -5.756   4.676  0.00  0.00    -0.084 S 
BRANCH  18  19
ATOM     19  C   UNL     1      -6.028  -5.445   3.988  0.00  0.00    +0.106 C 
BRANCH  19  20
ATOM     20  C   UNL     1      -7.090  -5.775   5.039  0.00  0.00    +0.108 C 
BRANCH  20  21
ATOM     21  O   UNL     1      -6.964  -4.875   6.142  0.00  0.00    -0.393 OA
ATOM     22  H   UNL     1      -7.077  -3.944   5.905  0.00  0.00    +0.210 HD
ENDBRANCH  20  21
BRANCH  20  23
ATOM     23  C   UNL     1      -8.482  -5.632   4.420  0.00  0.00    -0.050 C 
BRANCH  23  24
ATOM     24  N   UNL     1      -9.501  -5.949   5.430  0.00  0.00    +0.383 N 
ATOM     25  H   UNL     1      -9.372  -6.897   5.752  0.00  0.00    -0.085 HD
ATOM     26  H   UNL     1      -9.412  -5.314   6.208  0.00  0.00    -0.085 HD
BRANCH  24  27
ATOM     27  C   UNL     1     -10.838  -5.812   4.836  0.00  0.00    -0.072 C 
ATOM     28  C   UNL     1     -11.081  -4.349   4.460  0.00  0.00    -0.016 C 
ATOM     29  C   UNL     1     -12.473  -4.207   3.841  0.00  0.00    -0.002 C 
ATOM     30  C   UNL     1     -13.529  -4.657   4.853  0.00  0.00    -0.000 C 
ATOM     31  C   UNL     1     -13.286  -6.119   5.228  0.00  0.00    -0.002 C 
ATOM     32  C   UNL     1     -11.894  -6.262   5.847  0.00  0.00    -0.016 C 
ENDBRANCH  24  27
ENDBRANCH  23  24
ENDBRANCH  20  23
ENDBRANCH  19  20
ENDBRANCH  18  19
ENDBRANCH   4  18
TORSDOF 11
