REMARK  Name = ZINC39683572
REMARK  8 active torsions:
REMARK  status: ('A' for Active; 'I' for Inactive)
REMARK    1  A    between atoms: C_1  and  C_2
REMARK    2  A    between atoms: C_2  and  C_3
REMARK    3  A    between atoms: C_3  and  C_4
REMARK    4  A    between atoms: C_4  and  N_5
REMARK    5  A    between atoms: C_8  and  C_11
REMARK    6  A    between atoms: C_11  and  N_12
REMARK    7  A    between atoms: C_13  and  C_15
REMARK    8  A    between atoms: C_26  and  C_28
REMARK                            x       y       z     vdW  Elec       q    Type
REMARK                         _______ _______ _______ _____ _____    ______ ____
ROOT
ATOM      1  C   UNL     1       3.067  -7.109  -7.487  0.00  0.00    +0.100 C 
ATOM      2  C   UNL     1       1.940  -8.164  -7.441  0.00  0.00    +0.121 C 
ATOM      3  N   UNL     1       1.636  -8.450  -8.863  0.00  0.00    -0.300 N 
ATOM      4  C   UNL     1       2.961  -8.456  -9.529  0.00  0.00    +0.115 C 
ATOM      5  C   UNL     1       3.737  -7.306  -8.857  0.00  0.00    -0.004 C 
ATOM      6  C   UNL     1       5.203  -7.691  -8.678  0.00  0.00    -0.010 C 
ATOM      7  C   UNL     1       5.862  -7.825 -10.054  0.00  0.00    -0.082 C 
ATOM      8  N   UNL     1       5.755  -6.551 -10.775  0.00  0.00    +0.379 N 
ATOM      9  C   UNL     1       4.344  -6.234 -11.025  0.00  0.00    -0.082 C 
ATOM     10  C   UNL     1       3.620  -6.033  -9.691  0.00  0.00    -0.010 C 
ATOM     11  C   UNL     1       0.429  -8.658  -9.424  0.00  0.00    +0.219 C 
ATOM     12  O   UNL     1      -0.578  -8.544  -8.757  0.00  0.00    -0.275 OA
ATOM     13  H   UNL     1       6.171  -5.816 -10.222  0.00  0.00    -0.086 HD
ATOM     14  H   UNL     1       6.243  -6.622 -11.656  0.00  0.00    -0.086 HD
ENDROOT
BRANCH  11  15
ATOM     15  C   UNL     1       0.329  -9.031 -10.881  0.00  0.00    +0.079 C 
ATOM     16  C   UNL     1      -1.040  -8.608 -11.429  0.00  0.00    +0.017 C 
ATOM     17  C   UNL     1      -1.046  -8.835 -12.943  0.00  0.00    +0.027 C 
ATOM     18  C   UNL     1      -0.556 -10.218 -13.260  0.00  0.00    -0.031 C 
ATOM     19  C   UNL     1       0.105 -10.961 -12.431  0.00  0.00    -0.030 C 
ATOM     20  C   UNL     1       0.469 -10.547 -11.034  0.00  0.00    +0.039 C 
ENDBRANCH  11  15
BRANCH   1  22
ATOM     21  N   UNL     1       3.220  -4.729  -6.831  0.00  0.00    -0.315 N 
ATOM     22  C   UNL     1       2.491  -5.721  -7.380  0.00  0.00    +0.218 C 
ATOM     23  O   UNL     1       1.371  -5.496  -7.787  0.00  0.00    -0.275 OA
ATOM     24  H   UNL     1       4.116  -4.909  -6.505  0.00  0.00    +0.149 HD
BRANCH  21  25
ATOM     25  C   UNL     1       2.660  -3.379  -6.726  0.00  0.00    +0.107 C 
BRANCH  25  29
ATOM     26  N   UNL     1       5.236  -0.008  -6.199  0.00  0.00    +0.380 N 
ATOM     27  C   UNL     1       4.111  -0.127  -5.265  0.00  0.00    -0.079 C 
ATOM     28  C   UNL     1       3.057  -1.072  -5.847  0.00  0.00    -0.014 C 
ATOM     29  C   UNL     1       3.685  -2.451  -6.071  0.00  0.00    +0.003 C 
ATOM     30  C   UNL     1       4.903  -2.304  -6.987  0.00  0.00    -0.014 C 
ATOM     31  C   UNL     1       5.888  -1.313  -6.363  0.00  0.00    -0.079 C 
ATOM     32  H   UNL     1       4.896   0.311  -7.094  0.00  0.00    -0.082 HD
BRANCH  26  33
ATOM     33  C   UNL     1       6.208   0.960  -5.673  0.00  0.00    -0.079 C 
BRANCH  33  34
ATOM     34  C   UNL     1       5.567   2.348  -5.619  0.00  0.00    -0.019 C 
BRANCH  34  36
ATOM     35  C   UNL     1       5.938   4.744  -5.016  0.00  0.00    +0.004 C 
ATOM     36  C   UNL     1       6.579   3.356  -5.070  0.00  0.00    -0.005 C 
ENDBRANCH  34  36
ENDBRANCH  33  34
ENDBRANCH  26  33
ENDBRANCH  25  29
ENDBRANCH  21  25
ENDBRANCH   1  22
TORSDOF 7
