REMARK  Name = ZINC64143683
REMARK  11 active torsions:
REMARK  status: ('A' for Active; 'I' for Inactive)
REMARK    1  A    between atoms: C_1  and  N_2
REMARK    2  A    between atoms: C_6  and  C_16
REMARK    3  A    between atoms: C_8  and  N_9
REMARK    4  A    between atoms: C_10  and  C_12
REMARK    5  A    between atoms: C_12  and  C_13
REMARK    6  A    between atoms: C_13  and  O_14
REMARK    7  A    between atoms: O_14  and  C_15
REMARK    8  A    between atoms: N_18  and  C_19
REMARK    9  A    between atoms: C_19  and  C_20
REMARK   10  A    between atoms: C_20  and  C_21
REMARK   11  A    between atoms: C_31  and  C_33
REMARK                            x       y       z     vdW  Elec       q    Type
REMARK                         _______ _______ _______ _____ _____    ______ ____
ROOT
ATOM      1  C   UNL     1      -0.006   1.462  -0.007  0.00  0.00    +0.131 C 
ATOM      2  N   UNL     1       0.023  -0.003  -0.021  0.00  0.00    -0.308 N 
ATOM      3  C   UNL     1      -0.065  -0.821  -1.150  0.00  0.00    +0.074 A 
ATOM      4  C   UNL     1      -0.002  -2.160  -0.770  0.00  0.00    +0.053 A 
ATOM      5  C   UNL     1      -0.070  -3.156  -1.731  0.00  0.00    +0.038 A 
ATOM      6  C   UNL     1      -0.203  -2.821  -3.080  0.00  0.00    +0.040 A 
ATOM      7  C   UNL     1      -0.266  -1.478  -3.461  0.00  0.00    +0.038 A 
ATOM      8  C   UNL     1      -0.198  -0.486  -2.502  0.00  0.00    +0.057 A 
ATOM      9  N   UNL     1       0.130  -2.250   0.624  0.00  0.00    -0.321 N 
ATOM     10  C   UNL     1       0.156  -0.879   1.148  0.00  0.00    +0.190 C 
ATOM     11  H   UNL     1       0.195  -3.066   1.144  0.00  0.00    +0.148 HD
ENDROOT
BRANCH  10  12
ATOM     12  C   UNL     1       1.462  -0.614   1.852  0.00  0.00    -0.009 A 
ATOM     13  C   UNL     1       2.659  -0.880   1.212  0.00  0.00    +0.007 A 
ATOM     14  C   UNL     1       3.857  -0.637   1.857  0.00  0.00    +0.000 A 
ATOM     15  C   UNL     1       3.858  -0.126   3.142  0.00  0.00    +0.000 A 
ATOM     16  C   UNL     1       2.662   0.142   3.781  0.00  0.00    +0.000 A 
ATOM     17  C   UNL     1       1.464  -0.098   3.134  0.00  0.00    +0.007 A 
ENDBRANCH  10  12
BRANCH   8  18
ATOM     18  N   UNL     1      -0.261   0.861  -2.884  0.00  0.00    -0.284 N 
ATOM     19  C   UNL     1      -1.033   1.230  -3.926  0.00  0.00    +0.219 C 
ATOM     20  O   UNL     1      -1.748   0.415  -4.470  0.00  0.00    -0.275 OA
ATOM     21  H   UNL     1       0.250   1.528  -2.399  0.00  0.00    +0.155 HD
BRANCH  19  22
ATOM     22  C   UNL     1      -1.006   2.655  -4.415  0.00  0.00    +0.124 C 
BRANCH  22  23
ATOM     23  C   UNL     1      -1.965   2.806  -5.598  0.00  0.00    +0.168 C 
BRANCH  23  24
ATOM     24  O   UNL     1      -1.940   4.157  -6.062  0.00  0.00    -0.382 OA
ATOM     25  C   UNL     1      -2.806   4.407  -7.171  0.00  0.00    +0.194 C 
ENDBRANCH  23  24
ENDBRANCH  22  23
ENDBRANCH  19  22
ENDBRANCH   8  18
BRANCH   6  26
ATOM     26  C   UNL     1      -0.275  -3.883  -4.102  0.00  0.00    +0.244 C 
ATOM     27  O   UNL     1      -0.219  -5.051  -3.769  0.00  0.00    -0.270 OA
ATOM     28  N   UNL     1      -0.403  -3.558  -5.404  0.00  0.00    -0.311 N 
ATOM     29  H   UNL     1      -0.447  -2.626  -5.669  0.00  0.00    +0.149 HD
BRANCH  28  30
ATOM     30  C   UNL     1      -0.474  -4.613  -6.418  0.00  0.00    +0.109 C 
BRANCH  30  31
ATOM     31  C   UNL     1      -0.617  -3.979  -7.803  0.00  0.00    +0.052 C 
BRANCH  31  32
ATOM     32  C   UNL     1      -0.690  -5.064  -8.847  0.00  0.00    -0.040 C 
ATOM     33  C   UNL     1      -1.810  -5.603  -9.382  0.00  0.00    -0.001 A 
ATOM     34  C   UNL     1      -3.239  -5.351  -9.160  0.00  0.00    +0.010 A 
ATOM     35  C   UNL     1      -4.147  -6.066  -9.861  0.00  0.00    +0.001 A 
ATOM     36  C   UNL     1      -3.760  -7.041 -10.791  0.00  0.00    +0.002 A 
ATOM     37  C   UNL     1      -2.467  -7.329 -11.049  0.00  0.00    +0.026 A 
ATOM     38  C   UNL     1      -1.427  -6.636 -10.370  0.00  0.00    +0.043 A 
ATOM     39  N   UNL     1      -0.121  -6.733 -10.443  0.00  0.00    -0.380 N 
ATOM     40  C   UNL     1       0.472  -5.766  -9.513  0.00  0.00    +0.144 C 
ATOM     41  H   UNL     1       0.370  -7.340 -11.019  0.00  0.00    +0.160 HD
ENDBRANCH  31  32
ENDBRANCH  30  31
ENDBRANCH  28  30
ENDBRANCH   6  26
TORSDOF 9
