REMARK  Name = ZINC45684256
REMARK  11 active torsions:
REMARK  status: ('A' for Active; 'I' for Inactive)
REMARK    1  A    between atoms: C_1  and  C_2
REMARK    2  A    between atoms: C_2  and  N_3
REMARK    3  A    between atoms: N_3  and  C_4
REMARK    4  A    between atoms: N_3  and  C_6
REMARK    5  A    between atoms: C_4  and  C_5
REMARK    6  A    between atoms: C_6  and  C_7
REMARK    7  A    between atoms: C_7  and  C_9
REMARK    8  A    between atoms: C_7  and  N_10
REMARK    9  A    between atoms: N_10  and  S_11
REMARK   10  A    between atoms: S_11  and  C_14
REMARK   11  A    between atoms: C_17  and  N_21
REMARK                            x       y       z     vdW  Elec       q    Type
REMARK                         _______ _______ _______ _____ _____    ______ ____
ROOT
ATOM      1  S   UNL     1       0.936  -1.592   3.127  0.00  0.00    +0.061 S 
ATOM      2  O   UNL     1       2.285  -1.194   2.926  0.00  0.00    -0.153 OA
ATOM      3  O   UNL     1      -0.011  -0.765   3.788  0.00  0.00    -0.153 OA
ENDROOT
BRANCH   1   4
ATOM      4  C   UNL     1       0.987  -3.112   4.017  0.00  0.00    +0.133 A 
ATOM      5  C   UNL     1      -0.101  -3.504   4.777  0.00  0.00    +0.047 A 
ATOM      6  C   UNL     1      -0.064  -4.695   5.476  0.00  0.00    +0.040 A 
ATOM      7  C   UNL     1       1.067  -5.499   5.416  0.00  0.00    +0.027 A 
ATOM      8  C   UNL     1       2.158  -5.103   4.652  0.00  0.00    +0.040 A 
ATOM      9  C   UNL     1       2.113  -3.914   3.951  0.00  0.00    +0.047 A 
ATOM     10 BR   UNL     1       3.594  -3.377   2.905  0.00  0.00    -0.048 Br
ATOM     11 BR   UNL     1      -1.640  -2.408   4.858  0.00  0.00    -0.048 Br
BRANCH   7  12
ATOM     12  N   UNL     1       1.108  -6.704   6.122  0.00  0.00    -0.358 N 
ATOM     13  H   UNL     1       0.346  -6.979   6.656  0.00  0.00    +0.142 HD
ATOM     14  H   UNL     1       1.898  -7.264   6.080  0.00  0.00    +0.142 HD
ENDBRANCH   7  12
ENDBRANCH   1   4
BRANCH   1  15
ATOM     15  N   UNL     1       0.312  -1.923   1.629  0.00  0.00    -0.189 NA
ATOM     16  H   UNL     1       0.862  -1.808   0.838  0.00  0.00    +0.148 HD
BRANCH  15  17
ATOM     17  C   UNL     1      -1.071  -2.388   1.498  0.00  0.00    +0.057 C 
ATOM     18  C   UNL     1      -1.088  -3.915   1.399  0.00  0.00    +0.024 C 
BRANCH  17  19
ATOM     19  C   UNL     1      -1.694  -1.788   0.236  0.00  0.00    -0.059 C 
BRANCH  19  20
ATOM     20  N   UNL     1      -1.801  -0.331   0.389  0.00  0.00    +0.380 N 
ATOM     21  H   UNL     1      -2.262  -0.117   1.260  0.00  0.00    -0.082 HD
BRANCH  20  23
ATOM     22  C   UNL     1       0.294  -0.177  -0.871  0.00  0.00    -0.017 C 
ATOM     23  C   UNL     1      -0.456   0.262   0.388  0.00  0.00    -0.082 C 
ENDBRANCH  20  23
BRANCH  20  24
ATOM     24  C   UNL     1      -2.580   0.222  -0.727  0.00  0.00    -0.082 C 
ATOM     25  C   UNL     1      -2.817   1.716  -0.493  0.00  0.00    -0.017 C 
ENDBRANCH  20  24
ENDBRANCH  19  20
ENDBRANCH  17  19
ENDBRANCH  15  17
ENDBRANCH   1  15
TORSDOF 8
