REMARK  Name = ZINC12575526
REMARK  8 active torsions:
REMARK  status: ('A' for Active; 'I' for Inactive)
REMARK    1  A    between atoms: C_1  and  N_2
REMARK    2  A    between atoms: C_6  and  C_7
REMARK    3  A    between atoms: C_7  and  C_9
REMARK    4  A    between atoms: C_7  and  N_16
REMARK    5  A    between atoms: N_16  and  C_17
REMARK    6  A    between atoms: C_20  and  S_26
REMARK    7  A    between atoms: C_22  and  N_23
REMARK    8  A    between atoms: S_26  and  N_29
REMARK                            x       y       z     vdW  Elec       q    Type
REMARK                         _______ _______ _______ _____ _____    ______ ____
ROOT
ATOM      1  N   UNL     1      -0.650   1.074   2.105  0.00  0.00    -0.329 N 
ATOM      2  H   UNL     1      -0.103   1.875   2.079  0.00  0.00    +0.147 HD
ENDROOT
BRANCH   1   3
ATOM      3  C   UNL     1      -1.997   1.161   2.463  0.00  0.00    +0.059 A 
ATOM      4  C   UNL     1      -2.812   0.039   2.382  0.00  0.00    +0.027 A 
ATOM      5  C   UNL     1      -4.144   0.127   2.737  0.00  0.00    +0.030 A 
ATOM      6  C   UNL     1      -4.666   1.331   3.173  0.00  0.00    +0.107 A 
ATOM      7  C   UNL     1      -3.858   2.450   3.255  0.00  0.00    +0.063 A 
ATOM      8  C   UNL     1      -2.523   2.367   2.907  0.00  0.00    +0.149 A 
BRANCH   8   9
ATOM      9  N   UNL     1      -1.657   3.563   3.000  0.00  0.00    +0.058 N 
ATOM     10  O   UNL     1      -0.510   3.452   3.366  0.00  0.00    -0.126 OA
ATOM     11  O   UNL     1      -2.097   4.652   2.712  0.00  0.00    -0.126 OA
ENDBRANCH   8   9
BRANCH   6  12
ATOM     12  S   UNL     1      -6.366   1.440   3.625  0.00  0.00    +0.056 S 
ATOM     13  O   UNL     1      -6.738   2.804   3.479  0.00  0.00    -0.153 OA
ATOM     14  O   UNL     1      -7.036   0.391   2.941  0.00  0.00    -0.153 OA
BRANCH  12  15
ATOM     15  N   UNL     1      -6.466   1.092   5.241  0.00  0.00    -0.204 NA
ATOM     16  H   UNL     1      -5.663   0.881   5.742  0.00  0.00    +0.144 HD
ATOM     17  H   UNL     1      -7.328   1.099   5.686  0.00  0.00    +0.144 HD
ENDBRANCH  12  15
ENDBRANCH   6  12
ENDBRANCH   1   3
BRANCH   1  18
ATOM     18  C   UNL     1      -0.063  -0.226   1.770  0.00  0.00    +0.165 C 
BRANCH  18  24
ATOM     19  C   UNL     1      -0.568   1.835  -0.488  0.00  0.00    +0.150 C 
ATOM     20  N   UNL     1      -0.538   0.380  -0.654  0.00  0.00    -0.337 N 
ATOM     21  C   UNL     1      -0.720  -0.308  -1.823  0.00  0.00    +0.104 A 
ATOM     22  C   UNL     1      -0.612  -1.617  -1.525  0.00  0.00    +0.102 A 
ATOM     23  N   UNL     1      -0.370  -1.725  -0.210  0.00  0.00    -0.348 N 
ATOM     24  C   UNL     1      -0.319  -0.533   0.317  0.00  0.00    +0.112 A 
ATOM     25  H   UNL     1      -0.248  -2.558   0.271  0.00  0.00    +0.167 HD
ENDBRANCH  18  24
BRANCH  18  26
ATOM     26  C   UNL     1       1.423  -0.185   2.021  0.00  0.00    -0.020 A 
ATOM     27  C   UNL     1       2.148   0.945   1.695  0.00  0.00    +0.007 A 
ATOM     28  C   UNL     1       3.511   0.983   1.924  0.00  0.00    +0.020 A 
ATOM     29  C   UNL     1       4.148  -0.112   2.480  0.00  0.00    +0.041 A 
ATOM     30  C   UNL     1       3.422  -1.243   2.806  0.00  0.00    +0.020 A 
ATOM     31  C   UNL     1       2.058  -1.277   2.582  0.00  0.00    +0.007 A 
ATOM     32 CL   UNL     1       5.860  -0.066   2.768  0.00  0.00    -0.084 Cl
ENDBRANCH  18  26
ENDBRANCH   1  18
TORSDOF 7
