REMARK  Name = ZINC01033173
REMARK  9 active torsions:
REMARK  status: ('A' for Active; 'I' for Inactive)
REMARK    1  A    between atoms: C_1  and  C_2
REMARK    2  A    between atoms: C_5  and  N_11
REMARK    3  A    between atoms: C_7  and  N_8
REMARK    4  A    between atoms: C_15  and  S_19
REMARK    5  A    between atoms: S_19  and  C_20
REMARK    6  A    between atoms: C_20  and  C_21
REMARK    7  A    between atoms: N_23  and  C_24
REMARK    8  A    between atoms: C_26  and  C_34
REMARK    9  A    between atoms: C_28  and  C_30
REMARK                            x       y       z     vdW  Elec       q    Type
REMARK                         _______ _______ _______ _____ _____    ______ ____
ROOT
ATOM      1  C   UNL     1       1.536   2.062   1.122  0.00  0.00    +0.165 C 
ENDROOT
BRANCH   1   2
ATOM      2  C   UNL     1       1.736   3.546   1.292  0.00  0.00    +0.227 C 
ATOM      3  O   UNL     1       0.783   4.295   1.245  0.00  0.00    -0.275 OA
ATOM      4  N   UNL     1       2.973   4.041   1.496  0.00  0.00    -0.285 N 
ATOM      5  H   UNL     1       3.726   3.438   1.594  0.00  0.00    +0.155 HD
BRANCH   4   6
ATOM      6  C   UNL     1       3.170   5.424   1.567  0.00  0.00    +0.034 A 
ATOM      7  C   UNL     1       4.337   5.987   1.067  0.00  0.00    +0.035 A 
ATOM      8  C   UNL     1       4.527   7.354   1.134  0.00  0.00    +0.057 A 
ATOM      9  C   UNL     1       3.561   8.160   1.708  0.00  0.00    +0.024 A 
ATOM     10  C   UNL     1       2.400   7.602   2.212  0.00  0.00    +0.057 A 
ATOM     11  C   UNL     1       2.202   6.237   2.143  0.00  0.00    +0.035 A 
BRANCH  10  12
ATOM     12  C   UNL     1       1.351   8.484   2.837  0.00  0.00    +0.417 C 
ATOM     13  F   UNL     1       0.278   7.697   3.271  0.00  0.00    -0.166 F 
ATOM     14  F   UNL     1       1.902   9.163   3.929  0.00  0.00    -0.166 F 
ATOM     15  F   UNL     1       0.898   9.411   1.893  0.00  0.00    -0.166 F 
ENDBRANCH  10  12
BRANCH   8  16
ATOM     16  C   UNL     1       5.790   7.966   0.586  0.00  0.00    +0.417 C 
ATOM     17  F   UNL     1       6.760   8.012   1.593  0.00  0.00    -0.166 F 
ATOM     18  F   UNL     1       6.260   7.191  -0.480  0.00  0.00    -0.166 F 
ATOM     19  F   UNL     1       5.522   9.264   0.137  0.00  0.00    -0.166 F 
ENDBRANCH   8  16
ENDBRANCH   4   6
ENDBRANCH   1   2
BRANCH   1  20
ATOM     20  S   UNL     1      -0.225   1.714   0.866  0.00  0.00    -0.138 S 
BRANCH  20  25
ATOM     21  N   UNL     1      -0.543  -1.127  -1.387  0.00  0.00    -0.209 N 
ATOM     22  C   UNL     1      -1.766  -1.208  -0.850  0.00  0.00    +0.228 C 
ATOM     23  O   UNL     1      -2.732  -1.719  -1.376  0.00  0.00    -0.275 OA
ATOM     24  C   UNL     1      -1.753  -0.563   0.523  0.00  0.00    +0.120 C 
ATOM     25  C   UNL     1      -0.294  -0.089   0.680  0.00  0.00    +0.142 C 
ATOM     26  C   UNL     1       0.363  -0.517  -0.614  0.00  0.00    +0.240 C 
ATOM     27  O   UNL     1       1.526  -0.336  -0.904  0.00  0.00    -0.274 OA
BRANCH  21  32
ATOM     28  C   UNL     1       0.700  -3.198  -6.523  0.00  0.00    +0.046 C 
ATOM     29  C   UNL     1       0.370  -2.648  -5.160  0.00  0.00    -0.020 A 
ATOM     30  C   UNL     1       0.006  -3.507  -4.138  0.00  0.00    +0.007 A 
ATOM     31  C   UNL     1      -0.296  -3.006  -2.888  0.00  0.00    +0.024 A 
ATOM     32  C   UNL     1      -0.236  -1.639  -2.656  0.00  0.00    +0.046 A 
ATOM     33  C   UNL     1       0.123  -0.778  -3.685  0.00  0.00    +0.057 A 
ATOM     34  C   UNL     1       0.431  -1.286  -4.932  0.00  0.00    +0.131 A 
BRANCH  34  35
ATOM     35  N   UNL     1       0.821  -0.370  -6.027  0.00  0.00    +0.057 N 
ATOM     36  O   UNL     1       1.485   0.622  -5.784  0.00  0.00    -0.126 OA
ATOM     37  O   UNL     1       0.478  -0.608  -7.171  0.00  0.00    -0.126 OA
ENDBRANCH  34  35
ENDBRANCH  21  32
ENDBRANCH  20  25
ENDBRANCH   1  20
TORSDOF 8
