REMARK  Name = ZINC51053999
REMARK  9 active torsions:
REMARK  status: ('A' for Active; 'I' for Inactive)
REMARK    1  A    between atoms: C_1  and  C_2
REMARK    2  A    between atoms: C_2  and  C_3
REMARK    3  A    between atoms: C_3  and  C_4
REMARK    4  A    between atoms: C_4  and  C_6
REMARK    5  A    between atoms: C_4  and  N_7
REMARK    6  A    between atoms: C_8  and  C_10
REMARK    7  A    between atoms: N_15  and  C_17
REMARK    8  A    between atoms: C_17  and  C_19
REMARK    9  A    between atoms: C_17  and  C_25
REMARK                            x       y       z     vdW  Elec       q    Type
REMARK                         _______ _______ _______ _____ _____    ______ ____
ROOT
ATOM      1  C   UNL     1      -0.417  -5.645  -1.363  0.00  0.00    +0.058 C 
ATOM      2  C   UNL     1      -1.590  -5.693  -2.347  0.00  0.00    +0.009 C 
ATOM      3  C   UNL     1      -1.059  -5.492  -3.769  0.00  0.00    -0.018 C 
ATOM      4  C   UNL     1      -0.006  -6.560  -4.070  0.00  0.00    -0.077 C 
ATOM      5  N   UNL     1       1.101  -6.445  -3.113  0.00  0.00    +0.391 N 
ATOM      6  C   UNL     1       0.613  -6.707  -1.753  0.00  0.00    -0.065 C 
ATOM      7  H   UNL     1       1.486  -5.514  -3.156  0.00  0.00    -0.080 HD
ENDROOT
BRANCH   1   9
ATOM      8  N   UNL     1      -1.840  -5.108   0.587  0.00  0.00    -0.313 N 
ATOM      9  C   UNL     1      -0.918  -5.919   0.031  0.00  0.00    +0.215 C 
ATOM     10  O   UNL     1      -0.492  -6.869   0.654  0.00  0.00    -0.276 OA
ATOM     11  H   UNL     1      -2.181  -4.348   0.090  0.00  0.00    +0.149 HD
BRANCH   8  12
ATOM     12  C   UNL     1      -2.327  -5.374   1.943  0.00  0.00    +0.070 C 
ATOM     13  C   UNL     1      -3.470  -6.389   1.884  0.00  0.00    +0.028 C 
BRANCH  12  14
ATOM     14  C   UNL     1      -2.834  -4.072   2.567  0.00  0.00    +0.022 C 
BRANCH  14  16
ATOM     15  C   UNL     1      -2.171  -1.799   3.365  0.00  0.00    +0.004 C 
ATOM     16  C   UNL     1      -1.664  -3.101   2.741  0.00  0.00    -0.002 C 
ENDBRANCH  14  16
ENDBRANCH  12  14
ENDBRANCH   8  12
ENDBRANCH   1   9
BRANCH   5  17
ATOM     17  C   UNL     1       2.145  -7.421  -3.454  0.00  0.00    +0.050 C 
BRANCH  17  18
ATOM     18  C   UNL     1       3.307  -7.265  -2.506  0.00  0.00    +0.211 C 
ATOM     19  O   UNL     1       3.525  -6.192  -1.987  0.00  0.00    -0.277 OA
ATOM     20  N   UNL     1       4.103  -8.319  -2.238  0.00  0.00    -0.241 N 
ATOM     21  C   UNL     1       5.142  -8.179  -1.391  0.00  0.00    +0.303 C 
ATOM     22  O   UNL     1       5.361  -7.103  -0.869  0.00  0.00    -0.253 OA
ATOM     23  N   UNL     1       5.938  -9.232  -1.122  0.00  0.00    -0.313 N 
ATOM     24  H   UNL     1       3.928  -9.177  -2.654  0.00  0.00    +0.159 HD
ATOM     25  H   UNL     1       5.763 -10.091  -1.538  0.00  0.00    +0.146 HD
ATOM     26  H   UNL     1       6.686  -9.132  -0.512  0.00  0.00    +0.146 HD
ENDBRANCH  17  18
BRANCH  17  27
ATOM     27  C   UNL     1       2.613  -7.183  -4.866  0.00  0.00    -0.052 A 
ATOM     28  C   UNL     1       2.780  -5.892  -5.331  0.00  0.00    +0.002 A 
ATOM     29  C   UNL     1       3.209  -5.674  -6.627  0.00  0.00    +0.000 A 
ATOM     30  C   UNL     1       3.471  -6.747  -7.458  0.00  0.00    +0.000 A 
ATOM     31  C   UNL     1       3.305  -8.038  -6.993  0.00  0.00    +0.000 A 
ATOM     32  C   UNL     1       2.880  -8.256  -5.696  0.00  0.00    +0.002 A 
ENDBRANCH  17  27
ENDBRANCH   5  17
TORSDOF 7
