REMARK  Name = ZINC44528071
REMARK  3 active torsions:
REMARK  status: ('A' for Active; 'I' for Inactive)
REMARK    1  A    between atoms: C_7  and  N_12
REMARK    2  A    between atoms: C_16  and  C_19
REMARK    3  A    between atoms: C_19  and  N_20
REMARK                            x       y       z     vdW  Elec       q    Type
REMARK                         _______ _______ _______ _____ _____    ______ ____
ROOT
ATOM      1  C   UNL     1      -0.017   1.372   0.010  0.00  0.00    +0.046 A 
ATOM      2  C   UNL     1       1.175   2.080   0.002  0.00  0.00    +0.125 A 
ATOM      3  C   UNL     1       2.380   1.398  -0.013  0.00  0.00    +0.055 A 
ATOM      4  C   UNL     1       2.400   0.017  -0.021  0.00  0.00    +0.042 A 
ATOM      5  C   UNL     1       1.204  -0.700  -0.014  0.00  0.00    +0.053 A 
ATOM      6  C   UNL     1       0.002  -0.004   0.002  0.00  0.00    +0.004 A 
ATOM      7  C   UNL     1      -1.093  -1.046   0.006  0.00  0.00    +0.176 C 
ATOM      8  C   UNL     1      -0.347  -2.364  -0.008  0.00  0.00    +0.239 C 
ATOM      9  O   UNL     1      -0.842  -3.471  -0.009  0.00  0.00    -0.273 OA
ATOM     10  N   UNL     1       0.965  -2.076  -0.020  0.00  0.00    -0.283 N 
ATOM     11 BR   UNL     1       4.051  -0.903  -0.043  0.00  0.00    -0.048 Br
ATOM     12  F   UNL     1       1.162   3.431   0.009  0.00  0.00    -0.205 F 
ATOM     13  H   UNL     1       1.666  -2.747  -0.031  0.00  0.00    +0.155 HD
ENDROOT
BRANCH   7  14
ATOM     14  N   UNL     1      -1.911  -0.928   1.221  0.00  0.00    -0.288 NA
ATOM     15  C   UNL     1      -1.097  -1.136   2.426  0.00  0.00    +0.085 C 
ATOM     16  C   UNL     1      -1.947  -0.863   3.669  0.00  0.00    +0.016 C 
ATOM     17  C   UNL     1      -3.152  -1.807   3.675  0.00  0.00    +0.004 C 
ATOM     18  C   UNL     1      -3.955  -1.605   2.388  0.00  0.00    -0.014 C 
ATOM     19  C   UNL     1      -3.048  -1.856   1.181  0.00  0.00    +0.087 C 
BRANCH  18  20
ATOM     20  C   UNL     1      -5.129  -2.586   2.358  0.00  0.00    -0.082 C 
BRANCH  20  21
ATOM     21  N   UNL     1      -6.060  -2.269   3.450  0.00  0.00    +0.378 N 
ATOM     22  H   UNL     1      -6.405  -1.328   3.335  0.00  0.00    -0.090 HD
ATOM     23  H   UNL     1      -6.834  -2.916   3.431  0.00  0.00    -0.090 HD
ATOM     24  H   UNL     1      -5.579  -2.345   4.334  0.00  0.00    -0.090 HD
ENDBRANCH  20  21
ENDBRANCH  18  20
ENDBRANCH   7  14
TORSDOF 3
