REMARK  Name = ZINC15998950
REMARK  5 active torsions:
REMARK  status: ('A' for Active; 'I' for Inactive)
REMARK    1  A    between atoms: C_1  and  C_2
REMARK    2  A    between atoms: C_4  and  N_34
REMARK    3  A    between atoms: C_7  and  N_8
REMARK    4  A    between atoms: C_13  and  C_30
REMARK    5  A    between atoms: C_30  and  C_31
REMARK                            x       y       z     vdW  Elec       q    Type
REMARK                         _______ _______ _______ _____ _____    ______ ____
ROOT
ATOM      1  N   UNL     1       0.805  -0.437   2.899  0.00  0.00    -0.210 N 
ATOM      2  C   UNL     1      -0.223   0.350   3.237  0.00  0.00    +0.232 C 
ATOM      3  O   UNL     1      -1.153   0.637   2.514  0.00  0.00    -0.274 OA
ATOM      4  C   UNL     1      -0.044   0.825   4.661  0.00  0.00    +0.108 C 
ATOM      5  C   UNL     1      -1.137   0.195   5.550  0.00  0.00    +0.076 C 
ATOM      6  N   UNL     1      -0.577  -1.116   5.973  0.00  0.00    -0.295 NA
ATOM      7  C   UNL     1       0.853  -0.838   6.209  0.00  0.00    +0.136 C 
ATOM      8  C   UNL     1       1.287   0.153   5.100  0.00  0.00    +0.123 C 
ATOM      9  C   UNL     1       1.708  -0.618   3.869  0.00  0.00    +0.233 C 
ATOM     10  O   UNL     1       2.710  -1.294   3.776  0.00  0.00    -0.274 OA
ATOM     11  C   UNL     1       1.672  -2.096   6.182  0.00  0.00    +0.003 A 
ATOM     12  C   UNL     1       1.891  -3.066   5.228  0.00  0.00    +0.008 A 
ATOM     13  C   UNL     1       2.720  -4.137   5.508  0.00  0.00    +0.000 A 
ATOM     14  C   UNL     1       3.329  -4.232   6.746  0.00  0.00    +0.002 A 
ATOM     15  C   UNL     1       3.114  -3.263   7.704  0.00  0.00    +0.023 A 
ATOM     16  C   UNL     1       2.281  -2.181   7.431  0.00  0.00    +0.039 A 
ATOM     17  N   UNL     1       1.914  -1.090   8.221  0.00  0.00    -0.283 N 
ATOM     18  C   UNL     1       1.077  -0.253   7.577  0.00  0.00    +0.243 C 
ATOM     19  O   UNL     1       0.599   0.772   8.014  0.00  0.00    -0.273 OA
ATOM     20  H   UNL     1      -1.024  -1.447   6.815  0.00  0.00    +0.124 HD
ATOM     21  H   UNL     1       2.225  -0.950   9.130  0.00  0.00    +0.155 HD
ENDROOT
BRANCH   1  28
ATOM     22  C   UNL     1       2.194   0.994   0.868  0.00  0.00    +0.046 C 
ATOM     23  C   UNL     1       1.593  -0.365   0.615  0.00  0.00    -0.026 A 
ATOM     24  C   UNL     1       1.712  -0.953  -0.629  0.00  0.00    +0.038 A 
ATOM     25  C   UNL     1       1.161  -2.199  -0.863  0.00  0.00    +0.127 A 
ATOM     26  C   UNL     1       0.488  -2.861   0.148  0.00  0.00    +0.034 A 
ATOM     27  C   UNL     1       0.364  -2.277   1.394  0.00  0.00    +0.026 A 
ATOM     28  C   UNL     1       0.923  -1.029   1.633  0.00  0.00    +0.047 A 
BRANCH  25  29
ATOM     29  N   UNL     1       1.290  -2.826  -2.197  0.00  0.00    +0.056 N 
ATOM     30  O   UNL     1       1.878  -2.248  -3.082  0.00  0.00    -0.126 OA
ATOM     31  O   UNL     1       0.808  -3.916  -2.402  0.00  0.00    -0.126 OA
ENDBRANCH  25  29
ENDBRANCH   1  28
BRANCH   5  32
ATOM     32  C   UNL     1      -1.406   1.079   6.770  0.00  0.00    +0.115 C 
BRANCH  32  33
ATOM     33  C   UNL     1      -2.535   2.029   6.462  0.00  0.00    +0.212 C 
ATOM     34  O   UNL     1      -3.071   2.002   5.374  0.00  0.00    -0.276 OA
ATOM     35  N   UNL     1      -2.948   2.909   7.395  0.00  0.00    -0.329 N 
ATOM     36  H   UNL     1      -2.520   2.931   8.265  0.00  0.00    +0.145 HD
ATOM     37  H   UNL     1      -3.675   3.521   7.197  0.00  0.00    +0.145 HD
ENDBRANCH  32  33
ENDBRANCH   5  32
TORSDOF 4
