REMARK  Name = ZINC20155130
REMARK  12 active torsions:
REMARK  status: ('A' for Active; 'I' for Inactive)
REMARK    1  A    between atoms: C_1  and  O_2
REMARK    2  A    between atoms: O_2  and  C_3
REMARK    3  A    between atoms: C_6  and  N_11
REMARK    4  A    between atoms: C_7  and  O_9
REMARK    5  A    between atoms: O_9  and  C_10
REMARK    6  A    between atoms: C_12  and  C_14
REMARK    7  A    between atoms: C_16  and  N_33
REMARK    8  A    between atoms: C_19  and  N_20
REMARK    9  A    between atoms: C_21  and  C_23
REMARK   10  A    between atoms: C_23  and  N_24
REMARK   11  A    between atoms: N_24  and  C_25
REMARK   12  A    between atoms: C_25  and  C_26
REMARK                            x       y       z     vdW  Elec       q    Type
REMARK                         _______ _______ _______ _____ _____    ______ ____
ROOT
ATOM      1  C   UNL     1       3.722  -0.959   0.172  0.00  0.00    +0.060 A 
ATOM      2  C   UNL     1       4.919  -0.245   0.259  0.00  0.00    +0.047 A 
ATOM      3  C   UNL     1       6.118  -0.920   0.333  0.00  0.00    +0.127 A 
ATOM      4  C   UNL     1       6.143  -2.305   0.322  0.00  0.00    +0.034 A 
ATOM      5  C   UNL     1       4.968  -3.024   0.236  0.00  0.00    +0.026 A 
ATOM      6  C   UNL     1       3.750  -2.361   0.166  0.00  0.00    +0.046 A 
ENDROOT
BRANCH   1   8
ATOM      7  N   UNL     1       2.416   1.101  -0.004  0.00  0.00    -0.278 N 
ATOM      8  C   UNL     1       2.435  -0.243   0.093  0.00  0.00    +0.250 C 
ATOM      9  O   UNL     1       1.390  -0.865   0.114  0.00  0.00    -0.270 OA
ATOM     10  H   UNL     1       3.359   1.658  -0.115  0.00  0.00    +0.155 HD
BRANCH   7  14
ATOM     11  C   UNL     1      -1.216   3.154   0.124  0.00  0.00    +0.124 A 
ATOM     12  C   UNL     1      -1.105   1.900   0.708  0.00  0.00    +0.047 A 
ATOM     13  C   UNL     1       0.099   1.223   0.670  0.00  0.00    +0.030 A 
ATOM     14  C   UNL     1       1.196   1.791   0.039  0.00  0.00    +0.076 A 
ATOM     15  C   UNL     1       1.084   3.047  -0.552  0.00  0.00    +0.145 A 
ATOM     16  C   UNL     1      -0.123   3.726  -0.508  0.00  0.00    +0.093 A 
BRANCH  11  18
ATOM     17  C   UNL     1      -3.486   3.171   0.834  0.00  0.00    +0.277 C 
ATOM     18  O   UNL     1      -2.401   3.820   0.167  0.00  0.00    -0.495 OA
ENDBRANCH  11  18
BRANCH  15  19
ATOM     19  O   UNL     1       2.158   3.607  -1.171  0.00  0.00    -0.493 OA
ATOM     20  C   UNL     1       1.970   4.898  -1.755  0.00  0.00    +0.277 C 
ENDBRANCH  15  19
ENDBRANCH   7  14
ENDBRANCH   1   8
BRANCH   6  21
ATOM     21  N   UNL     1       2.563  -3.085   0.086  0.00  0.00    -0.286 N 
ATOM     22  C   UNL     1       2.506  -4.342   0.569  0.00  0.00    +0.200 C 
ATOM     23  O   UNL     1       3.455  -4.807   1.163  0.00  0.00    -0.278 OA
ATOM     24  H   UNL     1       1.672  -2.631  -0.372  0.00  0.00    +0.155 HD
BRANCH  22  25
ATOM     25  C   UNL     1       1.262  -5.170   0.370  0.00  0.00    +0.016 C 
BRANCH  25  26
ATOM     26  N   UNL     1       1.450  -6.491   0.984  0.00  0.00    +0.387 N 
ATOM     27  H   UNL     1       2.306  -6.996   0.512  0.00  0.00    -0.085 HD
ATOM     28  H   UNL     1       1.643  -6.371   2.060  0.00  0.00    -0.085 HD
BRANCH  26  29
ATOM     29  C   UNL     1       0.255  -7.328   0.810  0.00  0.00    -0.046 C 
BRANCH  29  30
ATOM     30  C   UNL     1       0.485  -8.672   1.451  0.00  0.00    -0.064 A 
ATOM     31  C   UNL     1       1.027  -9.706   0.711  0.00  0.00    +0.004 A 
ATOM     32  C   UNL     1       1.243 -10.938   1.299  0.00  0.00    +0.038 A 
ATOM     33  C   UNL     1       0.906 -11.139   2.627  0.00  0.00    +0.123 A 
ATOM     34  C   UNL     1       0.358 -10.104   3.366  0.00  0.00    +0.038 A 
ATOM     35  C   UNL     1       0.148  -8.871   2.777  0.00  0.00    +0.004 A 
ATOM     36  F   UNL     1       1.112 -12.344   3.202  0.00  0.00    -0.205 F 
ENDBRANCH  29  30
ENDBRANCH  26  29
ENDBRANCH  25  26
ENDBRANCH  22  25
ENDBRANCH   6  21
BRANCH   3  37
ATOM     37  N   UNL     1       7.386  -0.161   0.426  0.00  0.00    +0.056 N 
ATOM     38  O   UNL     1       7.367   1.056   0.436  0.00  0.00    -0.126 OA
ATOM     39  O   UNL     1       8.447  -0.755   0.491  0.00  0.00    -0.126 OA
ENDBRANCH   3  37
TORSDOF 10
