REMARK  Name = ZINC07918137
REMARK  9 active torsions:
REMARK  status: ('A' for Active; 'I' for Inactive)
REMARK    1  A    between atoms: C_1  and  N_2
REMARK    2  A    between atoms: N_2  and  C_3
REMARK    3  A    between atoms: N_2  and  C_11
REMARK    4  A    between atoms: C_3  and  C_4
REMARK    5  A    between atoms: C_11  and  C_12
REMARK    6  A    between atoms: N_14  and  C_15
REMARK    7  A    between atoms: C_20  and  S_21
REMARK    8  A    between atoms: S_21  and  C_22
REMARK    9  A    between atoms: C_22  and  C_23
REMARK                            x       y       z     vdW  Elec       q    Type
REMARK                         _______ _______ _______ _____ _____    ______ ____
ROOT
ATOM      1  C   UNL     1       0.274  -0.091   2.386  0.00  0.00    +0.201 C 
ATOM      2  O   UNL     1      -0.672   0.669   2.394  0.00  0.00    -0.278 OA
ATOM      3  N   UNL     1       0.810  -0.511   3.549  0.00  0.00    -0.286 N 
ATOM      4  H   UNL     1       1.521  -1.171   3.544  0.00  0.00    +0.155 HD
ENDROOT
BRANCH   3   5
ATOM      5  C   UNL     1       0.340   0.004   4.764  0.00  0.00    +0.047 A 
ATOM      6  C   UNL     1      -0.998   0.339   4.906  0.00  0.00    +0.024 A 
ATOM      7  C   UNL     1      -1.460   0.847   6.106  0.00  0.00    +0.002 A 
ATOM      8  C   UNL     1      -0.591   1.023   7.168  0.00  0.00    +0.001 A 
ATOM      9  C   UNL     1       0.744   0.692   7.035  0.00  0.00    +0.016 A 
ATOM     10  C   UNL     1       1.215   0.176   5.836  0.00  0.00    +0.030 A 
BRANCH  10  11
ATOM     11  S   UNL     1       2.916  -0.253   5.667  0.00  0.00    -0.114 S 
BRANCH  11  12
ATOM     12  C   UNL     1       3.631   0.140   7.287  0.00  0.00    +0.169 C 
BRANCH  12  13
ATOM     13  C   UNL     1       5.103  -0.185   7.278  0.00  0.00    +0.221 C 
ATOM     14  O   UNL     1       5.618  -0.636   6.277  0.00  0.00    -0.275 OA
ATOM     15  N   UNL     1       5.846   0.027   8.382  0.00  0.00    -0.329 N 
ATOM     16  H   UNL     1       5.434   0.389   9.182  0.00  0.00    +0.145 HD
ATOM     17  H   UNL     1       6.794  -0.182   8.376  0.00  0.00    +0.145 HD
ENDBRANCH  12  13
ENDBRANCH  11  12
ENDBRANCH  10  11
ENDBRANCH   3   5
BRANCH   1  18
ATOM     18  C   UNL     1       0.850  -0.564   1.076  0.00  0.00    +0.019 C 
BRANCH  18  20
ATOM     19  C   UNL     1       0.286   1.489  -0.029  0.00  0.00    -0.095 C 
ATOM     20  N   UNL     1       0.095   0.033  -0.035  0.00  0.00    +0.386 N 
ATOM     21  H   UNL     1      -0.885  -0.178   0.073  0.00  0.00    -0.081 HD
BRANCH  20  22
ATOM     22  C   UNL     1       0.578  -0.520  -1.307  0.00  0.00    -0.041 C 
BRANCH  22  23
ATOM     23  C   UNL     1      -0.294  -0.024  -2.433  0.00  0.00    -0.046 A 
ATOM     24  C   UNL     1       0.175   0.952  -3.291  0.00  0.00    +0.003 A 
ATOM     25  C   UNL     1      -0.624   1.407  -4.324  0.00  0.00    +0.000 A 
ATOM     26  C   UNL     1      -1.892   0.885  -4.498  0.00  0.00    +0.001 A 
ATOM     27  C   UNL     1      -2.362  -0.091  -3.640  0.00  0.00    +0.020 A 
ATOM     28  C   UNL     1      -1.560  -0.551  -2.610  0.00  0.00    +0.042 A 
ATOM     29 CL   UNL     1      -2.147  -1.782  -1.536  0.00  0.00    -0.083 Cl
ENDBRANCH  22  23
ENDBRANCH  20  22
ENDBRANCH  18  20
ENDBRANCH   1  18
TORSDOF 8
