REMARK  Name = ZINC36217217
REMARK  10 active torsions:
REMARK  status: ('A' for Active; 'I' for Inactive)
REMARK    1  A    between atoms: C_1  and  C_2
REMARK    2  A    between atoms: C_6  and  C_8
REMARK    3  A    between atoms: C_8  and  N_9
REMARK    4  A    between atoms: C_10  and  C_31
REMARK    5  A    between atoms: C_12  and  C_17
REMARK    6  A    between atoms: C_20  and  N_23
REMARK    7  A    between atoms: C_24  and  C_26
REMARK    8  A    between atoms: N_33  and  C_34
REMARK    9  A    between atoms: N_33  and  C_35
REMARK   10  A    between atoms: C_35  and  C_36
REMARK                            x       y       z     vdW  Elec       q    Type
REMARK                         _______ _______ _______ _____ _____    ______ ____
ROOT
ATOM      1  N   UNL     1       0.208  -4.041   2.680  0.00  0.00    -0.248 N 
ATOM      2  C   UNL     1       1.246  -5.033   2.336  0.00  0.00    +0.211 C 
ATOM      3  C   UNL     1       2.205  -4.935   3.547  0.00  0.00    +0.238 C 
ATOM      4  O   UNL     1       1.940  -3.605   4.033  0.00  0.00    -0.440 OA
ATOM      5  C   UNL     1       0.689  -3.271   3.674  0.00  0.00    +0.405 C 
ATOM      6  O   UNL     1       0.058  -2.372   4.193  0.00  0.00    -0.226 OA
ENDROOT
BRANCH   3   7
ATOM      7  C   UNL     1       3.640  -5.072   3.109  0.00  0.00    -0.005 A 
ATOM      8  C   UNL     1       4.391  -3.942   2.841  0.00  0.00    +0.009 A 
ATOM      9  C   UNL     1       5.707  -4.064   2.439  0.00  0.00    +0.024 A 
ATOM     10  C   UNL     1       6.276  -5.324   2.305  0.00  0.00    +0.034 A 
ATOM     11  C   UNL     1       5.519  -6.457   2.575  0.00  0.00    +0.024 A 
ATOM     12  C   UNL     1       4.206  -6.328   2.981  0.00  0.00    +0.009 A 
BRANCH  10  13
ATOM     13  N   UNL     1       7.608  -5.452   1.898  0.00  0.00    -0.279 N 
ATOM     14  C   UNL     1       8.521  -4.540   2.287  0.00  0.00    +0.284 C 
ATOM     15  O   UNL     1       8.176  -3.573   2.939  0.00  0.00    -0.266 OA
ATOM     16  H   UNL     1       7.874  -6.196   1.336  0.00  0.00    +0.155 HD
BRANCH  14  17
ATOM     17  C   UNL     1       9.931  -4.715   1.923  0.00  0.00    +0.189 A 
ATOM     18  C   UNL     1      10.955  -3.874   2.255  0.00  0.00    +0.054 A 
ATOM     19  C   UNL     1      12.123  -4.424   1.705  0.00  0.00    +0.042 A 
ATOM     20  C   UNL     1      11.766  -5.562   1.070  0.00  0.00    +0.196 A 
ATOM     21  O   UNL     1      10.445  -5.736   1.208  0.00  0.00    -0.458 OA
ENDBRANCH  14  17
ENDBRANCH  10  13
ENDBRANCH   3   7
BRANCH   2  22
ATOM     22  C   UNL     1       1.948  -4.654   1.058  0.00  0.00    +0.240 C 
ATOM     23  O   UNL     1       2.326  -3.514   0.888  0.00  0.00    -0.273 OA
ATOM     24  N   UNL     1       2.157  -5.582   0.103  0.00  0.00    -0.299 N 
ATOM     25  C   UNL     1       1.680  -6.953   0.298  0.00  0.00    +0.132 C 
BRANCH  24  26
ATOM     26  C   UNL     1       2.862  -5.219  -1.129  0.00  0.00    +0.142 C 
BRANCH  26  27
ATOM     27  C   UNL     1       4.312  -5.615  -1.013  0.00  0.00    -0.030 A 
ATOM     28  C   UNL     1       5.255  -4.680  -0.631  0.00  0.00    +0.005 A 
ATOM     29  C   UNL     1       6.585  -5.043  -0.525  0.00  0.00    +0.000 A 
ATOM     30  C   UNL     1       6.971  -6.341  -0.801  0.00  0.00    +0.000 A 
ATOM     31  C   UNL     1       6.027  -7.276  -1.183  0.00  0.00    +0.000 A 
ATOM     32  C   UNL     1       4.697  -6.915  -1.285  0.00  0.00    +0.005 A 
ENDBRANCH  26  27
ENDBRANCH  24  26
ENDBRANCH   2  22
BRANCH   1  33
ATOM     33  C   UNL     1      -1.108  -3.914   2.048  0.00  0.00    +0.147 C 
BRANCH  33  39
ATOM     34  C   UNL     1      -1.369   0.717   0.169  0.00  0.00    +0.044 C 
ATOM     35  C   UNL     1      -1.138  -0.759  -0.026  0.00  0.00    -0.050 A 
ATOM     36  C   UNL     1      -0.838  -1.252  -1.282  0.00  0.00    +0.003 A 
ATOM     37  C   UNL     1      -0.625  -2.606  -1.461  0.00  0.00    +0.001 A 
ATOM     38  C   UNL     1      -0.713  -3.467  -0.383  0.00  0.00    +0.005 A 
ATOM     39  C   UNL     1      -1.012  -2.975   0.873  0.00  0.00    -0.030 A 
ATOM     40  C   UNL     1      -1.220  -1.620   1.053  0.00  0.00    +0.008 A 
ENDBRANCH  33  39
ENDBRANCH   1  33
TORSDOF 8
