REMARK  Name = ZINC18148425
REMARK  6 active torsions:
REMARK  status: ('A' for Active; 'I' for Inactive)
REMARK    1  A    between atoms: C_5  and  N_7
REMARK    2  A    between atoms: C_8  and  C_10
REMARK    3  A    between atoms: C_10  and  N_49
REMARK    4  A    between atoms: C_16  and  C_18
REMARK    5  A    between atoms: C_21  and  N_27
REMARK    6  A    between atoms: C_22  and  N_24
REMARK                            x       y       z     vdW  Elec       q    Type
REMARK                         _______ _______ _______ _____ _____    ______ ____
ROOT
ATOM      1  C   UNL     1       1.648   1.851   3.177  0.00  0.00    -0.059 C 
ATOM      2  C   UNL     1       1.711   1.121   1.831  0.00  0.00    +0.089 C 
ATOM      3  N   UNL     1       0.931   1.887   0.848  0.00  0.00    -0.301 N 
ATOM      4  C   UNL     1       1.212   3.323   0.702  0.00  0.00    +0.089 C 
ATOM      5  C   UNL     1       1.165   3.967   2.096  0.00  0.00    -0.059 C 
ATOM      6  C   UNL     1      -0.014   1.287   0.096  0.00  0.00    +0.247 C 
ATOM      7  O   UNL     1      -0.719   1.952  -0.639  0.00  0.00    -0.270 OA
ATOM      8  N   UNL     1       2.103   3.245   2.983  0.00  0.00    +0.387 N 
ATOM      9  H   UNL     1       3.032   3.234   2.546  0.00  0.00    -0.081 HD
ENDROOT
BRANCH   6  10
ATOM     10  C   UNL     1      -0.197  -0.175   0.169  0.00  0.00    +0.039 A 
ATOM     11  C   UNL     1       0.900  -1.007   0.412  0.00  0.00    +0.015 A 
ATOM     12  C   UNL     1       0.726  -2.370   0.485  0.00  0.00    +0.026 A 
ATOM     13  C   UNL     1      -0.540  -2.921   0.307  0.00  0.00    +0.055 A 
ATOM     14  C   UNL     1      -1.634  -2.096   0.059  0.00  0.00    +0.147 A 
ATOM     15  C   UNL     1      -1.466  -0.732  -0.009  0.00  0.00    +0.047 A 
BRANCH  14  16
ATOM     16  N   UNL     1      -2.978  -2.687  -0.130  0.00  0.00    +0.058 N 
ATOM     17  O   UNL     1      -3.912  -1.980  -0.463  0.00  0.00    -0.126 OA
ATOM     18  O   UNL     1      -3.150  -3.879   0.048  0.00  0.00    -0.126 OA
ENDBRANCH  14  16
BRANCH  13  19
ATOM     19  N   UNL     1      -0.713  -4.299   0.376  0.00  0.00    -0.356 N 
ATOM     20  H   UNL     1      -1.424  -4.725  -0.128  0.00  0.00    +0.142 HD
ATOM     21  H   UNL     1      -0.122  -4.835   0.928  0.00  0.00    +0.142 HD
ENDBRANCH  13  19
ENDBRANCH   6  10
BRANCH   8  22
ATOM     22  C   UNL     1       2.194   3.932   4.288  0.00  0.00    +0.019 C 
BRANCH  22  24
ATOM     23  N   UNL     1       0.711   4.566   6.163  0.00  0.00    -0.286 N 
ATOM     24  C   UNL     1       0.842   3.991   4.952  0.00  0.00    +0.201 C 
ATOM     25  O   UNL     1      -0.128   3.521   4.395  0.00  0.00    -0.278 OA
ATOM     26  H   UNL     1       1.470   5.010   6.574  0.00  0.00    +0.155 HD
BRANCH  23  31
ATOM     27  C   UNL     1      -2.914   4.407   6.761  0.00  0.00    +0.002 A 
ATOM     28  C   UNL     1      -2.954   4.441   8.143  0.00  0.00    +0.002 A 
ATOM     29  C   UNL     1      -1.780   4.518   8.870  0.00  0.00    +0.022 A 
ATOM     30  C   UNL     1      -0.562   4.559   8.217  0.00  0.00    +0.062 A 
ATOM     31  C   UNL     1      -0.520   4.524   6.829  0.00  0.00    +0.052 A 
ATOM     32  C   UNL     1      -1.701   4.454   6.102  0.00  0.00    +0.025 A 
ATOM     33 CL   UNL     1       0.911   4.656   9.130  0.00  0.00    -0.082 Cl
ENDBRANCH  23  31
ENDBRANCH  22  24
ENDBRANCH   8  22
TORSDOF 6
