REMARK  Name = ZINC63730282
REMARK  10 active torsions:
REMARK  status: ('A' for Active; 'I' for Inactive)
REMARK    1  A    between atoms: C_1  and  C_2
REMARK    2  A    between atoms: C_5  and  N_9
REMARK    3  A    between atoms: C_6  and  C_8
REMARK    4  A    between atoms: C_10  and  C_12
REMARK    5  A    between atoms: C_12  and  S_13
REMARK    6  A    between atoms: S_13  and  C_14
REMARK    7  A    between atoms: C_18  and  C_24
REMARK    8  A    between atoms: N_20  and  C_21
REMARK    9  A    between atoms: C_21  and  C_22
REMARK   10  A    between atoms: C_24  and  C_25
REMARK                            x       y       z     vdW  Elec       q    Type
REMARK                         _______ _______ _______ _____ _____    ______ ____
ROOT
ATOM      1  C   UNL     1      -0.359  -8.743  -2.723  0.00  0.00    +0.200 C 
ATOM      2  N   UNL     1       0.827  -9.253  -1.997  0.00  0.00    -0.229 NA
ATOM      3  N   UNL     1       0.386  -9.354  -0.597  0.00  0.00    -0.237 NA
ATOM      4  C   UNL     1      -1.020  -9.822  -0.721  0.00  0.00    +0.145 C 
ATOM      5  N   UNL     1      -1.539  -9.108  -1.911  0.00  0.00    -0.257 NA
ATOM      6  H   UNL     1       1.606  -8.618  -2.086  0.00  0.00    +0.143 HD
ATOM      7  H   UNL     1       0.428  -8.456  -0.139  0.00  0.00    +0.142 HD
ENDROOT
BRANCH   1   8
ATOM      8  S   UNL     1      -0.255  -6.941  -2.895  0.00  0.00    -0.116 S 
BRANCH   8   9
ATOM      9  C   UNL     1      -0.134  -6.343  -1.187  0.00  0.00    +0.168 C 
BRANCH   9  11
ATOM     10  N   UNL     1       0.059  -4.170  -0.021  0.00  0.00    -0.285 N 
ATOM     11  C   UNL     1      -0.040  -4.839  -1.187  0.00  0.00    +0.227 C 
ATOM     12  O   UNL     1      -0.054  -4.230  -2.236  0.00  0.00    -0.275 OA
ATOM     13  H   UNL     1       0.135  -4.658   0.814  0.00  0.00    +0.155 HD
BRANCH  10  18
ATOM     14  C   UNL     1       0.025   1.503   0.005  0.00  0.00    +0.044 C 
ATOM     15  C   UNL     1       0.034  -0.004  -0.002  0.00  0.00    -0.050 A 
ATOM     16  C   UNL     1       0.632  -0.685  -1.046  0.00  0.00    +0.005 A 
ATOM     17  C   UNL     1       0.641  -2.066  -1.055  0.00  0.00    +0.024 A 
ATOM     18  C   UNL     1       0.051  -2.771  -0.014  0.00  0.00    +0.036 A 
ATOM     19  C   UNL     1      -0.548  -2.083   1.033  0.00  0.00    -0.029 A 
ATOM     20  C   UNL     1      -0.550  -0.702   1.039  0.00  0.00    +0.008 A 
ATOM     21  C   UNL     1      -1.190  -2.843   2.165  0.00  0.00    +0.045 C 
ENDBRANCH  10  18
ENDBRANCH   9  11
ENDBRANCH   8   9
ENDBRANCH   1   8
BRANCH   5  22
ATOM     22  C   UNL     1      -2.462  -9.957  -2.675  0.00  0.00    +0.115 C 
BRANCH  22  23
ATOM     23  C   UNL     1      -3.115  -9.140  -3.761  0.00  0.00    -0.019 C 
ATOM     24  C   UNL     1      -3.044  -9.533  -5.008  0.00  0.00    +0.005 C 
ENDBRANCH  22  23
ENDBRANCH   5  22
BRANCH   4  25
ATOM     25  C   UNL     1      -1.822  -9.445   0.526  0.00  0.00    +0.069 C 
BRANCH  25  26
ATOM     26  C   UNL     1      -1.218 -10.115   1.734  0.00  0.00    -0.039 C 
ATOM     27  C   UNL     1      -0.323  -9.582   2.596  0.00  0.00    -0.001 A 
ATOM     28  C   UNL     1       0.333  -8.271   2.665  0.00  0.00    +0.010 A 
ATOM     29  C   UNL     1       1.204  -8.025   3.670  0.00  0.00    +0.001 A 
ATOM     30  C   UNL     1       1.497  -8.989   4.644  0.00  0.00    +0.002 A 
ATOM     31  C   UNL     1       0.935 -10.216   4.647  0.00  0.00    +0.026 A 
ATOM     32  C   UNL     1       0.003 -10.583   3.637  0.00  0.00    +0.043 A 
ATOM     33  N   UNL     1      -0.664 -11.691   3.427  0.00  0.00    -0.380 N 
ATOM     34  C   UNL     1      -1.495 -11.516   2.230  0.00  0.00    +0.144 C 
ATOM     35  H   UNL     1      -0.620 -12.491   3.973  0.00  0.00    +0.160 HD
ENDBRANCH  25  26
ENDBRANCH   4  25
TORSDOF 8
