REMARK  Name = ZINC65747310
REMARK  9 active torsions:
REMARK  status: ('A' for Active; 'I' for Inactive)
REMARK    1  A    between atoms: C_1  and  N_2
REMARK    2  A    between atoms: N_2  and  C_3
REMARK    3  A    between atoms: N_2  and  C_4
REMARK    4  A    between atoms: C_4  and  C_5
REMARK    5  A    between atoms: C_5  and  C_6
REMARK    6  A    between atoms: N_8  and  C_9
REMARK    7  A    between atoms: C_12  and  N_15
REMARK    8  A    between atoms: C_16  and  C_18
REMARK    9  A    between atoms: C_19  and  C_20
REMARK                            x       y       z     vdW  Elec       q    Type
REMARK                         _______ _______ _______ _____ _____    ______ ____
ROOT
ATOM      1  C   UNL     1      -4.341  -4.294  -0.272  0.00  0.00    +0.033 A 
ATOM      2  C   UNL     1      -5.372  -3.364  -0.248  0.00  0.00    +0.025 A 
ATOM      3  C   UNL     1      -6.684  -3.786  -0.330  0.00  0.00    +0.025 A 
ATOM      4  C   UNL     1      -6.973  -5.141  -0.434  0.00  0.00    +0.034 A 
ATOM      5  C   UNL     1      -5.941  -6.071  -0.458  0.00  0.00    +0.025 A 
ATOM      6  C   UNL     1      -4.629  -5.648  -0.382  0.00  0.00    +0.025 A 
ENDROOT
BRANCH   1   9
ATOM      7  C   UNL     1      -2.049  -4.517  -0.875  0.00  0.00    +0.215 C 
ATOM      8  O   UNL     1      -2.322  -5.523  -1.494  0.00  0.00    -0.276 OA
ATOM      9  N   UNL     1      -3.010  -3.866  -0.190  0.00  0.00    -0.286 N 
ATOM     10  H   UNL     1      -2.780  -3.100   0.359  0.00  0.00    +0.155 HD
BRANCH   7  11
ATOM     11  C   UNL     1      -0.635  -3.995  -0.871  0.00  0.00    +0.077 C 
BRANCH  11  12
ATOM     12  C   UNL     1       0.249  -4.912  -1.718  0.00  0.00    -0.070 C 
BRANCH  12  14
ATOM     13  C   UNL     1       2.500  -5.347  -2.426  0.00  0.00    -0.097 C 
ATOM     14  N   UNL     1       1.627  -4.404  -1.714  0.00  0.00    +0.376 N 
ATOM     15  C   UNL     1       1.669  -3.096  -2.383  0.00  0.00    -0.097 C 
ATOM     16  H   UNL     1       1.946  -4.304  -0.761  0.00  0.00    -0.083 HD
ENDBRANCH  12  14
ENDBRANCH  11  12
ENDBRANCH   7  11
ENDBRANCH   1   9
BRANCH   4  17
ATOM     17  N   UNL     1      -8.303  -5.569  -0.516  0.00  0.00    -0.282 N 
ATOM     18  C   UNL     1      -9.212  -4.822  -1.173  0.00  0.00    +0.241 C 
ATOM     19  O   UNL     1      -8.896  -3.736  -1.624  0.00  0.00    -0.270 OA
ATOM     20  H   UNL     1      -8.570  -6.403  -0.100  0.00  0.00    +0.155 HD
BRANCH  18  21
ATOM     21  C   UNL     1     -10.578  -5.316  -1.346  0.00  0.00    +0.068 C 
ATOM     22  C   UNL     1     -11.488  -4.569  -2.004  0.00  0.00    +0.016 C 
BRANCH  22  23
ATOM     23  C   UNL     1     -12.861  -5.066  -2.177  0.00  0.00    +0.010 A 
ATOM     24  C   UNL     1     -13.230  -6.311  -1.657  0.00  0.00    +0.011 A 
ATOM     25  C   UNL     1     -14.518  -6.770  -1.823  0.00  0.00    +0.001 A 
ATOM     26  C   UNL     1     -15.449  -6.003  -2.504  0.00  0.00    +0.003 A 
ATOM     27  C   UNL     1     -15.096  -4.771  -3.022  0.00  0.00    +0.039 A 
ATOM     28  C   UNL     1     -13.809  -4.293  -2.860  0.00  0.00    +0.131 A 
ATOM     29  F   UNL     1     -13.466  -3.087  -3.362  0.00  0.00    -0.205 F 
ENDBRANCH  22  23
ENDBRANCH  18  21
ENDBRANCH   4  17
TORSDOF 7
