REMARK  Name = ZINC35689095
REMARK  8 active torsions:
REMARK  status: ('A' for Active; 'I' for Inactive)
REMARK    1  A    between atoms: C_1  and  C_2
REMARK    2  A    between atoms: C_2  and  C_4
REMARK    3  A    between atoms: C_2  and  N_22
REMARK    4  A    between atoms: N_14  and  C_15
REMARK    5  A    between atoms: C_15  and  C_16
REMARK    6  A    between atoms: N_30  and  C_31
REMARK    7  A    between atoms: C_35  and  O_37
REMARK    8  A    between atoms: O_37  and  C_38
REMARK                            x       y       z     vdW  Elec       q    Type
REMARK                         _______ _______ _______ _____ _____    ______ ____
ROOT
ATOM      1  C   UNL     1       0.933   0.542   1.146  0.00  0.00    -0.005 C 
ATOM      2  C   UNL     1       1.500  -0.828   0.766  0.00  0.00    -0.004 C 
ENDROOT
BRANCH   2   3
ATOM      3  C   UNL     1       2.474  -1.279   1.823  0.00  0.00    +0.099 A 
ATOM      4  N   UNL     1       3.703  -0.867   1.745  0.00  0.00    -0.235 NA
ATOM      5  C   UNL     1       4.635  -1.231   2.661  0.00  0.00    +0.078 A 
ATOM      6  C   UNL     1       5.957  -0.787   2.578  0.00  0.00    +0.028 A 
ATOM      7  C   UNL     1       6.870  -1.182   3.529  0.00  0.00    +0.002 A 
ATOM      8  C   UNL     1       6.493  -2.018   4.573  0.00  0.00    +0.001 A 
ATOM      9  C   UNL     1       5.196  -2.469   4.676  0.00  0.00    +0.015 A 
ATOM     10  C   UNL     1       4.256  -2.081   3.723  0.00  0.00    +0.065 A 
ATOM     11  C   UNL     1       2.857  -2.530   3.783  0.00  0.00    +0.262 A 
ATOM     12  O   UNL     1       2.466  -3.263   4.672  0.00  0.00    -0.267 OA
ATOM     13  N   UNL     1       2.021  -2.092   2.813  0.00  0.00    -0.293 N 
BRANCH  13  14
ATOM     14  C   UNL     1       0.615  -2.504   2.826  0.00  0.00    +0.161 C 
BRANCH  14  15
ATOM     15  C   UNL     1       0.483  -3.862   2.186  0.00  0.00    -0.028 A 
ATOM     16  C   UNL     1       0.139  -3.967   0.852  0.00  0.00    +0.005 A 
ATOM     17  C   UNL     1       0.018  -5.212   0.264  0.00  0.00    +0.000 A 
ATOM     18  C   UNL     1       0.241  -6.353   1.012  0.00  0.00    +0.000 A 
ATOM     19  C   UNL     1       0.586  -6.249   2.346  0.00  0.00    +0.000 A 
ATOM     20  C   UNL     1       0.712  -5.003   2.932  0.00  0.00    +0.005 A 
ENDBRANCH  14  15
ENDBRANCH  13  14
ENDBRANCH   2   3
BRANCH   2  21
ATOM     21  N   UNL     1       2.191  -0.731  -0.527  0.00  0.00    +0.388 N 
ATOM     22  C   UNL     1       2.761  -2.038  -0.874  0.00  0.00    -0.059 C 
ATOM     23  C   UNL     1       3.578  -1.911  -2.164  0.00  0.00    +0.091 C 
ATOM     24  N   UNL     1       2.718  -1.328  -3.205  0.00  0.00    -0.289 N 
ATOM     25  C   UNL     1       1.976  -0.099  -2.884  0.00  0.00    +0.091 C 
ATOM     26  C   UNL     1       1.235  -0.312  -1.560  0.00  0.00    -0.059 C 
ATOM     27  C   UNL     1       2.613  -1.903  -4.420  0.00  0.00    +0.306 C 
ATOM     28  O   UNL     1       3.155  -2.970  -4.636  0.00  0.00    -0.252 OA
ATOM     29  N   UNL     1       1.907  -1.296  -5.394  0.00  0.00    -0.269 N 
ATOM     30  H   UNL     1       1.547  -0.407  -5.250  0.00  0.00    +0.156 HD
ATOM     31  H   UNL     1       2.932  -0.050  -0.460  0.00  0.00    -0.081 HD
BRANCH  29  32
ATOM     32  C   UNL     1       1.693  -1.948  -6.614  0.00  0.00    +0.038 A 
ATOM     33  C   UNL     1       1.536  -3.329  -6.646  0.00  0.00    +0.023 A 
ATOM     34  C   UNL     1       1.325  -3.973  -7.849  0.00  0.00    +0.005 A 
ATOM     35  C   UNL     1       1.269  -3.246  -9.024  0.00  0.00    +0.046 A 
ATOM     36  C   UNL     1       1.425  -1.868  -8.998  0.00  0.00    +0.122 A 
ATOM     37  C   UNL     1       1.631  -1.217  -7.791  0.00  0.00    +0.069 A 
BRANCH  36  38
ATOM     38  O   UNL     1       1.371  -1.155 -10.154  0.00  0.00    -0.495 OA
ATOM     39  C   UNL     1       1.150  -1.890 -11.359  0.00  0.00    +0.277 C 
ENDBRANCH  36  38
ENDBRANCH  29  32
ENDBRANCH   2  21
TORSDOF 6
