REMARK  Name = ZINC39421638
REMARK  8 active torsions:
REMARK  status: ('A' for Active; 'I' for Inactive)
REMARK    1  A    between atoms: C_1  and  N_2
REMARK    2  A    between atoms: C_3  and  C_27
REMARK    3  A    between atoms: C_7  and  S_9
REMARK    4  A    between atoms: S_9  and  C_10
REMARK    5  A    between atoms: C_10  and  C_11
REMARK    6  A    between atoms: C_19  and  C_23
REMARK    7  A    between atoms: C_23  and  O_25
REMARK    8  A    between atoms: O_25  and  C_26
REMARK                            x       y       z     vdW  Elec       q    Type
REMARK                         _______ _______ _______ _____ _____    ______ ____
ROOT
ATOM      1  C   UNL     1       0.688   1.963   2.757  0.00  0.00    +0.143 C 
ENDROOT
BRANCH   1   2
ATOM      2  C   UNL     1       1.500   3.097   3.326  0.00  0.00    +0.120 A 
ATOM      3  N   UNL     1       0.841   4.154   3.867  0.00  0.00    -0.310 N 
ATOM      4  H   UNL     1      -0.129   4.161   3.878  0.00  0.00    +0.170 HD
ATOM      5  C   UNL     1       1.524   5.198   4.392  0.00  0.00    +0.259 A 
ATOM      6  O   UNL     1       0.946   6.151   4.881  0.00  0.00    -0.267 OA
ATOM      7  C   UNL     1       2.995   5.135   4.349  0.00  0.00    +0.065 A 
ATOM      8  C   UNL     1       3.789   6.159   4.864  0.00  0.00    +0.016 A 
ATOM      9  C   UNL     1       5.150   6.059   4.803  0.00  0.00    +0.016 A 
ATOM     10  C   UNL     1       5.757   4.936   4.229  0.00  0.00    +0.061 A 
ATOM     11  C   UNL     1       4.984   3.904   3.710  0.00  0.00    +0.043 A 
ATOM     12  C   UNL     1       3.592   3.995   3.766  0.00  0.00    +0.079 A 
ATOM     13  N   UNL     1       2.795   3.011   3.279  0.00  0.00    -0.233 NA
BRANCH  10  14
ATOM     14  C   UNL     1       7.233   4.847   4.172  0.00  0.00    +0.339 C 
ATOM     15  O   UNL     1       7.764   3.875   3.675  0.00  0.00    -0.245 OA
BRANCH  14  16
ATOM     16  O   UNL     1       7.987   5.844   4.673  0.00  0.00    -0.464 OA
ATOM     17  C   UNL     1       9.406   5.691   4.585  0.00  0.00    +0.280 C 
ENDBRANCH  14  16
ENDBRANCH  10  14
ENDBRANCH   1   2
BRANCH   1  18
ATOM     18  S   UNL     1       1.802   0.686   2.110  0.00  0.00    -0.152 S 
BRANCH  18  24
ATOM     19  C   UNL     1       2.848  -1.572   1.044  0.00  0.00    -0.090 C 
ATOM     20  N   UNL     1       1.408  -1.831   1.175  0.00  0.00    +0.409 N 
ATOM     21  C   UNL     1       0.874  -2.381  -0.089  0.00  0.00    +0.049 C 
ATOM     22  N   UNL     1      -0.153  -1.426  -0.562  0.00  0.00    -0.267 NA
ATOM     23  N   UNL     1       0.213  -0.148   0.069  0.00  0.00    -0.262 NA
ATOM     24  C   UNL     1       0.683  -0.562   1.417  0.00  0.00    +0.077 C 
ATOM     25  H   UNL     1      -0.139  -1.349  -1.569  0.00  0.00    +0.139 HD
ATOM     26  H   UNL     1       0.949   0.311  -0.446  0.00  0.00    +0.140 HD
ATOM     27  H   UNL     1       1.239  -2.476   1.933  0.00  0.00    -0.076 HD
BRANCH  21  28
ATOM     28  C   UNL     1       0.252  -3.731   0.157  0.00  0.00    -0.046 A 
ATOM     29  C   UNL     1       0.732  -4.539   1.171  0.00  0.00    +0.003 A 
ATOM     30  C   UNL     1       0.162  -5.778   1.396  0.00  0.00    +0.000 A 
ATOM     31  C   UNL     1      -0.890  -6.208   0.608  0.00  0.00    +0.000 A 
ATOM     32  C   UNL     1      -1.371  -5.400  -0.405  0.00  0.00    +0.000 A 
ATOM     33  C   UNL     1      -0.802  -4.159  -0.627  0.00  0.00    +0.003 A 
ENDBRANCH  21  28
ENDBRANCH  18  24
ENDBRANCH   1  18
TORSDOF 6
