REMARK  Name = ZINC35577641
REMARK  6 active torsions:
REMARK  status: ('A' for Active; 'I' for Inactive)
REMARK    1  A    between atoms: C_4  and  C_7
REMARK    2  A    between atoms: C_7  and  N_8
REMARK    3  A    between atoms: C_9  and  N_32
REMARK    4  A    between atoms: C_11  and  C_25
REMARK    5  A    between atoms: N_17  and  C_18
REMARK    6  A    between atoms: C_18  and  C_19
REMARK                            x       y       z     vdW  Elec       q    Type
REMARK                         _______ _______ _______ _____ _____    ______ ____
ROOT
ATOM      1  N   UNL     1       3.711  -0.675   1.637  0.00  0.00    -0.267 N 
ATOM      2  C   UNL     1       3.575  -1.873   2.232  0.00  0.00    +0.124 A 
ATOM      3  C   UNL     1       4.505  -1.936   3.263  0.00  0.00    +0.084 A 
ATOM      4  C   UNL     1       4.869  -2.889   4.240  0.00  0.00    +0.091 A 
ATOM      5  N   UNL     1       5.842  -2.579   5.088  0.00  0.00    -0.214 NA
ATOM      6  C   UNL     1       6.475  -1.411   5.042  0.00  0.00    +0.218 A 
ATOM      7  N   UNL     1       6.200  -0.467   4.165  0.00  0.00    -0.195 NA
ATOM      8  C   UNL     1       5.232  -0.654   3.247  0.00  0.00    +0.162 A 
ATOM      9  N   UNL     1       4.728   0.056   2.262  0.00  0.00    -0.279 N 
ATOM     10  N   UNL     1       7.477  -1.173   5.966  0.00  0.00    -0.308 N 
ATOM     11  H   UNL     1       7.701  -1.850   6.624  0.00  0.00    +0.149 HD
ATOM     12  H   UNL     1       5.015   0.947   2.009  0.00  0.00    +0.189 HD
ENDROOT
BRANCH   4  13
ATOM     13  C   UNL     1       4.183  -4.198   4.318  0.00  0.00    +0.036 A 
ATOM     14  C   UNL     1       4.148  -5.038   3.204  0.00  0.00    +0.013 A 
ATOM     15  C   UNL     1       3.507  -6.256   3.282  0.00  0.00    +0.001 A 
ATOM     16  C   UNL     1       2.898  -6.648   4.461  0.00  0.00    +0.003 A 
ATOM     17  C   UNL     1       2.927  -5.822   5.570  0.00  0.00    +0.039 A 
ATOM     18  C   UNL     1       3.571  -4.601   5.508  0.00  0.00    +0.133 A 
ATOM     19  F   UNL     1       3.604  -3.796   6.593  0.00  0.00    -0.205 F 
ENDBRANCH   4  13
BRANCH   2  20
ATOM     20  N   UNL     1       2.674  -2.861   1.882  0.00  0.00    -0.343 N 
ATOM     21  H   UNL     1       2.149  -2.774   1.071  0.00  0.00    +0.144 HD
ATOM     22  H   UNL     1       2.568  -3.642   2.447  0.00  0.00    +0.144 HD
ENDBRANCH   2  20
BRANCH   1  23
ATOM     23  C   UNL     1       2.916  -0.206   0.499  0.00  0.00    +0.178 C 
BRANCH  23  27
ATOM     24  C   UNL     1      -0.722   1.526   1.918  0.00  0.00    +0.000 A 
ATOM     25  C   UNL     1       0.402   2.314   1.756  0.00  0.00    +0.000 A 
ATOM     26  C   UNL     1       1.579   1.754   1.297  0.00  0.00    +0.005 A 
ATOM     27  C   UNL     1       1.633   0.405   1.000  0.00  0.00    -0.026 A 
ATOM     28  C   UNL     1       0.509  -0.384   1.163  0.00  0.00    +0.005 A 
ATOM     29  C   UNL     1      -0.668   0.177   1.621  0.00  0.00    +0.000 A 
ENDBRANCH  23  27
ENDBRANCH   1  23
BRANCH  10  30
ATOM     30  C   UNL     1       8.200   0.101   5.951  0.00  0.00    +0.160 C 
BRANCH  30  31
ATOM     31  C   UNL     1       9.231   0.106   7.050  0.00  0.00    +0.058 A 
ATOM     32  C   UNL     1      10.535  -0.256   6.765  0.00  0.00    +0.025 A 
ATOM     33  C   UNL     1      11.476  -0.248   7.783  0.00  0.00    +0.003 A 
ATOM     34  C   UNL     1      11.069   0.126   9.055  0.00  0.00    +0.020 A 
ATOM     35  C   UNL     1       9.748   0.475   9.264  0.00  0.00    +0.111 A 
ATOM     36  N   UNL     1       8.881   0.461   8.270  0.00  0.00    -0.258 NA
ENDBRANCH  30  31
ENDBRANCH  10  30
TORSDOF 6
