REMARK  Name = ZINC02181807
REMARK  10 active torsions:
REMARK  status: ('A' for Active; 'I' for Inactive)
REMARK    1  A    between atoms: C_2  and  C_3
REMARK    2  A    between atoms: C_3  and  O_4
REMARK    3  A    between atoms: O_4  and  C_5
REMARK    4  A    between atoms: C_10  and  C_11
REMARK    5  A    between atoms: C_11  and  N_45
REMARK    6  A    between atoms: C_12  and  C_13
REMARK    7  A    between atoms: C_12  and  N_45
REMARK    8  A    between atoms: C_13  and  C_14
REMARK    9  A    between atoms: C_17  and  S_20
REMARK   10  A    between atoms: S_20  and  N_23
REMARK                            x       y       z     vdW  Elec       q    Type
REMARK                         _______ _______ _______ _____ _____    ______ ____
ROOT
ATOM      1  C   UNL     1      -4.109   1.196  -1.354  0.00  0.00    -0.077 C 
ENDROOT
BRANCH   1   2
ATOM      2  N   UNL     1      -2.823   0.473  -1.340  0.00  0.00    +0.382 N 
ATOM      3  H   UNL     1      -2.886  -0.342  -1.962  0.00  0.00    -0.085 HD
ATOM      4  H   UNL     1      -2.079   1.099  -1.671  0.00  0.00    -0.085 HD
BRANCH   2   5
ATOM      5  C   UNL     1      -2.505   0.019   0.026  0.00  0.00    -0.043 C 
BRANCH   5  11
ATOM      6  C   UNL     1       0.002  -0.004   0.002  0.00  0.00    +0.122 A 
ATOM      7  C   UNL     1       1.212  -0.682  -0.019  0.00  0.00    +0.046 A 
ATOM      8  C   UNL     1       1.228  -2.064  -0.021  0.00  0.00    +0.004 A 
ATOM      9  C   UNL     1       0.040  -2.770  -0.013  0.00  0.00    +0.000 A 
ATOM     10  C   UNL     1      -1.167  -2.096   0.002  0.00  0.00    +0.005 A 
ATOM     11  C   UNL     1      -1.189  -0.715   0.010  0.00  0.00    -0.023 A 
BRANCH   6  12
ATOM     12  O   UNL     1      -0.016   1.355   0.009  0.00  0.00    -0.488 OA
BRANCH  12  13
ATOM     13  C   UNL     1       1.248   2.021   0.001  0.00  0.00    +0.256 C 
BRANCH  13  15
ATOM     14  C   UNL     1       1.737   4.272   0.811  0.00  0.00    +0.007 C 
ATOM     15  C   UNL     1       1.030   3.512   0.011  0.00  0.00    +0.006 C 
ENDBRANCH  13  15
ENDBRANCH  12  13
ENDBRANCH   6  12
ENDBRANCH   5  11
ENDBRANCH   2   5
ENDBRANCH   1   2
BRANCH   1  16
ATOM     16  C   UNL     1      -4.411   1.654  -2.782  0.00  0.00    +0.016 C 
BRANCH  16  17
ATOM     17  C   UNL     1      -5.724   2.394  -2.804  0.00  0.00    -0.049 A 
ATOM     18  C   UNL     1      -6.901   1.706  -3.029  0.00  0.00    +0.005 A 
ATOM     19  C   UNL     1      -8.106   2.384  -3.045  0.00  0.00    +0.029 A 
ATOM     20  C   UNL     1      -8.132   3.751  -2.846  0.00  0.00    +0.105 A 
ATOM     21  C   UNL     1      -6.954   4.441  -2.627  0.00  0.00    +0.029 A 
ATOM     22  C   UNL     1      -5.750   3.762  -2.607  0.00  0.00    +0.005 A 
BRANCH  20  23
ATOM     23  S   UNL     1      -9.667   4.616  -2.872  0.00  0.00    +0.056 S 
ATOM     24  O   UNL     1     -10.674   3.666  -2.553  0.00  0.00    -0.153 OA
ATOM     25  O   UNL     1      -9.476   5.806  -2.118  0.00  0.00    -0.153 OA
BRANCH  23  26
ATOM     26  N   UNL     1      -9.939   5.086  -4.436  0.00  0.00    -0.204 NA
ATOM     27  H   UNL     1      -9.295   4.866  -5.127  0.00  0.00    +0.144 HD
ATOM     28  H   UNL     1     -10.742   5.582  -4.661  0.00  0.00    +0.144 HD
ENDBRANCH  23  26
ENDBRANCH  20  23
ENDBRANCH  16  17
ENDBRANCH   1  16
TORSDOF 10
