REMARK  Name = ZINC05022535
REMARK  11 active torsions:
REMARK  status: ('A' for Active; 'I' for Inactive)
REMARK    1  A    between atoms: C_1  and  C_2
REMARK    2  A    between atoms: C_17  and  C_31
REMARK    3  A    between atoms: C_22  and  C_23
REMARK    4  A    between atoms: C_22  and  O_30
REMARK    5  A    between atoms: C_23  and  N_71
REMARK    6  A    between atoms: C_24  and  C_25
REMARK    7  A    between atoms: C_24  and  N_71
REMARK    8  A    between atoms: C_25  and  O_26
REMARK    9  A    between atoms: C_27  and  C_28
REMARK   10  A    between atoms: C_27  and  N_71
REMARK   11  A    between atoms: C_28  and  O_29
REMARK                            x       y       z     vdW  Elec       q    Type
REMARK                         _______ _______ _______ _____ _____    ______ ____
ROOT
ATOM      1  C   UNL     1       4.107   3.187   1.988  0.00  0.00    +0.012 C 
ATOM      2  C   UNL     1       2.880   3.780   2.685  0.00  0.00    -0.026 C 
ATOM      3  C   UNL     1       3.055   3.661   4.192  0.00  0.00    +0.007 C 
ATOM      4  C   UNL     1       4.297   4.447   4.626  0.00  0.00    +0.001 C 
ATOM      5  C   UNL     1       4.218   5.905   4.187  0.00  0.00    +0.000 C 
ATOM      6  C   UNL     1       3.995   6.019   2.673  0.00  0.00    +0.004 C 
ATOM      7  C   UNL     1       2.728   5.258   2.318  0.00  0.00    -0.005 C 
ATOM      8  C   UNL     1       2.310   5.396   0.861  0.00  0.00    +0.004 C 
ATOM      9  C   UNL     1       0.843   4.939   0.746  0.00  0.00    +0.004 C 
ATOM     10  C   UNL     1       0.521   4.016   1.914  0.00  0.00    -0.004 C 
ATOM     11  C   UNL     1       1.658   3.028   2.161  0.00  0.00    -0.001 C 
ATOM     12  C   UNL     1       1.211   1.934   3.120  0.00  0.00    +0.005 C 
ATOM     13  C   UNL     1       0.110   1.061   2.498  0.00  0.00    +0.010 C 
ATOM     14  C   UNL     1      -0.659   1.816   1.450  0.00  0.00    -0.002 C 
ATOM     15  C   UNL     1      -0.799   3.311   1.798  0.00  0.00    +0.001 C 
ATOM     16  C   UNL     1      -1.750   3.812   0.700  0.00  0.00    +0.007 C 
ATOM     17  C   UNL     1      -2.741   2.633   0.507  0.00  0.00    +0.034 C 
ATOM     18  C   UNL     1      -2.135   1.419   1.260  0.00  0.00    +0.057 C 
ATOM     19  C   UNL     1       0.004   1.620   0.074  0.00  0.00    +0.014 C 
ENDROOT
BRANCH  18  20
ATOM     20  O   UNL     1      -2.217   0.245   0.453  0.00  0.00    -0.390 OA
ATOM     21  H   UNL     1      -3.111   0.043   0.141  0.00  0.00    +0.210 HD
ENDBRANCH  18  20
BRANCH  18  22
ATOM     22  C   UNL     1      -2.854   1.217   2.587  0.00  0.00    -0.043 C 
BRANCH  22  23
ATOM     23  N   UNL     1      -4.250   0.818   2.311  0.00  0.00    +0.384 N 
ATOM     24  H   UNL     1      -4.579   1.313   1.474  0.00  0.00    -0.082 HD
BRANCH  23  25
ATOM     25  C   UNL     1      -4.321  -0.638   2.067  0.00  0.00    -0.050 C 
BRANCH  25  26
ATOM     26  C   UNL     1      -3.866  -1.413   3.305  0.00  0.00    +0.137 C 
BRANCH  26  27
ATOM     27  O   UNL     1      -4.848  -1.282   4.336  0.00  0.00    -0.397 OA
ATOM     28  H   UNL     1      -4.625  -1.749   5.153  0.00  0.00    +0.209 HD
ENDBRANCH  26  27
ENDBRANCH  25  26
ENDBRANCH  23  25
BRANCH  23  29
ATOM     29  C   UNL     1      -5.115   1.180   3.454  0.00  0.00    -0.050 C 
BRANCH  29  30
ATOM     30  C   UNL     1      -6.577   0.973   3.052  0.00  0.00    +0.137 C 
BRANCH  30  31
ATOM     31  O   UNL     1      -6.842  -0.425   2.924  0.00  0.00    -0.397 OA
ATOM     32  H   UNL     1      -7.729  -0.629   2.597  0.00  0.00    +0.209 HD
ENDBRANCH  30  31
ENDBRANCH  29  30
ENDBRANCH  23  29
ENDBRANCH  22  23
ENDBRANCH  18  22
TORSDOF 9
