REMARK  Name = ZINC04202856
REMARK  12 active torsions:
REMARK  status: ('A' for Active; 'I' for Inactive)
REMARK    1  A    between atoms: C_1  and  C_2
REMARK    2  A    between atoms: C_2  and  O_3
REMARK    3  A    between atoms: O_3  and  C_4
REMARK    4  A    between atoms: C_4  and  C_6
REMARK    5  A    between atoms: C_7  and  C_16
REMARK    6  A    between atoms: C_16  and  C_18
REMARK    7  A    between atoms: C_16  and  N_67
REMARK    8  A    between atoms: C_30  and  O_32
REMARK    9  A    between atoms: O_32  and  C_33
REMARK   10  A    between atoms: C_33  and  C_34
REMARK   11  A    between atoms: C_33  and  C_35
REMARK   12  A    between atoms: C_33  and  C_36
REMARK                            x       y       z     vdW  Elec       q    Type
REMARK                         _______ _______ _______ _____ _____    ______ ____
ROOT
ATOM      1  C   UNL     1       0.119   0.076  -0.565  0.00  0.00    -0.002 C 
ENDROOT
BRANCH   1   3
ATOM      2  C   UNL     1       1.282   2.289  -0.032  0.00  0.00    +0.127 A 
ATOM      3  C   UNL     1       0.167   1.558  -0.295  0.00  0.00    -0.017 A 
ATOM      4  C   UNL     1      -0.942   2.437  -0.265  0.00  0.00    +0.002 A 
ATOM      5  C   UNL     1      -2.318   2.257  -0.454  0.00  0.00    +0.010 A 
ATOM      6  C   UNL     1      -3.162   3.325  -0.360  0.00  0.00    +0.001 A 
ATOM      7  C   UNL     1      -2.670   4.593  -0.077  0.00  0.00    +0.002 A 
ATOM      8  C   UNL     1      -1.321   4.796   0.113  0.00  0.00    +0.026 A 
ATOM      9  C   UNL     1      -0.440   3.722   0.022  0.00  0.00    +0.047 A 
ATOM     10  N   UNL     1       0.923   3.610   0.158  0.00  0.00    -0.349 N 
ATOM     11  H   UNL     1       1.533   4.338   0.357  0.00  0.00    +0.166 HD
BRANCH   2  12
ATOM     12  C   UNL     1       2.651   1.760   0.037  0.00  0.00    +0.356 C 
ATOM     13  O   UNL     1       2.844   0.562  -0.034  0.00  0.00    -0.243 OA
BRANCH  12  14
ATOM     14  O   UNL     1       3.694   2.603   0.179  0.00  0.00    -0.460 OA
BRANCH  14  16
ATOM     15  C   UNL     1       6.064   3.115   0.401  0.00  0.00    +0.048 C 
ATOM     16  C   UNL     1       5.018   2.010   0.240  0.00  0.00    +0.229 C 
ENDBRANCH  14  16
ENDBRANCH  12  14
ENDBRANCH   2  12
ENDBRANCH   1   3
BRANCH   1  24
ATOM     17  C   UNL     1      -0.594  -0.253   1.726  0.00  0.00    -0.058 C 
ATOM     18  C   UNL     1      -1.748  -0.765   2.594  0.00  0.00    +0.092 C 
ATOM     19  N   UNL     1      -1.966  -2.188   2.290  0.00  0.00    -0.271 N 
ATOM     20  C   UNL     1      -2.121  -2.582   0.881  0.00  0.00    +0.092 C 
ATOM     21  C   UNL     1      -0.952  -1.998   0.081  0.00  0.00    -0.058 C 
ATOM     22  C   UNL     1      -2.021  -3.106   3.275  0.00  0.00    +0.403 C 
ATOM     23  O   UNL     1      -2.200  -4.277   3.005  0.00  0.00    -0.226 OA
ATOM     24  N   UNL     1      -0.904  -0.537   0.308  0.00  0.00    +0.389 N 
ATOM     25  H   UNL     1      -1.821  -0.135   0.081  0.00  0.00    -0.080 HD
BRANCH  22  26
ATOM     26  O   UNL     1      -1.876  -2.725   4.558  0.00  0.00    -0.445 OA
BRANCH  26  27
ATOM     27  C   UNL     1      -1.946  -3.767   5.567  0.00  0.00    +0.107 C 
ATOM     28  C   UNL     1      -0.841  -4.795   5.316  0.00  0.00    +0.055 C 
ATOM     29  C   UNL     1      -1.762  -3.148   6.954  0.00  0.00    +0.055 C 
ATOM     30  C   UNL     1      -3.310  -4.457   5.494  0.00  0.00    +0.055 C 
ENDBRANCH  26  27
ENDBRANCH  22  26
ENDBRANCH   1  24
BRANCH   1  31
ATOM     31  C   UNL     1      -0.263  -0.161  -2.003  0.00  0.00    -0.038 A 
ATOM     32  C   UNL     1      -1.581  -0.412  -2.337  0.00  0.00    +0.004 A 
ATOM     33  C   UNL     1      -1.931  -0.625  -3.657  0.00  0.00    +0.000 A 
ATOM     34  C   UNL     1      -0.962  -0.597  -4.643  0.00  0.00    +0.001 A 
ATOM     35  C   UNL     1       0.356  -0.352  -4.310  0.00  0.00    +0.020 A 
ATOM     36  C   UNL     1       0.707  -0.134  -2.989  0.00  0.00    +0.043 A 
ATOM     37 CL   UNL     1       2.363   0.174  -2.570  0.00  0.00    -0.083 Cl
ENDBRANCH   1  31
TORSDOF 8
