REMARK  Name = ZINC64055486
REMARK  9 active torsions:
REMARK  status: ('A' for Active; 'I' for Inactive)
REMARK    1  A    between atoms: C_1  and  C_2
REMARK    2  A    between atoms: C_6  and  N_8
REMARK    3  A    between atoms: C_9  and  S_23
REMARK    4  A    between atoms: C_13  and  C_14
REMARK    5  A    between atoms: S_23  and  C_24
REMARK    6  A    between atoms: C_24  and  C_26
REMARK    7  A    between atoms: C_24  and  C_29
REMARK    8  A    between atoms: C_26  and  C_27
REMARK    9  A    between atoms: C_26  and  C_28
REMARK                            x       y       z     vdW  Elec       q    Type
REMARK                         _______ _______ _______ _____ _____    ______ ____
ROOT
ATOM      1  N   UNL     1      -0.558  -2.257   3.228  0.00  0.00    -0.254 N 
ATOM      2  C   UNL     1      -0.576  -3.537   3.955  0.00  0.00    +0.242 C 
ATOM      3  N   UNL     1      -1.120  -3.195   5.279  0.00  0.00    -0.237 N 
ATOM      4  N   UNL     1      -1.377  -1.819   5.260  0.00  0.00    -0.169 NA
ATOM      5  C   UNL     1      -1.055  -1.292   4.108  0.00  0.00    +0.151 C 
ATOM      6  H   UNL     1      -1.271  -3.803   6.019  0.00  0.00    +0.171 HD
ENDROOT
BRANCH   5   7
ATOM      7  C   UNL     1      -1.193   0.069   3.794  0.00  0.00    +0.022 C 
ATOM      8  C   UNL     1      -1.699   1.077   4.616  0.00  0.00    +0.006 A 
ATOM      9  C   UNL     1      -2.202   1.070   5.934  0.00  0.00    +0.010 A 
ATOM     10  C   UNL     1      -2.636   2.227   6.496  0.00  0.00    +0.001 A 
ATOM     11  C   UNL     1      -2.600   3.437   5.800  0.00  0.00    +0.002 A 
ATOM     12  C   UNL     1      -2.131   3.517   4.530  0.00  0.00    +0.026 A 
ATOM     13  C   UNL     1      -1.659   2.350   3.877  0.00  0.00    +0.043 A 
ATOM     14  N   UNL     1      -1.162   2.166   2.670  0.00  0.00    -0.380 N 
ATOM     15  C   UNL     1      -0.819   0.751   2.497  0.00  0.00    +0.152 C 
ATOM     16  H   UNL     1      -1.038   2.859   2.002  0.00  0.00    +0.160 HD
ENDBRANCH   5   7
BRANCH   1  22
ATOM     17  C   UNL     1       2.998  -2.561  -0.151  0.00  0.00    +0.044 C 
ATOM     18  C   UNL     1       1.595  -2.185   0.251  0.00  0.00    -0.049 A 
ATOM     19  C   UNL     1       0.735  -1.631  -0.680  0.00  0.00    +0.003 A 
ATOM     20  C   UNL     1      -0.553  -1.284  -0.316  0.00  0.00    +0.002 A 
ATOM     21  C   UNL     1      -0.985  -1.491   0.979  0.00  0.00    +0.023 A 
ATOM     22  C   UNL     1      -0.124  -2.047   1.917  0.00  0.00    +0.038 A 
ATOM     23  C   UNL     1       1.168  -2.399   1.546  0.00  0.00    +0.027 A 
ENDBRANCH   1  22
BRANCH   2  24
ATOM     24  S   UNL     1      -1.651  -4.730   3.112  0.00  0.00    -0.105 S 
BRANCH  24  25
ATOM     25  C   UNL     1      -3.291  -3.956   3.165  0.00  0.00    +0.138 C 
BRANCH  25  26
ATOM     26  C   UNL     1      -3.774  -3.898   4.591  0.00  0.00    +0.234 C 
ATOM     27  O   UNL     1      -3.021  -4.183   5.498  0.00  0.00    -0.274 OA
ATOM     28  N   UNL     1      -5.042  -3.528   4.859  0.00  0.00    -0.239 N 
ATOM     29  C   UNL     1      -5.473  -3.476   6.135  0.00  0.00    +0.303 C 
ATOM     30  O   UNL     1      -4.719  -3.762   7.043  0.00  0.00    -0.253 OA
ATOM     31  N   UNL     1      -6.742  -3.107   6.402  0.00  0.00    -0.313 N 
ATOM     32  H   UNL     1      -5.644  -3.300   4.133  0.00  0.00    +0.159 HD
ATOM     33  H   UNL     1      -7.344  -2.879   5.677  0.00  0.00    +0.146 HD
ATOM     34  H   UNL     1      -7.052  -3.069   7.320  0.00  0.00    +0.146 HD
ENDBRANCH  25  26
BRANCH  25  35
ATOM     35  C   UNL     1      -3.204  -2.538   2.597  0.00  0.00    +0.005 C 
ATOM     36  C   UNL     1      -3.549  -2.563   1.107  0.00  0.00    +0.009 C 
ATOM     37  C   UNL     1      -4.192  -1.632   3.334  0.00  0.00    +0.009 C 
ENDBRANCH  25  35
ENDBRANCH  24  25
ENDBRANCH   2  24
TORSDOF 6
