REMARK  Name = ZINC55749535
REMARK  11 active torsions:
REMARK  status: ('A' for Active; 'I' for Inactive)
REMARK    1  A    between atoms: C_1  and  C_2
REMARK    2  A    between atoms: C_5  and  C_33
REMARK    3  A    between atoms: N_8  and  C_10
REMARK    4  A    between atoms: C_10  and  C_11
REMARK    5  A    between atoms: C_11  and  C_13
REMARK    6  A    between atoms: C_11  and  N_14
REMARK    7  A    between atoms: C_15  and  C_17
REMARK    8  A    between atoms: C_17  and  C_18
REMARK    9  A    between atoms: C_18  and  C_19
REMARK   10  A    between atoms: C_19  and  C_20
REMARK   11  A    between atoms: C_20  and  C_21
REMARK                            x       y       z     vdW  Elec       q    Type
REMARK                         _______ _______ _______ _____ _____    ______ ____
ROOT
ATOM      1  N   UNL     1       2.109   1.674   3.488  0.00  0.00    -0.315 N 
ATOM      2  C   UNL     1       1.173   2.414   4.115  0.00  0.00    +0.213 C 
ATOM      3  O   UNL     1       0.353   1.876   4.829  0.00  0.00    -0.276 OA
ATOM      4  H   UNL     1       2.765   2.105   2.918  0.00  0.00    +0.149 HD
ENDROOT
BRANCH   1   5
ATOM      5  C   UNL     1       2.136   0.221   3.668  0.00  0.00    +0.053 C 
ATOM      6  C   UNL     1       2.924  -0.122   4.934  0.00  0.00    +0.026 C 
BRANCH   5   7
ATOM      7  C   UNL     1       2.808  -0.431   2.458  0.00  0.00    -0.057 C 
BRANCH   7  13
ATOM      8  C   UNL     1      -0.019   1.526   0.010  0.00  0.00    +0.005 C 
ATOM      9  C   UNL     1       0.002  -0.004   0.002  0.00  0.00    -0.031 C 
ATOM     10  C   UNL     1       0.721  -0.499  -1.257  0.00  0.00    +0.003 C 
ATOM     11  C   UNL     1       2.177  -0.027  -1.220  0.00  0.00    -0.031 C 
ATOM     12  C   UNL     1       2.839  -0.534   0.063  0.00  0.00    -0.076 C 
ATOM     13  N   UNL     1       2.123  -0.005   1.230  0.00  0.00    +0.381 N 
ATOM     14  C   UNL     1       0.744  -0.512   1.240  0.00  0.00    -0.076 C 
ATOM     15  C   UNL     1       2.924  -0.581  -2.434  0.00  0.00    +0.005 C 
ATOM     16  H   UNL     1       2.109   1.003   1.187  0.00  0.00    -0.082 HD
ENDBRANCH   7  13
ENDBRANCH   5   7
ENDBRANCH   1   5
BRANCH   2  17
ATOM     17  C   UNL     1       1.145   3.909   3.930  0.00  0.00    +0.096 C 
BRANCH  17  18
ATOM     18  C   UNL     1      -0.006   4.503   4.745  0.00  0.00    +0.009 C 
BRANCH  18  19
ATOM     19  C   UNL     1      -0.034   6.021   4.557  0.00  0.00    +0.002 C 
BRANCH  19  20
ATOM     20  C   UNL     1      -1.185   6.614   5.372  0.00  0.00    +0.016 C 
BRANCH  20  21
ATOM     21  C   UNL     1      -1.214   8.132   5.184  0.00  0.00    +0.069 C 
ATOM     22  C   UNL     1      -2.390   8.765   5.957  0.00  0.00    +0.108 C 
ATOM     23  C   UNL     1      -2.036  10.089   6.641  0.00  0.00    +0.105 C 
ATOM     24  C   UNL     1      -0.570  10.523   6.429  0.00  0.00    +0.093 C 
ATOM     25  S   UNL     1       0.234   8.929   6.005  0.00  0.00    -0.154 S 
ATOM     26  N   UNL     1      -2.247   9.819   8.072  0.00  0.00    -0.294 N 
ATOM     27  C   UNL     1      -2.657   8.552   8.222  0.00  0.00    +0.300 C 
ATOM     28  O   UNL     1      -2.908   8.060   9.305  0.00  0.00    -0.253 OA
ATOM     29  N   UNL     1      -2.760   7.883   7.075  0.00  0.00    -0.294 N 
ATOM     30  H   UNL     1      -2.111  10.456   8.791  0.00  0.00    +0.151 HD
ATOM     31  H   UNL     1      -3.039   6.957   6.994  0.00  0.00    +0.151 HD
ENDBRANCH  20  21
ENDBRANCH  19  20
ENDBRANCH  18  19
ENDBRANCH  17  18
ENDBRANCH   2  17
TORSDOF 8
