REMARK  Name = ZINC67633240
REMARK  12 active torsions:
REMARK  status: ('A' for Active; 'I' for Inactive)
REMARK    1  A    between atoms: C_1  and  C_2
REMARK    2  A    between atoms: C_7  and  C_8
REMARK    3  A    between atoms: N_10  and  C_11
REMARK    4  A    between atoms: C_11  and  C_13
REMARK    5  A    between atoms: C_11  and  C_16
REMARK    6  A    between atoms: C_13  and  C_14
REMARK    7  A    between atoms: C_13  and  C_15
REMARK    8  A    between atoms: N_18  and  C_19
REMARK    9  A    between atoms: C_19  and  C_20
REMARK   10  A    between atoms: N_24  and  C_26
REMARK   11  A    between atoms: C_26  and  C_27
REMARK   12  A    between atoms: C_26  and  C_28
REMARK                            x       y       z     vdW  Elec       q    Type
REMARK                         _______ _______ _______ _____ _____    ______ ____
ROOT
ATOM      1  C   UNL     1       0.578   0.067   4.894  0.00  0.00    +0.162 C 
ENDROOT
BRANCH   1   4
ATOM      2  C   UNL     1       0.242   0.021   2.481  0.00  0.00    +0.245 C 
ATOM      3  O   UNL     1       0.135   1.232   2.503  0.00  0.00    -0.270 OA
ATOM      4  N   UNL     1       0.465  -0.656   3.625  0.00  0.00    -0.300 N 
ATOM      5  H   UNL     1       0.551  -1.622   3.607  0.00  0.00    +0.150 HD
BRANCH   2  12
ATOM      6  C   UNL     1      -0.511   1.452   0.082  0.00  0.00    +0.044 C 
ATOM      7  C   UNL     1      -0.234  -0.028   0.036  0.00  0.00    -0.038 A 
ATOM      8  C   UNL     1      -0.334  -0.714  -1.157  0.00  0.00    +0.004 A 
ATOM      9  C   UNL     1      -0.080  -2.073  -1.200  0.00  0.00    +0.000 A 
ATOM     10  C   UNL     1       0.275  -2.754  -0.049  0.00  0.00    +0.001 A 
ATOM     11  C   UNL     1       0.378  -2.080   1.150  0.00  0.00    +0.013 A 
ATOM     12  C   UNL     1       0.128  -0.708   1.200  0.00  0.00    +0.040 A 
ENDBRANCH   2  12
ENDBRANCH   1   4
BRANCH   1  13
ATOM     13  C   UNL     1       0.213  -0.854   6.030  0.00  0.00    +0.234 C 
ATOM     14  O   UNL     1      -0.110  -2.000   5.802  0.00  0.00    -0.274 OA
ATOM     15  N   UNL     1       0.245  -0.402   7.300  0.00  0.00    -0.314 N 
ATOM     16  H   UNL     1       0.504   0.515   7.482  0.00  0.00    +0.149 HD
BRANCH  15  17
ATOM     17  C   UNL     1      -0.110  -1.297   8.404  0.00  0.00    +0.106 C 
BRANCH  17  18
ATOM     18  C   UNL     1       0.009  -0.542   9.730  0.00  0.00    -0.012 C 
ATOM     19  C   UNL     1       1.492  -0.238  10.066  0.00  0.00    -0.015 C 
ATOM     20  C   UNL     1       1.486  -0.137  11.606  0.00  0.00    -0.078 C 
ATOM     21  N   UNL     1       0.304  -0.875  12.087  0.00  0.00    +0.381 N 
ATOM     22  C   UNL     1      -0.404  -1.443  10.920  0.00  0.00    -0.074 C 
ATOM     23  H   UNL     1      -0.310  -0.246  12.583  0.00  0.00    -0.081 HD
BRANCH  21  24
ATOM     24  C   UNL     1       0.729  -1.958  12.984  0.00  0.00    -0.075 C 
ATOM     25  C   UNL     1       1.448  -1.363  14.197  0.00  0.00    -0.014 C 
ATOM     26  C   UNL     1      -0.498  -2.742  13.453  0.00  0.00    -0.014 C 
ENDBRANCH  21  24
ENDBRANCH  17  18
ENDBRANCH  15  17
ENDBRANCH   1  13
BRANCH   1  27
ATOM     27  C   UNL     1       2.016   0.556   5.076  0.00  0.00    +0.012 C 
ATOM     28  C   UNL     1       2.977  -0.629   4.961  0.00  0.00    +0.009 C 
ATOM     29  C   UNL     1       2.346   1.586   3.993  0.00  0.00    +0.009 C 
ENDBRANCH   1  27
TORSDOF 7
