REMARK  Name = ZINC40729967
REMARK  11 active torsions:
REMARK  status: ('A' for Active; 'I' for Inactive)
REMARK    1  A    between atoms: C_1  and  C_2
REMARK    2  A    between atoms: C_2  and  CA_3
REMARK    3  A    between atoms: CA_3  and  C_5
REMARK    4  A    between atoms: CA_3  and  N_7
REMARK    5  A    between atoms: C_5  and  O_6
REMARK    6  A    between atoms: N_7  and  C_8
REMARK    7  A    between atoms: C_8  and  C_9
REMARK    8  A    between atoms: C_14  and  O_15
REMARK    9  A    between atoms: O_15  and  C_16
REMARK   10  A    between atoms: C_16  and  C_17
REMARK   11  A    between atoms: C_16  and  C_18
REMARK                            x       y       z     vdW  Elec       q    Type
REMARK                         _______ _______ _______ _____ _____    ______ ____
ROOT
ATOM      1  C   UNL     1       3.380   1.991  -1.040  0.00  0.00    -0.021 A 
ATOM      2  C   UNL     1       3.915   2.325   0.190  0.00  0.00    +0.020 A 
ATOM      3  C   UNL     1       5.214   2.794   0.276  0.00  0.00    +0.019 A 
ATOM      4  C   UNL     1       5.980   2.928  -0.868  0.00  0.00    +0.034 A 
ATOM      5  C   UNL     1       5.450   2.595  -2.099  0.00  0.00    +0.061 A 
ATOM      6  C   UNL     1       4.148   2.119  -2.187  0.00  0.00    +0.136 A 
ATOM      7 BR   UNL     1       6.497   2.780  -3.663  0.00  0.00    -0.046 Br
ATOM      8 BR   UNL     1       5.942   3.251   1.960  0.00  0.00    -0.050 Br
ENDROOT
BRANCH   1   9
ATOM      9  C   UNL     1       1.965   1.481  -1.133  0.00  0.00    -0.043 C 
BRANCH   9  10
ATOM     10  N   UNL     1       1.979   0.016  -1.244  0.00  0.00    +0.385 N 
ATOM     11  H1  UNL     1       2.504  -0.374  -0.476  0.00  0.00    -0.085 HD
ATOM     12  H2  UNL     1       2.409  -0.251  -2.116  0.00  0.00    -0.085 HD
BRANCH  10  13
ATOM     13  CA  UNL     1       0.601  -0.491  -1.202  0.00  0.00    -0.046 C 
BRANCH  13  15
ATOM     14  C   UNL     1       1.261  -2.492   0.140  0.00  0.00    +0.002 C 
ATOM     15  C   UNL     1       0.621  -2.020  -1.167  0.00  0.00    -0.017 C 
ENDBRANCH  13  15
BRANCH  13  16
ATOM     16  C   UNL     1      -0.154  -0.019  -2.446  0.00  0.00    +0.140 C 
BRANCH  16  17
ATOM     17  O   UNL     1       0.430  -0.608  -3.609  0.00  0.00    -0.397 OA
ATOM     18  H   UNL     1       0.001  -0.352  -4.437  0.00  0.00    +0.209 HD
ENDBRANCH  16  17
ENDBRANCH  13  16
ENDBRANCH  10  13
ENDBRANCH   9  10
ENDBRANCH   1   9
BRANCH   6  19
ATOM     19  O   UNL     1       3.626   1.785  -3.397  0.00  0.00    -0.488 OA
BRANCH  19  20
ATOM     20  C   UNL     1       2.956   2.818  -4.122  0.00  0.00    +0.167 C 
ATOM     21  C   UNL     1       3.961   3.547  -5.017  0.00  0.00    +0.051 C 
ATOM     22  C   UNL     1       1.855   2.202  -4.987  0.00  0.00    +0.051 C 
ENDBRANCH  19  20
ENDBRANCH   6  19
TORSDOF 8
