REMARK  Name = ZINC36032779
REMARK  12 active torsions:
REMARK  status: ('A' for Active; 'I' for Inactive)
REMARK    1  A    between atoms: C_1  and  C_2
REMARK    2  A    between atoms: C_2  and  C_3
REMARK    3  A    between atoms: C_3  and  C_5
REMARK    4  A    between atoms: C_3  and  C_6
REMARK    5  A    between atoms: C_6  and  N_7
REMARK    6  A    between atoms: C_10  and  C_29
REMARK    7  A    between atoms: N_16  and  C_19
REMARK    8  A    between atoms: C_19  and  N_21
REMARK    9  A    between atoms: N_21  and  C_22
REMARK   10  A    between atoms: C_29  and  C_30
REMARK   11  A    between atoms: C_30  and  C_31
REMARK   12  A    between atoms: C_30  and  C_32
REMARK                            x       y       z     vdW  Elec       q    Type
REMARK                         _______ _______ _______ _____ _____    ______ ____
ROOT
ATOM      1  N   UNL     1       1.599  -2.673  -1.541  0.00  0.00    -0.313 N 
ATOM      2  C   UNL     1       1.264  -2.935  -2.821  0.00  0.00    +0.200 C 
ATOM      3  O   UNL     1       0.146  -2.878  -3.287  0.00  0.00    -0.277 OA
ATOM      4  C   UNL     1       2.519  -3.312  -3.578  0.00  0.00    +0.019 C 
ATOM      5  N   UNL     1       3.513  -3.635  -2.526  0.00  0.00    +0.401 N 
ATOM      6  C   UNL     1       3.045  -2.839  -1.370  0.00  0.00    +0.006 C 
ATOM      7  C   UNL     1       3.342  -3.591  -0.074  0.00  0.00    +0.025 C 
ATOM      8  C   UNL     1       2.817  -2.780   1.116  0.00  0.00    +0.107 C 
ATOM      9  N   UNL     1       3.382  -1.425   1.050  0.00  0.00    -0.312 N 
ATOM     10  C   UNL     1       3.213  -0.648  -0.185  0.00  0.00    +0.107 C 
ATOM     11  C   UNL     1       3.736  -1.476  -1.363  0.00  0.00    +0.025 C 
ATOM     12  H   UNL     1       3.499  -4.621  -2.314  0.00  0.00    -0.082 HD
ATOM     13  H   UNL     1       4.437  -3.342  -2.807  0.00  0.00    -0.082 HD
ENDROOT
BRANCH   9  14
ATOM     14  C   UNL     1       4.042  -0.906   2.104  0.00  0.00    +0.137 C 
ATOM     15  S   UNL     1       4.121  -1.774   3.578  0.00  0.00    -0.018 S 
BRANCH  14  16
ATOM     16  N   UNL     1       4.641   0.297   1.998  0.00  0.00    -0.297 N 
ATOM     17  H   UNL     1       5.598   0.351   1.848  0.00  0.00    +0.154 HD
BRANCH  16  18
ATOM     18  C   UNL     1       3.882   1.468   2.103  0.00  0.00    +0.034 A 
ATOM     19  C   UNL     1       2.534   1.396   2.431  0.00  0.00    +0.023 A 
ATOM     20  C   UNL     1       1.787   2.553   2.534  0.00  0.00    +0.003 A 
ATOM     21  C   UNL     1       2.380   3.783   2.312  0.00  0.00    +0.020 A 
ATOM     22  C   UNL     1       3.722   3.858   1.984  0.00  0.00    +0.043 A 
ATOM     23  C   UNL     1       4.476   2.704   1.886  0.00  0.00    +0.043 A 
ATOM     24 CL   UNL     1       4.461   5.404   1.705  0.00  0.00    -0.083 Cl
ENDBRANCH  16  18
ENDBRANCH  14  16
ENDBRANCH   9  14
BRANCH   1  25
ATOM     25  C   UNL     1       0.662  -2.279  -0.486  0.00  0.00    +0.109 C 
BRANCH  25  26
ATOM     26  C   UNL     1      -0.119  -3.506  -0.012  0.00  0.00    +0.003 C 
ATOM     27  C   UNL     1       0.855  -4.647   0.285  0.00  0.00    +0.009 C 
BRANCH  26  29
ATOM     28  C   UNL     1      -1.774  -4.342   1.662  0.00  0.00    +0.004 C 
ATOM     29  C   UNL     1      -0.897  -3.156   1.259  0.00  0.00    +0.001 C 
ENDBRANCH  26  29
ENDBRANCH  25  26
ENDBRANCH   1  25
BRANCH   4  30
ATOM     30  C   UNL     1       2.261  -4.533  -4.464  0.00  0.00    -0.004 C 
BRANCH  30  31
ATOM     31  C   UNL     1       3.533  -4.876  -5.242  0.00  0.00    -0.018 C 
ATOM     32  C   UNL     1       3.304  -6.151  -6.056  0.00  0.00    +0.007 C 
ATOM     33  C   UNL     1       3.879  -3.724  -6.187  0.00  0.00    +0.007 C 
ENDBRANCH  30  31
ENDBRANCH   4  30
TORSDOF 8
