REMARK  Name = ZINC14328400
REMARK  6 active torsions:
REMARK  status: ('A' for Active; 'I' for Inactive)
REMARK    1  A    between atoms: C_6  and  C_7
REMARK    2  A    between atoms: C_7  and  C_9
REMARK    3  A    between atoms: C_14  and  C_15
REMARK    4  A    between atoms: C_14  and  N_63
REMARK    5  A    between atoms: N_17  and  C_18
REMARK    6  A    between atoms: C_19  and  C_27
REMARK                            x       y       z     vdW  Elec       q    Type
REMARK                         _______ _______ _______ _____ _____    ______ ____
ROOT
ATOM      1  C   UNL     1      -9.078   0.705   1.014  0.00  0.00    +0.019 C 
ENDROOT
BRANCH   1   7
ATOM      2  C   UNL     1      -4.983  -0.032   0.030  0.00  0.00    +0.057 C 
ATOM      3  C   UNL     1      -5.360   0.315   1.473  0.00  0.00    -0.007 C 
ATOM      4  C   UNL     1      -6.723   1.011   1.484  0.00  0.00    -0.077 C 
ATOM      5  C   UNL     1      -7.417  -0.184  -0.506  0.00  0.00    -0.077 C 
ATOM      6  C   UNL     1      -6.075  -0.917  -0.578  0.00  0.00    -0.007 C 
ATOM      7  N   UNL     1      -7.734   0.099   0.909  0.00  0.00    +0.385 N 
ATOM      8  H   UNL     1      -7.725  -0.783   1.435  0.00  0.00    -0.081 HD
BRANCH   2   9
ATOM      9  C   UNL     1      -3.670  -0.773   0.017  0.00  0.00    +0.166 C 
ATOM     10  O   UNL     1      -3.658  -1.985   0.008  0.00  0.00    -0.292 OA
BRANCH   9  16
ATOM     11  C   UNL     1      -2.417   1.374   0.026  0.00  0.00    +0.015 A 
ATOM     12  C   UNL     1      -1.229   2.070   0.019  0.00  0.00    +0.050 A 
ATOM     13  C   UNL     1      -0.017   1.390   0.010  0.00  0.00    +0.162 A 
ATOM     14  C   UNL     1       0.002  -0.004   0.002  0.00  0.00    +0.163 A 
ATOM     15  C   UNL     1      -1.185  -0.711   0.004  0.00  0.00    +0.060 A 
ATOM     16  C   UNL     1      -2.406  -0.026   0.016  0.00  0.00    +0.021 A 
ATOM     17  O   UNL     1       1.181  -0.684  -0.007  0.00  0.00    -0.485 OA
ATOM     18  C   UNL     1       2.347   0.055  -0.386  0.00  0.00    +0.270 C 
ATOM     19  C   UNL     1       2.333   1.393   0.367  0.00  0.00    +0.270 C 
ATOM     20  O   UNL     1       1.142   2.099   0.002  0.00  0.00    -0.485 OA
ENDBRANCH   9  16
ENDBRANCH   2   9
ENDBRANCH   1   7
BRANCH   1  21
ATOM     21  C   UNL     1      -9.465   0.779   2.468  0.00  0.00    +0.201 C 
ATOM     22  O   UNL     1      -8.697   0.388   3.321  0.00  0.00    -0.278 OA
ATOM     23  N   UNL     1     -10.665   1.281   2.821  0.00  0.00    -0.281 N 
ATOM     24  H   UNL     1     -11.280   1.594   2.139  0.00  0.00    +0.155 HD
BRANCH  23  25
ATOM     25  C   UNL     1     -11.021   1.350   4.160  0.00  0.00    +0.084 A 
ATOM     26  C   UNL     1     -12.197   1.835   4.715  0.00  0.00    +0.068 A 
ATOM     27  C   UNL     1     -12.323   1.791   6.162  0.00  0.00    -0.023 A 
ATOM     28  C   UNL     1     -11.258   1.283   6.818  0.00  0.00    -0.004 A 
ATOM     29  S   UNL     1     -10.103   0.859   5.545  0.00  0.00    -0.077 S 
ATOM     30  C   UNL     1     -11.101   1.120   8.299  0.00  0.00    +0.043 C 
ATOM     31  C   UNL     1     -12.181   1.962   8.994  0.00  0.00    +0.005 C 
ATOM     32  C   UNL     1     -13.531   1.680   8.328  0.00  0.00    +0.005 C 
ATOM     33  C   UNL     1     -13.552   2.279   6.921  0.00  0.00    +0.037 C 
BRANCH  26  34
ATOM     34  C   UNL     1     -13.273   2.367   3.874  0.00  0.00    +0.244 C 
ATOM     35  O   UNL     1     -14.146   1.626   3.461  0.00  0.00    -0.270 OA
ATOM     36  N   UNL     1     -13.295   3.676   3.557  0.00  0.00    -0.325 N 
ATOM     37  H   UNL     1     -12.599   4.267   3.885  0.00  0.00    +0.145 HD
ATOM     38  H   UNL     1     -14.007   4.029   2.999  0.00  0.00    +0.145 HD
ENDBRANCH  26  34
ENDBRANCH  23  25
ENDBRANCH   1  21
TORSDOF 6
