REMARK  Name = ZINC12149794
REMARK  7 active torsions:
REMARK  status: ('A' for Active; 'I' for Inactive)
REMARK    1  A    between atoms: C_1  and  O_2
REMARK    2  A    between atoms: O_2  and  C_3
REMARK    3  A    between atoms: C_7  and  C_9
REMARK    4  A    between atoms: C_9  and  N_69
REMARK    5  A    between atoms: C_12  and  C_15
REMARK    6  A    between atoms: C_12  and  O_36
REMARK    7  A    between atoms: C_22  and  C_24
REMARK                            x       y       z     vdW  Elec       q    Type
REMARK                         _______ _______ _______ _____ _____    ______ ____
ROOT
ATOM      1  C   UNL     1       0.657  -2.699   0.145  0.00  0.00    -0.015 A 
ATOM      2  C   UNL     1      -0.670  -2.298   0.233  0.00  0.00    +0.010 A 
ATOM      3  C   UNL     1      -1.002  -0.961   0.239  0.00  0.00    +0.047 A 
ATOM      4  C   UNL     1      -0.003   0.002   0.157  0.00  0.00    +0.136 A 
ATOM      5  C   UNL     1       1.340  -0.410   0.068  0.00  0.00    +0.021 A 
ATOM      6  C   UNL     1       1.656  -1.771   0.063  0.00  0.00    +0.018 A 
ATOM      7  C   UNL     1       2.128   0.820  -0.003  0.00  0.00    +0.063 A 
ATOM      8  C   UNL     1       1.235   1.842   0.047  0.00  0.00    +0.191 A 
ATOM      9  O   UNL     1      -0.017   1.349   0.140  0.00  0.00    -0.450 OA
ENDROOT
BRANCH   8  10
ATOM     10  C   UNL     1       1.581   3.270   0.004  0.00  0.00    +0.282 C 
ATOM     11  O   UNL     1       2.747   3.615   0.048  0.00  0.00    -0.267 OA
ATOM     12  N   UNL     1       0.607   4.197  -0.083  0.00  0.00    -0.290 N 
ATOM     13  C   UNL     1       0.921   5.632  -0.185  0.00  0.00    +0.113 C 
ATOM     14  C   UNL     1       0.425   6.120  -1.551  0.00  0.00    +0.054 C 
ATOM     15  C   UNL     1      -0.982   5.649  -1.809  0.00  0.00    -0.041 A 
ATOM     16  C   UNL     1      -1.721   6.326  -2.771  0.00  0.00    +0.004 A 
ATOM     17  C   UNL     1      -3.012   5.939  -3.066  0.00  0.00    +0.000 A 
ATOM     18  C   UNL     1      -3.577   4.868  -2.398  0.00  0.00    +0.000 A 
ATOM     19  C   UNL     1      -2.847   4.197  -1.439  0.00  0.00    +0.005 A 
ATOM     20  C   UNL     1      -1.549   4.588  -1.140  0.00  0.00    -0.027 A 
ATOM     21  C   UNL     1      -0.810   3.817  -0.074  0.00  0.00    +0.143 C 
ENDBRANCH   8  10
BRANCH   1  24
ATOM     22  C   UNL     1       0.262  -6.434   0.886  0.00  0.00    -0.075 C 
ATOM     23  C   UNL     1      -0.054  -4.938   0.945  0.00  0.00    +0.021 C 
ATOM     24  C   UNL     1       0.996  -4.167   0.141  0.00  0.00    +0.088 C 
ATOM     25  C   UNL     1       1.008  -4.685  -1.300  0.00  0.00    +0.021 C 
ATOM     26  C   UNL     1       1.291  -6.189  -1.294  0.00  0.00    -0.075 C 
ATOM     27  N   UNL     1       0.232  -6.875  -0.525  0.00  0.00    +0.383 N 
ATOM     28  H   UNL     1      -0.681  -6.636  -0.930  0.00  0.00    -0.081 HD
BRANCH  24  29
ATOM     29  O   UNL     1       2.284  -4.361   0.728  0.00  0.00    -0.384 OA
ATOM     30  H   UNL     1       3.000  -3.902   0.268  0.00  0.00    +0.211 HD
ENDBRANCH  24  29
BRANCH  27  31
ATOM     31  C   UNL     1       0.421  -8.338  -0.600  0.00  0.00    -0.043 C 
BRANCH  31  36
ATOM     32  C   UNL     1       2.166  -9.154  -3.851  0.00  0.00    +0.120 A 
ATOM     33  C   UNL     1       1.089  -9.458  -4.672  0.00  0.00    +0.045 A 
ATOM     34  C   UNL     1      -0.197  -9.398  -4.172  0.00  0.00    +0.004 A 
ATOM     35  C   UNL     1      -0.412  -9.041  -2.853  0.00  0.00    +0.002 A 
ATOM     36  C   UNL     1       0.659  -8.733  -2.035  0.00  0.00    -0.060 A 
ATOM     37  C   UNL     1       1.948  -8.791  -2.530  0.00  0.00    +0.047 A 
BRANCH  32  39
ATOM     38  C   UNL     1       3.582  -9.595  -5.709  0.00  0.00    +0.277 C 
ATOM     39  O   UNL     1       3.433  -9.213  -4.340  0.00  0.00    -0.495 OA
ENDBRANCH  32  39
ENDBRANCH  31  36
ENDBRANCH  27  31
ENDBRANCH   1  24
TORSDOF 6
