REMARK  Name = ZINC58989415
REMARK  7 active torsions:
REMARK  status: ('A' for Active; 'I' for Inactive)
REMARK    1  A    between atoms: C_5  and  C_7
REMARK    2  A    between atoms: N_8  and  N_9
REMARK    3  A    between atoms: C_10  and  C_12
REMARK    4  A    between atoms: C_12  and  S_13
REMARK    5  A    between atoms: S_13  and  C_14
REMARK    6  A    between atoms: C_17  and  C_20
REMARK    7  A    between atoms: N_18  and  N_19
REMARK                            x       y       z     vdW  Elec       q    Type
REMARK                         _______ _______ _______ _____ _____    ______ ____
ROOT
ATOM      1  S   UNL     1       5.343  -6.915  -0.092  0.00  0.00    -0.075 S 
ENDROOT
BRANCH   1   2
ATOM      2  C   UNL     1       5.208  -8.672  -0.101  0.00  0.00    +0.209 A 
ATOM      3  N   UNL     1       4.093  -9.369  -0.100  0.00  0.00    -0.121 NA
ATOM      4  N   UNL     1       4.359 -10.626  -0.108  0.00  0.00    -0.127 NA
ATOM      5  C   UNL     1       5.659 -10.810  -0.115  0.00  0.00    +0.182 A 
ATOM      6  N   UNL     1       6.242  -9.564  -0.117  0.00  0.00    -0.224 N 
BRANCH   5   7
ATOM      7  C   UNL     1       6.362 -12.110  -0.125  0.00  0.00    +0.021 A 
ATOM      8  C   UNL     1       7.721 -12.174   0.187  0.00  0.00    +0.013 A 
ATOM      9  C   UNL     1       8.372 -13.390   0.175  0.00  0.00    +0.016 A 
ATOM     10  C   UNL     1       7.680 -14.546  -0.145  0.00  0.00    +0.018 A 
ATOM     11  C   UNL     1       6.332 -14.489  -0.456  0.00  0.00    +0.016 A 
ATOM     12  C   UNL     1       5.669 -13.280  -0.442  0.00  0.00    +0.013 A 
ATOM     13 BR   UNL     1       8.581 -16.209  -0.160  0.00  0.00    -0.050 Br
ENDBRANCH   5   7
BRANCH   6  14
ATOM     14  N   UNL     1       7.578  -9.279  -0.129  0.00  0.00    -0.295 N 
ATOM     15  H   UNL     1       7.941  -9.209   0.810  0.00  0.00    +0.163 HD
ATOM     16  H   UNL     1       8.090  -9.964  -0.664  0.00  0.00    +0.163 HD
ENDBRANCH   6  14
ENDBRANCH   1   2
BRANCH   1  17
ATOM     17  C   UNL     1       3.622  -6.343  -0.071  0.00  0.00    +0.174 C 
BRANCH  17  19
ATOM     18  N   UNL     1       2.413  -4.185  -0.046  0.00  0.00    -0.206 N 
ATOM     19  C   UNL     1       3.593  -4.837  -0.062  0.00  0.00    +0.242 C 
ATOM     20  O   UNL     1       4.632  -4.210  -0.069  0.00  0.00    -0.273 OA
ATOM     21  H   UNL     1       1.583  -4.686  -0.041  0.00  0.00    +0.177 HD
BRANCH  18  23
ATOM     22  C   UNL     1       1.251  -2.157  -0.023  0.00  0.00    +0.139 C 
ATOM     23  N   UNL     1       2.387  -2.784  -0.038  0.00  0.00    -0.188 NA
BRANCH  22  28
ATOM     24  C   UNL     1      -0.017   1.375   0.010  0.00  0.00    +0.001 A 
ATOM     25  C   UNL     1       1.170   2.087   0.002  0.00  0.00    +0.001 A 
ATOM     26  C   UNL     1       2.383   1.423  -0.013  0.00  0.00    +0.020 A 
ATOM     27  C   UNL     1       2.418   0.042  -0.021  0.00  0.00    +0.050 A 
ATOM     28  C   UNL     1       1.223  -0.683  -0.014  0.00  0.00    +0.013 A 
ATOM     29  C   UNL     1       0.002  -0.004   0.002  0.00  0.00    +0.011 A 
ATOM     30 CL   UNL     1       3.941  -0.790  -0.041  0.00  0.00    -0.083 Cl
ENDBRANCH  22  28
ENDBRANCH  18  23
ENDBRANCH  17  19
ENDBRANCH   1  17
TORSDOF 7
