REMARK  Name = ZINC67062375
REMARK  5 active torsions:
REMARK  status: ('A' for Active; 'I' for Inactive)
REMARK    1  A    between atoms: C_1  and  C_2
REMARK    2  A    between atoms: C_6  and  C_7
REMARK    3  A    between atoms: N_9  and  N_10
REMARK    4  A    between atoms: N_13  and  C_14
REMARK    5  A    between atoms: C_14  and  C_15
REMARK                            x       y       z     vdW  Elec       q    Type
REMARK                         _______ _______ _______ _____ _____    ______ ____
ROOT
ATOM      1  N   UNL     1      -0.519  -0.769   4.914  0.00  0.00    -0.218 N 
ATOM      2  C   UNL     1      -0.245  -1.641   5.905  0.00  0.00    +0.316 C 
ATOM      3  O   UNL     1      -0.057  -1.236   7.036  0.00  0.00    -0.251 OA
ATOM      4  N   UNL     1      -0.180  -2.962   5.642  0.00  0.00    -0.294 N 
ATOM      5  H   UNL     1      -0.566   0.181   5.103  0.00  0.00    +0.174 HD
ATOM      6  H   UNL     1      -0.330  -3.284   4.740  0.00  0.00    +0.151 HD
ENDROOT
BRANCH   1   9
ATOM      7  C   UNL     1      -1.009  -0.364   2.620  0.00  0.00    +0.267 C 
ATOM      8  O   UNL     1      -1.068   0.828   2.857  0.00  0.00    -0.268 OA
ATOM      9  N   UNL     1      -0.736  -1.236   3.611  0.00  0.00    -0.229 N 
ATOM     10  H   UNL     1      -0.689  -2.186   3.422  0.00  0.00    +0.173 HD
BRANCH   7  16
ATOM     11  C   UNL     1      -1.659   1.369   0.115  0.00  0.00    +0.045 C 
ATOM     12  C   UNL     1      -1.527  -0.132   0.108  0.00  0.00    -0.031 A 
ATOM     13  C   UNL     1      -1.682  -0.874  -1.039  0.00  0.00    +0.011 A 
ATOM     14  C   UNL     1      -1.550  -2.222  -0.974  0.00  0.00    +0.046 A 
ATOM     15  S   UNL     1      -1.210  -2.526   0.643  0.00  0.00    -0.092 S 
ATOM     16  C   UNL     1      -1.236  -0.852   1.256  0.00  0.00    +0.078 A 
ENDBRANCH   7  16
ENDBRANCH   1   9
BRANCH   4  17
ATOM     17  C   UNL     1       0.117  -3.909   6.719  0.00  0.00    +0.142 C 
BRANCH  17  18
ATOM     18  C   UNL     1       0.132  -5.311   6.165  0.00  0.00    -0.014 A 
ATOM     19  C   UNL     1      -1.034  -6.065   6.134  0.00  0.00    +0.010 A 
ATOM     20  C   UNL     1      -0.977  -7.347   5.618  0.00  0.00    +0.042 A 
ATOM     21  C   UNL     1       0.240  -7.834   5.150  0.00  0.00    +0.099 A 
ATOM     22  N   UNL     1       1.329  -7.084   5.197  0.00  0.00    -0.349 N 
ATOM     23  C   UNL     1       1.303  -5.855   5.678  0.00  0.00    +0.089 A 
ATOM     24  N   UNL     1       0.311  -9.121   4.629  0.00  0.00    -0.317 N 
ATOM     25  C   UNL     1      -0.915  -9.866   4.452  0.00  0.00    +0.106 C 
ATOM     26  C   UNL     1      -1.231 -10.659   5.745  0.00  0.00    +0.019 C 
ATOM     27  C   UNL     1      -0.286 -11.774   5.904  0.00  0.00    +0.002 C 
ATOM     28  C   UNL     1       1.169 -11.346   6.071  0.00  0.00    +0.002 C 
ATOM     29  C   UNL     1       1.788 -11.139   4.710  0.00  0.00    +0.019 C 
ATOM     30  C   UNL     1       1.635  -9.667   4.273  0.00  0.00    +0.106 C 
ATOM     31  H   UNL     1       2.167  -7.444   4.865  0.00  0.00    +0.167 HD
ENDBRANCH  17  18
ENDBRANCH   4  17
TORSDOF 4
