REMARK  Name = ZINC65978678
REMARK  9 active torsions:
REMARK  status: ('A' for Active; 'I' for Inactive)
REMARK    1  A    between atoms: C_1  and  C_2
REMARK    2  A    between atoms: C_3  and  C_15
REMARK    3  A    between atoms: N_5  and  C_7
REMARK    4  A    between atoms: C_15  and  N_16
REMARK    5  A    between atoms: N_16  and  C_17
REMARK    6  A    between atoms: C_17  and  C_18
REMARK    7  A    between atoms: C_21  and  O_26
REMARK    8  A    between atoms: C_22  and  O_24
REMARK    9  A    between atoms: O_24  and  C_25
REMARK                            x       y       z     vdW  Elec       q    Type
REMARK                         _______ _______ _______ _____ _____    ______ ____
ROOT
ATOM      1  C   UNL     1      -0.221  -0.333  -2.553  0.00  0.00    -0.041 C 
ENDROOT
BRANCH   1   4
ATOM      2  C   UNL     1       0.209   1.496  -0.004  0.00  0.00    +0.068 C 
ATOM      3  C   UNL     1       0.105  -0.007  -0.004  0.00  0.00    +0.063 A 
ATOM      4  C   UNL     1      -0.086  -0.814  -1.131  0.00  0.00    -0.005 A 
ATOM      5  C   UNL     1      -0.127  -2.104  -0.719  0.00  0.00    +0.134 A 
ATOM      6  N   UNL     1       0.034  -2.109   0.630  0.00  0.00    -0.220 N 
ATOM      7  N   UNL     1       0.182  -0.780   1.049  0.00  0.00    -0.170 NA
ATOM      8 CL   UNL     1      -0.344  -3.497  -1.731  0.00  0.00    -0.062 Cl
BRANCH   6   9
ATOM      9  C   UNL     1       0.052  -3.242   1.455  0.00  0.00    +0.085 A 
ATOM     10  C   UNL     1       0.842  -4.334   1.120  0.00  0.00    +0.029 A 
ATOM     11  C   UNL     1       0.859  -5.449   1.935  0.00  0.00    +0.002 A 
ATOM     12  C   UNL     1       0.090  -5.479   3.084  0.00  0.00    +0.002 A 
ATOM     13  C   UNL     1      -0.698  -4.394   3.421  0.00  0.00    +0.022 A 
ATOM     14  C   UNL     1      -0.715  -3.273   2.613  0.00  0.00    +0.066 A 
ATOM     15 CL   UNL     1      -1.699  -1.908   3.040  0.00  0.00    -0.081 Cl
ENDBRANCH   6   9
ENDBRANCH   1   4
BRANCH   1  16
ATOM     16  N   UNL     1       1.107  -0.272  -3.178  0.00  0.00    +0.384 N 
ATOM     17  H   UNL     1       1.693   0.366  -2.661  0.00  0.00    -0.085 HD
ATOM     18  H   UNL     1       1.524  -1.191  -3.172  0.00  0.00    -0.085 HD
BRANCH  16  19
ATOM     19  C   UNL     1       0.975   0.197  -4.564  0.00  0.00    -0.046 C 
BRANCH  19  20
ATOM     20  C   UNL     1       2.337   0.259  -5.205  0.00  0.00    -0.061 A 
ATOM     21  C   UNL     1       3.086   1.418  -5.122  0.00  0.00    +0.005 A 
ATOM     22  C   UNL     1       4.336   1.480  -5.709  0.00  0.00    +0.049 A 
ATOM     23  C   UNL     1       4.842   0.379  -6.381  0.00  0.00    +0.158 A 
ATOM     24  C   UNL     1       4.088  -0.788  -6.464  0.00  0.00    +0.161 A 
ATOM     25  C   UNL     1       2.837  -0.845  -5.870  0.00  0.00    +0.051 A 
BRANCH  24  26
ATOM     26  O   UNL     1       4.580  -1.871  -7.123  0.00  0.00    -0.491 OA
ATOM     27  C   UNL     1       3.751  -3.034  -7.168  0.00  0.00    +0.277 C 
ENDBRANCH  24  26
BRANCH  23  28
ATOM     28  O   UNL     1       6.071   0.439  -6.959  0.00  0.00    -0.503 OA
ATOM     29  H   UNL     1       6.793   0.166  -6.377  0.00  0.00    +0.292 HD
ENDBRANCH  23  28
ENDBRANCH  19  20
ENDBRANCH  16  19
ENDBRANCH   1  16
TORSDOF 7
