REMARK  Name = ZINC63385428
REMARK  10 active torsions:
REMARK  status: ('A' for Active; 'I' for Inactive)
REMARK    1  A    between atoms: C_1  and  C_2
REMARK    2  A    between atoms: C_7  and  O_33
REMARK    3  A    between atoms: C_8  and  O_32
REMARK    4  A    between atoms: C_13  and  C_15
REMARK    5  A    between atoms: C_15  and  C_16
REMARK    6  A    between atoms: N_18  and  C_19
REMARK    7  A    between atoms: C_19  and  C_20
REMARK    8  A    between atoms: C_20  and  C_21
REMARK    9  A    between atoms: C_24  and  O_30
REMARK   10  A    between atoms: O_30  and  C_31
REMARK                            x       y       z     vdW  Elec       q    Type
REMARK                         _______ _______ _______ _____ _____    ______ ____
ROOT
ATOM      1  C   UNL     1       1.951  -2.440   2.228  0.00  0.00    +0.214 C 
ATOM      2  O   UNL     1       2.227  -1.662   3.117  0.00  0.00    -0.276 OA
ATOM      3  N   UNL     1       2.393  -3.712   2.284  0.00  0.00    -0.315 N 
ATOM      4  H   UNL     1       2.172  -4.334   1.574  0.00  0.00    +0.149 HD
ENDROOT
BRANCH   1   5
ATOM      5  C   UNL     1       1.114  -1.984   1.061  0.00  0.00    +0.111 C 
BRANCH   5  17
ATOM      6  C   UNL     1      -0.019   1.526   0.010  0.00  0.00    +0.013 C 
ATOM      7  C   UNL     1       0.002  -0.004   0.002  0.00  0.00    +0.034 C 
ATOM      8  C   UNL     1      -1.413  -0.524   0.009  0.00  0.00    +0.003 A 
ATOM      9  C   UNL     1      -2.113  -0.549  -1.189  0.00  0.00    +0.011 A 
ATOM     10  C   UNL     1      -3.413  -1.010  -1.232  0.00  0.00    +0.050 A 
ATOM     11  C   UNL     1      -4.031  -1.453  -0.072  0.00  0.00    +0.162 A 
ATOM     12  C   UNL     1      -3.335  -1.433   1.129  0.00  0.00    +0.202 A 
ATOM     13  C   UNL     1      -2.021  -0.971   1.168  0.00  0.00    +0.180 A 
ATOM     14  O   UNL     1      -1.367  -0.985   2.362  0.00  0.00    -0.421 OA
ATOM     15  C   UNL     1      -0.178  -0.353   2.429  0.00  0.00    +0.317 C 
ATOM     16  O   UNL     1       0.133   0.309   3.392  0.00  0.00    -0.250 OA
ATOM     17  C   UNL     1       0.747  -0.510   1.241  0.00  0.00    +0.114 C 
BRANCH  12  18
ATOM     18  O   UNL     1      -3.937  -1.866   2.270  0.00  0.00    -0.501 OA
ATOM     19  H   UNL     1      -3.818  -2.810   2.444  0.00  0.00    +0.292 HD
ENDBRANCH  12  18
BRANCH  11  20
ATOM     20  O   UNL     1      -5.313  -1.905  -0.111  0.00  0.00    -0.503 OA
ATOM     21  H   UNL     1      -5.391  -2.854  -0.279  0.00  0.00    +0.292 HD
ENDBRANCH  11  20
ENDBRANCH   5  17
ENDBRANCH   1   5
BRANCH   3  22
ATOM     22  C   UNL     1       3.207  -4.155   3.419  0.00  0.00    +0.108 C 
BRANCH  22  23
ATOM     23  C   UNL     1       3.574  -5.629   3.239  0.00  0.00    +0.052 C 
BRANCH  23  24
ATOM     24  C   UNL     1       4.411  -6.085   4.406  0.00  0.00    -0.040 C 
ATOM     25  C   UNL     1       3.976  -6.709   5.524  0.00  0.00    +0.002 A 
ATOM     26  C   UNL     1       2.646  -7.133   5.973  0.00  0.00    +0.055 A 
ATOM     27  C   UNL     1       2.512  -7.751   7.171  0.00  0.00    +0.121 A 
ATOM     28  C   UNL     1       3.610  -8.004   8.012  0.00  0.00    +0.047 A 
ATOM     29  C   UNL     1       4.871  -7.651   7.686  0.00  0.00    +0.029 A 
ATOM     30  C   UNL     1       5.132  -6.976   6.411  0.00  0.00    +0.043 A 
ATOM     31  N   UNL     1       6.237  -6.535   5.863  0.00  0.00    -0.380 N 
ATOM     32  C   UNL     1       5.909  -5.943   4.561  0.00  0.00    +0.144 C 
ATOM     33  H   UNL     1       7.124  -6.594   6.251  0.00  0.00    +0.160 HD
BRANCH  27  34
ATOM     34  O   UNL     1       1.273  -8.139   7.575  0.00  0.00    -0.495 OA
ATOM     35  C   UNL     1       1.178  -8.787   8.845  0.00  0.00    +0.277 C 
ENDBRANCH  27  34
ENDBRANCH  23  24
ENDBRANCH  22  23
ENDBRANCH   3  22
TORSDOF 8
