REMARK  Name = ZINC02017274
REMARK  10 active torsions:
REMARK  status: ('A' for Active; 'I' for Inactive)
REMARK    1  A    between atoms: C_1  and  O_2
REMARK    2  A    between atoms: O_2  and  C_3
REMARK    3  A    between atoms: C_5  and  C_13
REMARK    4  A    between atoms: C_7  and  O_11
REMARK    5  A    between atoms: C_8  and  O_9
REMARK    6  A    between atoms: O_9  and  C_10
REMARK    7  A    between atoms: O_11  and  C_12
REMARK    8  A    between atoms: C_13  and  C_14
REMARK    9  A    between atoms: C_18  and  O_26
REMARK   10  A    between atoms: C_19  and  O_25
REMARK                            x       y       z     vdW  Elec       q    Type
REMARK                         _______ _______ _______ _____ _____    ______ ____
ROOT
ATOM      1  C   UNL     1      -5.313   0.539  -1.401  0.00  0.00    -0.036 C 
ATOM      2  C   UNL     1      -6.506   1.457  -1.387  0.00  0.00    -0.054 A 
ATOM      3  C   UNL     1      -6.516   2.515  -0.489  0.00  0.00    +0.051 A 
ATOM      4  C   UNL     1      -7.590   3.385  -0.444  0.00  0.00    +0.158 A 
ATOM      5  C   UNL     1      -8.668   3.197  -1.306  0.00  0.00    +0.158 A 
ATOM      6  C   UNL     1      -8.654   2.140  -2.198  0.00  0.00    +0.053 A 
ATOM      7  C   UNL     1      -7.575   1.270  -2.238  0.00  0.00    -0.044 A 
ATOM      8  C   UNL     1      -7.606   0.128  -3.221  0.00  0.00    +0.016 C 
ATOM      9  C   UNL     1      -6.199  -0.450  -3.388  0.00  0.00    -0.077 C 
ATOM     10  N   UNL     1      -5.647  -0.730  -2.054  0.00  0.00    +0.384 N 
ATOM     11  H   UNL     1      -4.814  -1.292  -2.146  0.00  0.00    -0.085 HD
ATOM     12  H   UNL     1      -6.331  -1.225  -1.502  0.00  0.00    -0.085 HD
ENDROOT
BRANCH   5  13
ATOM     13  O   UNL     1      -9.727   4.048  -1.270  0.00  0.00    -0.503 OA
ATOM     14  H   UNL     1      -9.642   4.808  -1.863  0.00  0.00    +0.292 HD
ENDBRANCH   5  13
BRANCH   4  15
ATOM     15  O   UNL     1      -7.594   4.421   0.437  0.00  0.00    -0.503 OA
ATOM     16  H   UNL     1      -7.204   5.235   0.090  0.00  0.00    +0.292 HD
ENDBRANCH   4  15
BRANCH   1  17
ATOM     17  C   UNL     1      -4.871   0.264   0.038  0.00  0.00    +0.024 C 
BRANCH  17  20
ATOM     18  C   UNL     1      -1.201  -0.638   0.010  0.00  0.00    +0.165 A 
ATOM     19  C   UNL     1      -2.375   0.101   0.019  0.00  0.00    +0.053 A 
ATOM     20  C   UNL     1      -3.598  -0.543   0.028  0.00  0.00    -0.041 A 
ATOM     21  C   UNL     1      -3.657  -1.924   0.027  0.00  0.00    +0.053 A 
ATOM     22  C   UNL     1      -2.488  -2.670   0.017  0.00  0.00    +0.165 A 
ATOM     23  C   UNL     1      -1.256  -2.027   0.003  0.00  0.00    +0.204 A 
BRANCH  18  25
ATOM     24  C   UNL     1      -0.017   1.425   0.010  0.00  0.00    +0.277 C 
ATOM     25  O   UNL     1       0.002  -0.004   0.002  0.00  0.00    -0.491 OA
ENDBRANCH  18  25
BRANCH  23  26
ATOM     26  O   UNL     1      -0.106  -2.755  -0.012  0.00  0.00    -0.488 OA
ATOM     27  C   UNL     1       0.454  -3.109   1.254  0.00  0.00    +0.277 C 
ENDBRANCH  23  26
BRANCH  22  28
ATOM     28  O   UNL     1      -2.547  -4.028   0.017  0.00  0.00    -0.491 OA
ATOM     29  C   UNL     1      -3.847  -4.621   0.026  0.00  0.00    +0.277 C 
ENDBRANCH  22  28
ENDBRANCH  17  20
ENDBRANCH   1  17
TORSDOF 7
