REMARK  Name = ZINC12058381
REMARK  8 active torsions:
REMARK  status: ('A' for Active; 'I' for Inactive)
REMARK    1  A    between atoms: C_4  and  C_27
REMARK    2  A    between atoms: C_5  and  C_7
REMARK    3  A    between atoms: C_7  and  N_58
REMARK    4  A    between atoms: C_13  and  C_15
REMARK    5  A    between atoms: C_15  and  C_16
REMARK    6  A    between atoms: N_18  and  C_19
REMARK    7  A    between atoms: C_19  and  C_20
REMARK    8  A    between atoms: C_20  and  O_26
REMARK                            x       y       z     vdW  Elec       q    Type
REMARK                         _______ _______ _______ _____ _____    ______ ____
ROOT
ATOM      1  C   UNL     1      -3.354   3.373  -1.873  0.00  0.00    -0.058 C 
ATOM      2  C   UNL     1      -3.995   3.872  -3.170  0.00  0.00    +0.085 C 
ATOM      3  N   UNL     1      -3.073   4.757  -3.875  0.00  0.00    -0.318 N 
ATOM      4  C   UNL     1      -2.026   5.338  -3.282  0.00  0.00    +0.200 C 
ATOM      5  O   UNL     1      -1.328   6.085  -3.935  0.00  0.00    -0.278 OA
ATOM      6  C   UNL     1      -1.677   5.105  -1.839  0.00  0.00    +0.028 C 
ATOM      7  H   UNL     1      -3.228   4.932  -4.817  0.00  0.00    +0.149 HD
ATOM      8  N   UNL     1      -2.845   4.545  -1.134  0.00  0.00    +0.391 N 
ATOM      9  H   UNL     1      -3.582   5.258  -1.087  0.00  0.00    -0.080 HD
ENDROOT
BRANCH   8  10
ATOM     10  C   UNL     1      -2.466   4.153   0.243  0.00  0.00    -0.041 C 
BRANCH  10  15
ATOM     11  C   UNL     1      -1.041   6.807   2.518  0.00  0.00    +0.000 A 
ATOM     12  C   UNL     1      -2.113   7.672   2.638  0.00  0.00    +0.001 A 
ATOM     13  C   UNL     1      -3.299   7.398   1.983  0.00  0.00    +0.012 A 
ATOM     14  C   UNL     1      -3.413   6.259   1.208  0.00  0.00    +0.056 A 
ATOM     15  C   UNL     1      -2.341   5.395   1.087  0.00  0.00    -0.052 A 
ATOM     16  C   UNL     1      -1.153   5.671   1.738  0.00  0.00    +0.002 A 
BRANCH  14  17
ATOM     17  C   UNL     1      -4.706   5.960   0.494  0.00  0.00    +0.418 C 
ATOM     18  F   UNL     1      -5.644   6.956   0.791  0.00  0.00    -0.166 F 
ATOM     19  F   UNL     1      -4.481   5.929  -0.886  0.00  0.00    -0.166 F 
ATOM     20  F   UNL     1      -5.195   4.719   0.915  0.00  0.00    -0.166 F 
ENDBRANCH  14  17
ENDBRANCH  10  15
ENDBRANCH   8  10
BRANCH   6  21
ATOM     21  C   UNL     1      -1.294   6.436  -1.188  0.00  0.00    +0.089 C 
BRANCH  21  22
ATOM     22  C   UNL     1      -2.413   7.427  -1.374  0.00  0.00    +0.212 C 
ATOM     23  O   UNL     1      -3.369   7.140  -2.062  0.00  0.00    -0.276 OA
ATOM     24  N   UNL     1      -2.352   8.633  -0.775  0.00  0.00    -0.313 N 
ATOM     25  H   UNL     1      -1.557   8.890  -0.283  0.00  0.00    +0.149 HD
BRANCH  24  26
ATOM     26  C   UNL     1      -3.487   9.554  -0.867  0.00  0.00    +0.138 C 
BRANCH  26  27
ATOM     27  C   UNL     1      -3.113  10.890  -0.222  0.00  0.00    +0.081 C 
ATOM     28  C   UNL     1      -2.638  10.649   1.212  0.00  0.00    +0.036 C 
ATOM     29  C   UNL     1      -2.263  11.985   1.857  0.00  0.00    +0.003 C 
ATOM     30  C   UNL     1      -3.486  12.904   1.873  0.00  0.00    +0.000 C 
ATOM     31  C   UNL     1      -3.962  13.146   0.439  0.00  0.00    +0.003 C 
ATOM     32  C   UNL     1      -4.336  11.809  -0.206  0.00  0.00    +0.036 C 
BRANCH  27  33
ATOM     33  O   UNL     1      -2.065  11.505  -0.974  0.00  0.00    -0.387 OA
ATOM     34  H   UNL     1      -1.256  10.977  -1.026  0.00  0.00    +0.210 HD
ENDBRANCH  27  33
ENDBRANCH  26  27
ENDBRANCH  24  26
ENDBRANCH  21  22
ENDBRANCH   6  21
TORSDOF 8
