REMARK  Name = ZINC64152469
REMARK  9 active torsions:
REMARK  status: ('A' for Active; 'I' for Inactive)
REMARK    1  A    between atoms: C_1  and  C_2
REMARK    2  A    between atoms: C_2  and  C_3
REMARK    3  A    between atoms: C_5  and  C_9
REMARK    4  A    between atoms: N_11  and  C_12
REMARK    5  A    between atoms: C_12  and  C_13
REMARK    6  A    between atoms: C_14  and  C_36
REMARK    7  A    between atoms: C_23  and  C_25
REMARK    8  A    between atoms: C_25  and  C_26
REMARK    9  A    between atoms: C_26  and  C_27
REMARK                            x       y       z     vdW  Elec       q    Type
REMARK                         _______ _______ _______ _____ _____    ______ ____
ROOT
ATOM      1  C   UNL     1      -5.117  -3.498  -4.708  0.00  0.00    -0.006 A 
ATOM      2  C   UNL     1      -6.456  -3.254  -4.938  0.00  0.00    +0.043 A 
ATOM      3  N   UNL     1      -6.889  -2.972  -6.152  0.00  0.00    -0.260 NA
ATOM      4  C   UNL     1      -6.069  -2.918  -7.181  0.00  0.00    +0.116 A 
ATOM      5  C   UNL     1      -4.712  -3.154  -7.026  0.00  0.00    -0.008 A 
ATOM      6  C   UNL     1      -4.220  -3.437  -5.769  0.00  0.00    -0.033 A 
ATOM      7  C   UNL     1      -2.762  -3.674  -5.492  0.00  0.00    +0.055 C 
ATOM      8  C   UNL     1      -2.018  -4.038  -6.777  0.00  0.00    +0.113 C 
ATOM      9  N   UNL     1      -2.416  -3.079  -7.821  0.00  0.00    -0.297 N 
ATOM     10  C   UNL     1      -3.825  -3.092  -8.242  0.00  0.00    +0.144 C 
ATOM     11  C   UNL     1      -1.524  -2.232  -8.370  0.00  0.00    +0.216 C 
ATOM     12  O   UNL     1      -0.367  -2.250  -8.006  0.00  0.00    -0.276 OA
ATOM     13  C   UNL     1      -7.433  -3.310  -3.792  0.00  0.00    +0.066 C 
ENDROOT
BRANCH   1  14
ATOM     14  C   UNL     1      -4.631  -3.821  -3.318  0.00  0.00    +0.141 C 
BRANCH  14  17
ATOM     15  C   UNL     1      -3.814  -2.625  -1.359  0.00  0.00    +0.237 C 
ATOM     16  O   UNL     1      -3.691  -3.692  -0.795  0.00  0.00    -0.274 OA
ATOM     17  N   UNL     1      -4.276  -2.580  -2.624  0.00  0.00    -0.309 N 
ATOM     18  H   UNL     1      -4.374  -1.727  -3.075  0.00  0.00    +0.149 HD
BRANCH  15  21
ATOM     19  C   UNL     1      -1.412  -0.526   0.013  0.00  0.00    +0.123 C 
ATOM     20  C   UNL     1      -2.075  -0.868  -1.071  0.00  0.00    +0.047 C 
ATOM     21  C   UNL     1      -3.449  -1.349  -0.645  0.00  0.00    +0.204 C 
ATOM     22  N   UNL     1      -3.273  -1.587   0.811  0.00  0.00    -0.140 NA
ATOM     23  O   UNL     1      -2.143  -0.701   1.140  0.00  0.00    -0.410 OA
ATOM     24  H   UNL     1      -4.102  -1.324   1.324  0.00  0.00    +0.168 HD
BRANCH  19  26
ATOM     25  C   UNL     1      -0.019   1.526   0.010  0.00  0.00    +0.012 C 
ATOM     26  C   UNL     1       0.002  -0.004   0.002  0.00  0.00    +0.073 C 
ENDBRANCH  19  26
ENDBRANCH  15  21
ENDBRANCH  14  17
ENDBRANCH   1  14
BRANCH  11  27
ATOM     27  C   UNL     1      -1.963  -1.262  -9.437  0.00  0.00    +0.100 C 
BRANCH  27  28
ATOM     28  C   UNL     1      -0.765  -0.423  -9.887  0.00  0.00    +0.042 C 
BRANCH  28  29
ATOM     29  C   UNL     1      -1.204   0.547 -10.954  0.00  0.00    -0.041 C 
ATOM     30  C   UNL     1      -1.575   1.836 -10.778  0.00  0.00    -0.001 A 
ATOM     31  C   UNL     1      -1.678   2.688  -9.587  0.00  0.00    +0.010 A 
ATOM     32  C   UNL     1      -2.089   3.968  -9.730  0.00  0.00    +0.001 A 
ATOM     33  C   UNL     1      -2.420   4.501 -10.983  0.00  0.00    +0.002 A 
ATOM     34  C   UNL     1      -2.350   3.780 -12.123  0.00  0.00    +0.026 A 
ATOM     35  C   UNL     1      -1.929   2.422 -12.090  0.00  0.00    +0.043 A 
ATOM     36  N   UNL     1      -1.783   1.531 -13.040  0.00  0.00    -0.380 N 
ATOM     37  C   UNL     1      -1.313   0.278 -12.438  0.00  0.00    +0.144 C 
ATOM     38  H   UNL     1      -1.953   1.676 -13.984  0.00  0.00    +0.160 HD
ENDBRANCH  28  29
ENDBRANCH  27  28
ENDBRANCH  11  27
TORSDOF 7
