REMARK  Name = ZINC67497208
REMARK  10 active torsions:
REMARK  status: ('A' for Active; 'I' for Inactive)
REMARK    1  A    between atoms: C_1  and  C_2
REMARK    2  A    between atoms: C_2  and  C_3
REMARK    3  A    between atoms: C_3  and  C_4
REMARK    4  A    between atoms: C_4  and  N_5
REMARK    5  A    between atoms: C_11  and  N_14
REMARK    6  A    between atoms: C_15  and  C_17
REMARK    7  A    between atoms: N_19  and  C_20
REMARK    8  A    between atoms: C_20  and  C_21
REMARK    9  A    between atoms: N_27  and  C_28
REMARK   10  A    between atoms: N_27  and  C_29
REMARK                            x       y       z     vdW  Elec       q    Type
REMARK                         _______ _______ _______ _____ _____    ______ ____
ROOT
ATOM      1  N   UNL     1       2.196  -6.688   3.829  0.00  0.00    -0.278 N 
ATOM      2  C   UNL     1       2.602  -7.876   4.320  0.00  0.00    +0.303 C 
ATOM      3  O   UNL     1       3.731  -8.002   4.747  0.00  0.00    -0.265 OA
ATOM      4  H   UNL     1       1.272  -6.564   3.562  0.00  0.00    +0.155 HD
ENDROOT
BRANCH   1  11
ATOM      5  N   UNL     1       1.467  -2.312   4.190  0.00  0.00    +0.385 N 
ATOM      6  C   UNL     1       2.791  -1.981   3.617  0.00  0.00    -0.042 C 
ATOM      7  C   UNL     1       3.559  -3.283   3.584  0.00  0.00    -0.061 A 
ATOM      8  C   UNL     1       4.910  -3.551   3.459  0.00  0.00    +0.002 A 
ATOM      9  C   UNL     1       5.361  -4.858   3.457  0.00  0.00    +0.002 A 
ATOM     10  C   UNL     1       4.464  -5.901   3.579  0.00  0.00    +0.023 A 
ATOM     11  C   UNL     1       3.106  -5.636   3.705  0.00  0.00    +0.035 A 
ATOM     12  C   UNL     1       2.656  -4.322   3.707  0.00  0.00    -0.041 A 
ATOM     13  C   UNL     1       1.268  -3.733   3.825  0.00  0.00    -0.040 C 
ATOM     14  H   UNL     1       1.475  -2.202   5.193  0.00  0.00    -0.081 HD
BRANCH   5  15
ATOM     15  C   UNL     1       0.421  -1.475   3.588  0.00  0.00    -0.078 C 
BRANCH  15  16
ATOM     16  C   UNL     1       0.575  -0.034   4.080  0.00  0.00    -0.019 C 
BRANCH  16  18
ATOM     17  C   UNL     1      -0.360   2.279   3.945  0.00  0.00    +0.004 C 
ATOM     18  C   UNL     1      -0.514   0.838   3.453  0.00  0.00    -0.005 C 
ENDBRANCH  16  18
ENDBRANCH  15  16
ENDBRANCH   5  15
ENDBRANCH   1  11
BRANCH   2  19
ATOM     19  C   UNL     1       1.662  -9.037   4.338  0.00  0.00    +0.300 C 
ATOM     20  O   UNL     1       0.533  -8.911   3.910  0.00  0.00    -0.265 OA
ATOM     21  N   UNL     1       2.068 -10.225   4.829  0.00  0.00    -0.303 N 
ATOM     22  H   UNL     1       2.970 -10.325   5.171  0.00  0.00    +0.149 HD
BRANCH  21  23
ATOM     23  C   UNL     1       1.146 -11.363   4.846  0.00  0.00    +0.140 C 
BRANCH  23  24
ATOM     24  C   UNL     1       1.840 -12.562   5.440  0.00  0.00    -0.026 A 
ATOM     25  C   UNL     1       2.548 -13.444   4.634  0.00  0.00    +0.023 A 
ATOM     26  C   UNL     1       3.173 -14.533   5.209  0.00  0.00    +0.084 A 
ATOM     27  N   UNL     1       3.105 -14.742   6.510  0.00  0.00    -0.350 N 
ATOM     28  C   UNL     1       2.441 -13.925   7.312  0.00  0.00    +0.098 A 
ATOM     29  C   UNL     1       1.792 -12.805   6.801  0.00  0.00    +0.047 A 
ATOM     30  N   UNL     1       2.395 -14.184   8.677  0.00  0.00    -0.323 N 
ATOM     31  C   UNL     1       3.081 -15.358   9.223  0.00  0.00    +0.130 C 
ATOM     32  C   UNL     1       1.661 -13.284   9.569  0.00  0.00    +0.130 C 
ATOM     33  H   UNL     1       3.554 -15.515   6.889  0.00  0.00    +0.166 HD
ENDBRANCH  23  24
ENDBRANCH  21  23
ENDBRANCH   2  19
TORSDOF 7
