REMARK  Name = ZINC39604258
REMARK  12 active torsions:
REMARK  status: ('A' for Active; 'I' for Inactive)
REMARK    1  A    between atoms: C_1  and  C_2
REMARK    2  A    between atoms: C_2  and  O_3
REMARK    3  A    between atoms: O_3  and  C_4
REMARK    4  A    between atoms: C_4  and  C_6
REMARK    5  A    between atoms: C_6  and  C_7
REMARK    6  A    between atoms: C_7  and  N_8
REMARK    7  A    between atoms: C_9  and  C_11
REMARK    8  A    between atoms: C_22  and  C_24
REMARK    9  A    between atoms: C_24  and  C_25
REMARK   10  A    between atoms: C_25  and  C_26
REMARK   11  A    between atoms: C_29  and  O_32
REMARK   12  A    between atoms: O_32  and  C_33
REMARK                            x       y       z     vdW  Elec       q    Type
REMARK                         _______ _______ _______ _____ _____    ______ ____
ROOT
ATOM      1  C   UNL     1       3.015  -6.374   4.926  0.00  0.00    +0.100 C 
ATOM      2  C   UNL     1       2.353  -5.886   6.234  0.00  0.00    +0.121 C 
ATOM      3  N   UNL     1       1.404  -6.964   6.599  0.00  0.00    -0.300 N 
ATOM      4  C   UNL     1       2.126  -8.217   6.272  0.00  0.00    +0.115 C 
ATOM      5  C   UNL     1       2.867  -7.904   4.956  0.00  0.00    -0.004 C 
ATOM      6  C   UNL     1       2.044  -8.379   3.763  0.00  0.00    -0.010 C 
ATOM      7  C   UNL     1       1.959  -9.908   3.783  0.00  0.00    -0.082 C 
ATOM      8  N   UNL     1       3.312 -10.476   3.728  0.00  0.00    +0.379 N 
ATOM      9  C   UNL     1       4.067 -10.090   4.926  0.00  0.00    -0.082 C 
ATOM     10  C   UNL     1       4.241  -8.569   4.954  0.00  0.00    -0.010 C 
ATOM     11  C   UNL     1       0.164  -6.835   7.112  0.00  0.00    +0.216 C 
ATOM     12  O   UNL     1      -0.495  -7.822   7.360  0.00  0.00    -0.276 OA
ATOM     13  H   UNL     1       3.251 -11.482   3.680  0.00  0.00    -0.086 HD
ATOM     14  H   UNL     1       3.786 -10.131   2.907  0.00  0.00    -0.086 HD
ENDROOT
BRANCH   1  16
ATOM     15  N   UNL     1       2.968  -5.601   2.577  0.00  0.00    -0.314 N 
ATOM     16  C   UNL     1       2.300  -5.801   3.730  0.00  0.00    +0.218 C 
ATOM     17  O   UNL     1       1.122  -5.521   3.805  0.00  0.00    -0.275 OA
ATOM     18  H   UNL     1       3.910  -5.825   2.518  0.00  0.00    +0.149 HD
BRANCH  15  19
ATOM     19  C   UNL     1       2.273  -5.043   1.415  0.00  0.00    +0.115 C 
BRANCH  19  20
ATOM     20  C   UNL     1       3.252  -4.918   0.246  0.00  0.00    +0.139 C 
BRANCH  20  21
ATOM     21  C   UNL     1       2.537  -4.345  -0.950  0.00  0.00    +0.309 C 
ATOM     22  O   UNL     1       1.364  -4.066  -0.876  0.00  0.00    -0.251 OA
BRANCH  21  23
ATOM     23  O   UNL     1       3.203  -4.146  -2.098  0.00  0.00    -0.465 OA
BRANCH  23  25
ATOM     24  C   UNL     1       3.382  -3.444  -4.404  0.00  0.00    +0.048 C 
ATOM     25  C   UNL     1       2.462  -3.599  -3.192  0.00  0.00    +0.229 C 
ENDBRANCH  23  25
ENDBRANCH  21  23
ENDBRANCH  20  21
ENDBRANCH  19  20
ENDBRANCH  15  19
ENDBRANCH   1  16
BRANCH  11  26
ATOM     26  C   UNL     1      -0.402  -5.464   7.377  0.00  0.00    +0.100 C 
BRANCH  26  27
ATOM     27  C   UNL     1      -1.813  -5.598   7.954  0.00  0.00    +0.044 C 
BRANCH  27  28
ATOM     28  C   UNL     1      -2.380  -4.227   8.220  0.00  0.00    -0.047 A 
ATOM     29  C   UNL     1      -2.179  -3.623   9.447  0.00  0.00    +0.007 A 
ATOM     30  C   UNL     1      -2.698  -2.367   9.693  0.00  0.00    +0.046 A 
ATOM     31  C   UNL     1      -3.421  -1.711   8.707  0.00  0.00    +0.120 A 
ATOM     32  C   UNL     1      -3.620  -2.319   7.476  0.00  0.00    +0.046 A 
ATOM     33  C   UNL     1      -3.095  -3.574   7.233  0.00  0.00    +0.007 A 
BRANCH  31  34
ATOM     34  O   UNL     1      -3.932  -0.475   8.946  0.00  0.00    -0.495 OA
ATOM     35  C   UNL     1      -4.666   0.140   7.886  0.00  0.00    +0.277 C 
ENDBRANCH  31  34
ENDBRANCH  27  28
ENDBRANCH  26  27
ENDBRANCH  11  26
TORSDOF 10
