REMARK  Name = ZINC34834453
REMARK  14 active torsions:
REMARK  status: ('A' for Active; 'I' for Inactive)
REMARK    1  A    between atoms: C_1  and  C_2
REMARK    2  A    between atoms: C_5  and  S_8
REMARK    3  A    between atoms: S_8  and  O_11
REMARK    4  A    between atoms: O_11  and  C_12
REMARK    5  A    between atoms: C_15  and  C_18
REMARK    6  A    between atoms: C_19  and  N_27
REMARK    7  A    between atoms: N_27  and  C_28
REMARK    8  A    between atoms: C_28  and  C_29
REMARK    9  A    between atoms: C_28  and  C_30
REMARK   10  A    between atoms: C_28  and  C_31
REMARK   11  A    between atoms: C_31  and  C_32
REMARK   12  A    between atoms: C_32  and  C_33
REMARK   13  A    between atoms: C_32  and  C_34
REMARK   14  A    between atoms: C_32  and  C_35
REMARK                            x       y       z     vdW  Elec       q    Type
REMARK                         _______ _______ _______ _____ _____    ______ ____
ROOT
ATOM      1  C   UNL     1       4.774  -5.490   7.444  0.00  0.00    +0.087 A 
ATOM      2  C   UNL     1       5.728  -6.382   7.001  0.00  0.00    +0.129 A 
ATOM      3  N   UNL     1       6.732  -6.381   7.928  0.00  0.00    -0.289 N 
ATOM      4  C   UNL     1       7.916  -7.064   8.006  0.00  0.00    +0.094 A 
ATOM      5  C   UNL     1       8.749  -6.878   9.049  0.00  0.00    +0.018 A 
ATOM      6  C   UNL     1       8.412  -5.976  10.075  0.00  0.00    +0.005 A 
ATOM      7  C   UNL     1       7.241  -5.288  10.013  0.00  0.00    +0.045 A 
ATOM      8  C   UNL     1       6.376  -5.492   8.916  0.00  0.00    +0.117 A 
ATOM      9  N   UNL     1       5.203  -4.964   8.605  0.00  0.00    -0.338 N 
ATOM     10  H   UNL     1       4.727  -4.305   9.133  0.00  0.00    +0.167 HD
ENDROOT
BRANCH   1  14
ATOM     11  C   UNL     1       1.126  -4.549   5.471  0.00  0.00    +0.157 A 
ATOM     12  C   UNL     1       1.898  -3.534   6.021  0.00  0.00    +0.049 A 
ATOM     13  C   UNL     1       3.082  -3.836   6.661  0.00  0.00    +0.014 A 
ATOM     14  C   UNL     1       3.503  -5.162   6.757  0.00  0.00    +0.002 A 
ATOM     15  C   UNL     1       2.724  -6.179   6.204  0.00  0.00    +0.014 A 
ATOM     16  C   UNL     1       1.539  -5.870   5.570  0.00  0.00    +0.049 A 
BRANCH  11  17
ATOM     17  O   UNL     1      -0.040  -4.248   4.841  0.00  0.00    -0.342 OA
BRANCH  17  18
ATOM     18  S   UNL     1      -1.254  -4.235   5.758  0.00  0.00    +0.151 S 
ATOM     19  O   UNL     1      -1.088  -5.314   6.667  0.00  0.00    -0.131 OA
ATOM     20  O   UNL     1      -2.395  -4.115   4.919  0.00  0.00    -0.131 OA
BRANCH  18  25
ATOM     21  C   UNL     1      -0.973   0.831   9.024  0.00  0.00    +0.044 C 
ATOM     22  C   UNL     1      -1.043  -0.435   8.208  0.00  0.00    -0.050 A 
ATOM     23  C   UNL     1      -1.703  -0.438   6.993  0.00  0.00    +0.005 A 
ATOM     24  C   UNL     1      -1.767  -1.599   6.245  0.00  0.00    +0.031 A 
ATOM     25  C   UNL     1      -1.172  -2.756   6.711  0.00  0.00    +0.128 A 
ATOM     26  C   UNL     1      -0.511  -2.752   7.925  0.00  0.00    +0.031 A 
ATOM     27  C   UNL     1      -0.443  -1.590   8.672  0.00  0.00    +0.005 A 
ENDBRANCH  18  25
ENDBRANCH  17  18
ENDBRANCH  11  17
ENDBRANCH   1  14
BRANCH   2  28
ATOM     28  N   UNL     1       5.676  -7.141   5.830  0.00  0.00    -0.323 N 
ATOM     29  H   UNL     1       4.985  -6.971   5.171  0.00  0.00    +0.148 HD
BRANCH  28  30
ATOM     30  C   UNL     1       6.667  -8.196   5.598  0.00  0.00    +0.028 C 
ATOM     31  C   UNL     1       8.050  -7.567   5.422  0.00  0.00    +0.031 C 
ATOM     32  C   UNL     1       6.688  -9.149   6.794  0.00  0.00    +0.031 C 
BRANCH  30  33
ATOM     33  C   UNL     1       6.296  -8.973   4.333  0.00  0.00    +0.031 C 
BRANCH  33  34
ATOM     34  C   UNL     1       4.777  -9.147   4.268  0.00  0.00    -0.036 C 
ATOM     35  C   UNL     1       4.168  -8.007   3.450  0.00  0.00    +0.010 C 
ATOM     36  C   UNL     1       4.444 -10.485   3.605  0.00  0.00    +0.010 C 
ATOM     37  C   UNL     1       4.200  -9.123   5.685  0.00  0.00    +0.010 C 
ENDBRANCH  33  34
ENDBRANCH  30  33
ENDBRANCH  28  30
ENDBRANCH   2  28
TORSDOF 8
