REMARK  Name = ZINC44681733
REMARK  6 active torsions:
REMARK  status: ('A' for Active; 'I' for Inactive)
REMARK    1  A    between atoms: C_4  and  C_26
REMARK    2  A    between atoms: C_6  and  O_7
REMARK    3  A    between atoms: C_13  and  C_15
REMARK    4  A    between atoms: C_21  and  C_23
REMARK    5  A    between atoms: C_23  and  C_24
REMARK    6  A    between atoms: C_24  and  N_25
REMARK                            x       y       z     vdW  Elec       q    Type
REMARK                         _______ _______ _______ _____ _____    ______ ____
ROOT
ATOM      1  C   UNL     1       0.068   1.390   0.191  0.00  0.00    +0.024 A 
ATOM      2  C   UNL     1       1.234   2.086   0.158  0.00  0.00    +0.014 A 
ATOM      3  C   UNL     1       2.441   1.421  -0.122  0.00  0.00    +0.029 A 
ATOM      4  C   UNL     1       3.662   2.126  -0.160  0.00  0.00    +0.072 A 
ATOM      5  C   UNL     1       4.819   1.426  -0.439  0.00  0.00    +0.100 A 
ATOM      6  C   UNL     1       4.761   0.059  -0.673  0.00  0.00    +0.285 A 
ATOM      7  O   UNL     1       3.601  -0.605  -0.635  0.00  0.00    -0.425 OA
ATOM      8  C   UNL     1       2.442   0.030  -0.368  0.00  0.00    +0.141 A 
ATOM      9  C   UNL     1       1.248  -0.669  -0.332  0.00  0.00    +0.070 A 
ATOM     10  C   UNL     1       0.059   0.005  -0.053  0.00  0.00    +0.037 A 
ATOM     11  N   UNL     1      -1.116  -0.681  -0.017  0.00  0.00    -0.284 N 
ATOM     12  C   UNL     1      -1.109  -1.997   0.072  0.00  0.00    +0.238 C 
ATOM     13  O   UNL     1      -0.059  -2.590   0.245  0.00  0.00    -0.273 OA
ATOM     14  H   UNL     1      -1.959  -0.202  -0.056  0.00  0.00    +0.155 HD
ENDROOT
BRANCH  12  15
ATOM     15  C   UNL     1      -2.400  -2.767  -0.041  0.00  0.00    +0.162 C 
ATOM     16  C   UNL     1      -3.033  -2.530  -1.429  0.00  0.00    +0.033 C 
ATOM     17  C   UNL     1      -2.569  -3.769  -2.238  0.00  0.00    +0.021 C 
ATOM     18  C   UNL     1      -2.593  -4.876  -1.154  0.00  0.00    +0.108 C 
ATOM     19  N   UNL     1      -2.135  -4.207   0.081  0.00  0.00    -0.290 N 
ATOM     20  C   UNL     1      -1.566  -4.814   1.142  0.00  0.00    +0.214 C 
ATOM     21  O   UNL     1      -1.226  -4.160   2.105  0.00  0.00    -0.276 OA
BRANCH  20  22
ATOM     22  C   UNL     1      -1.354  -6.306   1.131  0.00  0.00    +0.076 C 
BRANCH  22  23
ATOM     23  C   UNL     1      -0.697  -6.737   2.445  0.00  0.00    -0.077 C 
BRANCH  23  24
ATOM     24  N   UNL     1      -0.490  -8.191   2.435  0.00  0.00    +0.378 N 
ATOM     25  H   UNL     1      -1.379  -8.657   2.335  0.00  0.00    -0.090 HD
ATOM     26  H   UNL     1       0.109  -8.440   1.662  0.00  0.00    -0.090 HD
ATOM     27  H   UNL     1      -0.057  -8.475   3.301  0.00  0.00    -0.090 HD
ENDBRANCH  23  24
ENDBRANCH  22  23
ENDBRANCH  20  22
ENDBRANCH  12  15
BRANCH   4  28
ATOM     28  C   UNL     1       3.703   3.610   0.097  0.00  0.00    +0.418 C 
ATOM     29  F   UNL     1       3.113   3.886   1.334  0.00  0.00    -0.166 F 
ATOM     30  F   UNL     1       5.033   4.045   0.107  0.00  0.00    -0.166 F 
ATOM     31  F   UNL     1       3.002   4.278  -0.914  0.00  0.00    -0.166 F 
ENDBRANCH   4  28
BRANCH   6  32
ATOM     32  O   UNL     1       5.897  -0.612  -0.943  0.00  0.00    -0.480 OA
ATOM     33  H   UNL     1       5.769  -1.558  -1.093  0.00  0.00    +0.295 HD
ENDBRANCH   6  32
TORSDOF 6
