REMARK  Name = ZINC36586608
REMARK  15 active torsions:
REMARK  status: ('A' for Active; 'I' for Inactive)
REMARK    1  A    between atoms: C_1  and  C_2
REMARK    2  A    between atoms: C_5  and  S_8
REMARK    3  A    between atoms: S_8  and  C_11
REMARK    4  A    between atoms: C_11  and  N_12
REMARK    5  A    between atoms: C_13  and  C_15
REMARK    6  A    between atoms: C_15  and  C_17
REMARK    7  A    between atoms: C_15  and  N_24
REMARK    8  A    between atoms: C_20  and  O_23
REMARK    9  A    between atoms: N_24  and  C_35
REMARK   10  A    between atoms: C_25  and  C_27
REMARK   11  A    between atoms: C_28  and  O_34
REMARK   12  A    between atoms: C_32  and  O_33
REMARK   13  A    between atoms: C_35  and  C_36
REMARK   14  A    between atoms: C_35  and  C_37
REMARK   15  A    between atoms: C_35  and  C_38
REMARK                            x       y       z     vdW  Elec       q    Type
REMARK                         _______ _______ _______ _____ _____    ______ ____
ROOT
ATOM      1  C   UNL     1       2.255  -4.089   4.274  0.00  0.00    +0.193 C 
ENDROOT
BRANCH   1   2
ATOM      2  C   UNL     1       3.607  -3.515   4.611  0.00  0.00    -0.018 A 
ATOM      3  C   UNL     1       4.754  -4.228   4.312  0.00  0.00    +0.009 A 
ATOM      4  C   UNL     1       5.994  -3.703   4.620  0.00  0.00    +0.046 A 
ATOM      5  C   UNL     1       6.089  -2.460   5.229  0.00  0.00    +0.117 A 
ATOM      6  C   UNL     1       4.937  -1.747   5.527  0.00  0.00    +0.046 A 
ATOM      7  C   UNL     1       3.699  -2.273   5.213  0.00  0.00    +0.009 A 
BRANCH   5   8
ATOM      8  O   UNL     1       7.308  -1.943   5.533  0.00  0.00    -0.507 OA
ATOM      9  H   UNL     1       7.695  -1.407   4.828  0.00  0.00    +0.292 HD
ENDBRANCH   5   8
ENDBRANCH   1   2
BRANCH   1  11
ATOM     10  N   UNL     1       1.856  -2.268   2.648  0.00  0.00    -0.294 N 
ATOM     11  C   UNL     1       1.819  -3.587   2.922  0.00  0.00    +0.239 C 
ATOM     12  O   UNL     1       1.434  -4.371   2.080  0.00  0.00    -0.273 OA
ATOM     13  H   UNL     1       2.164  -1.642   3.322  0.00  0.00    +0.150 HD
BRANCH  10  14
ATOM     14  C   UNL     1       1.432  -1.780   1.334  0.00  0.00    +0.278 C 
BRANCH  14  15
ATOM     15  S   UNL     1      -0.308  -1.275   1.409  0.00  0.00    +0.013 S 
ATOM     16  O   UNL     1      -1.081  -2.276   2.057  0.00  0.00    -0.168 OA
ATOM     17  O   UNL     1      -0.717  -0.740   0.158  0.00  0.00    -0.168 OA
BRANCH  15  22
ATOM     18  C   UNL     1      -0.398   3.424   5.193  0.00  0.00    +0.044 C 
ATOM     19  C   UNL     1      -0.375   2.251   4.248  0.00  0.00    -0.050 A 
ATOM     20  C   UNL     1      -0.188   2.457   2.894  0.00  0.00    +0.005 A 
ATOM     21  C   UNL     1      -0.167   1.381   2.027  0.00  0.00    +0.027 A 
ATOM     22  C   UNL     1      -0.334   0.098   2.514  0.00  0.00    +0.090 A 
ATOM     23  C   UNL     1      -0.520  -0.109   3.868  0.00  0.00    +0.027 A 
ATOM     24  C   UNL     1      -0.537   0.967   4.736  0.00  0.00    +0.005 A 
ENDBRANCH  15  22
ENDBRANCH  14  15
ENDBRANCH  10  14
ENDBRANCH   1  11
BRANCH   1  25
ATOM     25  N   UNL     1       2.339  -5.552   4.249  0.00  0.00    -0.277 N 
ATOM     26  C   UNL     1       2.980  -6.173   3.239  0.00  0.00    +0.255 C 
ATOM     27  O   UNL     1       3.441  -5.522   2.320  0.00  0.00    -0.270 OA
BRANCH  26  28
ATOM     28  C   UNL     1       3.123  -7.638   3.248  0.00  0.00    +0.119 A 
ATOM     29  C   UNL     1       2.139  -8.447   2.662  0.00  0.00    +0.133 A 
ATOM     30  C   UNL     1       2.283  -9.825   2.675  0.00  0.00    +0.046 A 
ATOM     31  C   UNL     1       3.392 -10.403   3.265  0.00  0.00    +0.007 A 
ATOM     32  C   UNL     1       4.368  -9.615   3.846  0.00  0.00    +0.046 A 
ATOM     33  C   UNL     1       4.246  -8.235   3.838  0.00  0.00    +0.133 A 
BRANCH  33  34
ATOM     34  O   UNL     1       5.208  -7.463   4.404  0.00  0.00    -0.506 OA
ATOM     35  H   UNL     1       5.061  -7.276   5.342  0.00  0.00    +0.292 HD
ENDBRANCH  33  34
BRANCH  29  36
ATOM     36  O   UNL     1       1.049  -7.883   2.083  0.00  0.00    -0.506 OA
ATOM     37  H   UNL     1       1.162  -7.681   1.144  0.00  0.00    +0.292 HD
ENDBRANCH  29  36
ENDBRANCH  26  28
BRANCH  25  38
ATOM     38  C   UNL     1       1.725  -6.339   5.321  0.00  0.00    +0.030 C 
ATOM     39  C   UNL     1       0.969  -5.407   6.269  0.00  0.00    +0.031 C 
ATOM     40  C   UNL     1       0.751  -7.352   4.717  0.00  0.00    +0.031 C 
ATOM     41  C   UNL     1       2.815  -7.081   6.097  0.00  0.00    +0.031 C 
ENDBRANCH  25  38
ENDBRANCH   1  25
TORSDOF 11
