REMARK  Name = ZINC12441224
REMARK  13 active torsions:
REMARK  status: ('A' for Active; 'I' for Inactive)
REMARK    1  A    between atoms: C_10  and  C_11
REMARK    2  A    between atoms: C_10  and  N_56
REMARK    3  A    between atoms: C_11  and  C_13
REMARK    4  A    between atoms: C_11  and  O_27
REMARK    5  A    between atoms: C_13  and  O_14
REMARK    6  A    between atoms: O_14  and  C_15
REMARK    7  A    between atoms: C_20  and  C_21
REMARK    8  A    between atoms: C_21  and  N_58
REMARK    9  A    between atoms: CA_22  and  C_23
REMARK   10  A    between atoms: CA_22  and  CB_25
REMARK   11  A    between atoms: CA_22  and  N_58
REMARK   12  A    between atoms: C_23  and  O_24
REMARK   13  A    between atoms: CB_25  and  OG_26
REMARK                            x       y       z     vdW  Elec       q    Type
REMARK                         _______ _______ _______ _____ _____    ______ ____
ROOT
ATOM      1  O   UNL     1      -3.024   2.951   0.204  0.00  0.00    -0.489 OA
ENDROOT
BRANCH   1   2
ATOM      2  C   UNL     1      -3.375   1.972  -0.671  0.00  0.00    +0.122 A 
ATOM      3  C   UNL     1      -4.601   1.334  -0.544  0.00  0.00    +0.046 A 
ATOM      4  C   UNL     1      -4.956   0.340  -1.435  0.00  0.00    +0.004 A 
ATOM      5  C   UNL     1      -4.091  -0.019  -2.453  0.00  0.00    +0.000 A 
ATOM      6  C   UNL     1      -2.872   0.619  -2.585  0.00  0.00    +0.005 A 
ATOM      7  C   UNL     1      -2.510   1.610  -1.693  0.00  0.00    -0.023 A 
BRANCH   7   8
ATOM      8  C   ACE A   0      -1.178   2.302  -1.834  0.00  0.00    -0.043 C 
BRANCH   8   9
ATOM      9  N   UNL     1      -0.227   1.722  -0.867  0.00  0.00    +0.387 N 
ATOM     10  H1  UNL     1      -0.121   0.718  -1.057  0.00  0.00    -0.085 HD
ATOM     11  H2  UNL     1      -0.590   1.853   0.084  0.00  0.00    -0.085 HD
BRANCH   9  12
ATOM     12  CA  UNL     1       1.087   2.381  -0.983  0.00  0.00    -0.020 C 
BRANCH  12  13
ATOM     13  C   UNL     1       1.833   2.252   0.346  0.00  0.00    +0.142 C 
BRANCH  13  14
ATOM     14  O   UNL     1       2.115   0.874   0.603  0.00  0.00    -0.397 OA
ATOM     15  H   UNL     1       2.587   0.717   1.431  0.00  0.00    +0.209 HD
ENDBRANCH  13  14
ENDBRANCH  12  13
BRANCH  12  16
ATOM     16  CB  UNL     1       1.900   1.708  -2.091  0.00  0.00    +0.142 C 
BRANCH  16  17
ATOM     17  O   UNL     1       2.179   0.356  -1.723  0.00  0.00    -0.397 OA
ATOM     18  H   UNL     1       2.692  -0.133  -2.381  0.00  0.00    +0.209 HD
ENDBRANCH  16  17
ENDBRANCH  12  16
ENDBRANCH   9  12
ENDBRANCH   8   9
ENDBRANCH   7   8
ENDBRANCH   1   2
BRANCH   1  19
ATOM     19  C   UNL     1      -3.964   3.271   1.230  0.00  0.00    +0.258 C 
BRANCH  19  20
ATOM     20  C   UNL     1      -3.397   4.386   2.111  0.00  0.00    +0.135 C 
BRANCH  20  21
ATOM     21  O   UNL     1      -3.260   5.581   1.338  0.00  0.00    -0.390 OA
ATOM     22  H   UNL     1      -4.091   5.906   0.966  0.00  0.00    +0.210 HD
ENDBRANCH  20  21
BRANCH  20  23
ATOM     23  C   UNL     1      -4.347   4.644   3.283  0.00  0.00    -0.043 C 
BRANCH  23  33
ATOM     24  C   UNL     1      -3.146   9.068   7.788  0.00  0.00    +0.000 A 
ATOM     25  C   UNL     1      -4.510   9.016   7.567  0.00  0.00    +0.000 A 
ATOM     26  C   UNL     1      -5.028   8.093   6.681  0.00  0.00    +0.002 A 
ATOM     27  C   UNL     1      -4.188   7.217   6.010  0.00  0.00    -0.061 A 
ATOM     28  C   UNL     1      -2.828   7.272   6.228  0.00  0.00    -0.048 A 
ATOM     29  C   UNL     1      -2.309   8.198   7.119  0.00  0.00    +0.004 A 
ATOM     30  C   UNL     1      -1.875   6.345   5.517  0.00  0.00    +0.017 C 
ATOM     31  C   UNL     1      -2.642   5.162   4.925  0.00  0.00    -0.074 C 
ATOM     32  C   UNL     1      -4.801   6.226   5.056  0.00  0.00    -0.043 C 
ATOM     33  N   UNL     1      -3.772   5.703   4.141  0.00  0.00    +0.384 N 
ATOM     34  H   UNL     1      -3.433   6.467   3.546  0.00  0.00    -0.081 HD
ENDBRANCH  23  33
ENDBRANCH  20  23
ENDBRANCH  19  20
ENDBRANCH   1  19
TORSDOF 13
