REMARK  Name = ZINC43138395
REMARK  8 active torsions:
REMARK  status: ('A' for Active; 'I' for Inactive)
REMARK    1  A    between atoms: C_1  and  N_2
REMARK    2  A    between atoms: N_2  and  C_3
REMARK    3  A    between atoms: N_2  and  C_4
REMARK    4  A    between atoms: C_4  and  C_6
REMARK    5  A    between atoms: C_4  and  C_24
REMARK    6  A    between atoms: C_6  and  N_7
REMARK    7  A    between atoms: N_10  and  N_11
REMARK    8  A    between atoms: C_12  and  C_14
REMARK                            x       y       z     vdW  Elec       q    Type
REMARK                         _______ _______ _______ _____ _____    ______ ____
ROOT
ATOM      1  N   UNL     1      -0.923  -2.532   0.575  0.00  0.00    -0.299 N 
ATOM      2  C   UNL     1      -0.990  -3.877   0.545  0.00  0.00    +0.316 C 
ATOM      3  O   UNL     1      -1.651  -4.435  -0.310  0.00  0.00    -0.251 OA
ATOM      4  N   UNL     1      -0.325  -4.605   1.464  0.00  0.00    -0.218 N 
ATOM      5  H   UNL     1      -0.396  -2.087   1.257  0.00  0.00    +0.150 HD
ATOM      6  H   UNL     1      -0.374  -5.574   1.444  0.00  0.00    +0.174 HD
ENDROOT
BRANCH   4   7
ATOM      7  N   UNL     1       0.436  -3.963   2.450  0.00  0.00    -0.228 N 
ATOM      8  C   UNL     1       1.101  -4.691   3.369  0.00  0.00    +0.279 C 
ATOM      9  O   UNL     1       1.040  -5.904   3.343  0.00  0.00    -0.267 OA
ATOM     10  H   UNL     1       0.484  -2.994   2.471  0.00  0.00    +0.173 HD
BRANCH   8  11
ATOM     11  C   UNL     1       1.906  -4.011   4.412  0.00  0.00    +0.127 A 
ATOM     12  C   UNL     1       2.596  -4.785   5.357  0.00  0.00    +0.034 A 
ATOM     13  C   UNL     1       3.341  -4.171   6.322  0.00  0.00    +0.012 A 
ATOM     14  C   UNL     1       3.390  -2.764   6.333  0.00  0.00    +0.000 A 
ATOM     15  C   UNL     1       4.136  -2.068   7.296  0.00  0.00    +0.010 A 
ATOM     16  C   UNL     1       4.160  -0.707   7.276  0.00  0.00    +0.001 A 
ATOM     17  C   UNL     1       3.452   0.007   6.309  0.00  0.00    +0.002 A 
ATOM     18  C   UNL     1       2.718  -0.633   5.361  0.00  0.00    +0.028 A 
ATOM     19  C   UNL     1       2.668  -2.040   5.348  0.00  0.00    +0.072 A 
ATOM     20  N   UNL     1       1.961  -2.694   4.426  0.00  0.00    -0.242 NA
ENDBRANCH   8  11
ENDBRANCH   4   7
BRANCH   1  21
ATOM     21  C   UNL     1      -1.646  -1.740  -0.424  0.00  0.00    +0.098 C 
BRANCH  21  22
ATOM     22  C   UNL     1      -1.509  -0.253  -0.093  0.00  0.00    +0.016 C 
BRANCH  22  23
ATOM     23  C   UNL     1      -0.068   0.163  -0.236  0.00  0.00    +0.093 A 
ATOM     24  C   UNL     1       0.463   0.808  -1.290  0.00  0.00    +0.043 A 
ATOM     25  C   UNL     1       1.835   0.997  -1.005  0.00  0.00    +0.041 A 
ATOM     26  C   UNL     1       2.060   0.457   0.206  0.00  0.00    +0.195 A 
ATOM     27  O   UNL     1       0.902  -0.041   0.669  0.00  0.00    -0.469 OA
ENDBRANCH  22  23
BRANCH  22  29
ATOM     28  C   UNL     1      -1.813   1.411   1.609  0.00  0.00    -0.096 C 
ATOM     29  N   UNL     1      -1.953  -0.016   1.287  0.00  0.00    +0.384 N 
ATOM     30  C   UNL     1      -3.360  -0.413   1.425  0.00  0.00    -0.096 C 
ATOM     31  H   UNL     1      -1.386  -0.560   1.921  0.00  0.00    -0.082 HD
ENDBRANCH  22  29
ENDBRANCH  21  22
ENDBRANCH   1  21
TORSDOF 6
