REMARK  Name = ZINC13474056
REMARK  13 active torsions:
REMARK  status: ('A' for Active; 'I' for Inactive)
REMARK    1  A    between atoms: C_1  and  C_2
REMARK    2  A    between atoms: C_4  and  O_22
REMARK    3  A    between atoms: C_6  and  O_9
REMARK    4  A    between atoms: O_9  and  C_10
REMARK    5  A    between atoms: C_11  and  O_20
REMARK    6  A    between atoms: C_14  and  C_18
REMARK    7  A    between atoms: C_15  and  O_16
REMARK    8  A    between atoms: O_16  and  C_17
REMARK    9  A    between atoms: O_20  and  C_21
REMARK   10  A    between atoms: O_22  and  C_23
REMARK   11  A    between atoms: C_27  and  N_29
REMARK   12  A    between atoms: N_29  and  C_30
REMARK   13  A    between atoms: N_29  and  C_31
REMARK                            x       y       z     vdW  Elec       q    Type
REMARK                         _______ _______ _______ _____ _____    ______ ____
ROOT
ATOM      1  C   UNL     1      -2.624   2.205   0.103  0.00  0.00    +0.050 C 
ATOM      2  C   UNL     1      -2.147   0.776   0.067  0.00  0.00    +0.030 A 
ATOM      3  C   UNL     1      -1.847   0.099   1.240  0.00  0.00    +0.191 A 
ATOM      4  C   UNL     1      -1.409  -1.218   1.169  0.00  0.00    +0.260 A 
ATOM      5  N   UNL     1      -1.276  -1.825   0.001  0.00  0.00    -0.172 NA
ATOM      6  C   UNL     1      -1.554  -1.208  -1.137  0.00  0.00    +0.260 A 
ATOM      7  C   UNL     1      -2.002   0.108  -1.140  0.00  0.00    +0.191 A 
ATOM      8  F   UNL     1      -2.288   0.730  -2.304  0.00  0.00    -0.200 F 
ATOM      9  F   UNL     1      -1.979   0.712   2.436  0.00  0.00    -0.200 F 
ENDROOT
BRANCH   6  10
ATOM     10  O   UNL     1      -1.403  -1.869  -2.313  0.00  0.00    -0.428 OA
BRANCH  10  11
ATOM     11  C   UNL     1      -0.968  -3.157  -2.270  0.00  0.00    +0.214 A 
ATOM     12  C   UNL     1       0.394  -3.433  -2.324  0.00  0.00    +0.166 A 
ATOM     13  C   UNL     1       0.843  -4.747  -2.276  0.00  0.00    +0.050 A 
ATOM     14  C   UNL     1      -0.058  -5.786  -2.185  0.00  0.00    +0.018 A 
ATOM     15  C   UNL     1      -1.428  -5.521  -2.136  0.00  0.00    +0.058 A 
ATOM     16  C   UNL     1      -1.883  -4.197  -2.179  0.00  0.00    +0.176 A 
BRANCH  15  17
ATOM     17  C   UNL     1      -2.394  -6.634  -2.039  0.00  0.00    +0.098 C 
ATOM     18  N   UNL     1      -1.944  -7.936  -1.997  0.00  0.00    -0.344 N 
ATOM     19  H   UNL     1      -4.387  -7.047  -1.930  0.00  0.00    +0.157 HD
ATOM     20  H   UNL     1      -0.993  -8.122  -2.030  0.00  0.00    +0.144 HD
ATOM     21  H   UNL     1      -2.579  -8.667  -1.933  0.00  0.00    +0.144 HD
ATOM     22  N   UNL     1      -3.680  -6.314  -1.997  0.00  0.00    -0.387 N 
ATOM     23  H   UNL     1      -3.966  -5.328  -2.032  0.00  0.00    +0.157 HD
ENDBRANCH  15  17
BRANCH  16  24
ATOM     24  O   UNL     1      -3.214  -3.932  -2.132  0.00  0.00    -0.491 OA
ATOM     25  C   UNL     1      -3.907  -3.866  -3.380  0.00  0.00    +0.277 C 
ENDBRANCH  16  24
BRANCH  12  26
ATOM     26  O   UNL     1       1.289  -2.415  -2.420  0.00  0.00    -0.491 OA
ATOM     27  C   UNL     1       2.672  -2.769  -2.471  0.00  0.00    +0.277 C 
ENDBRANCH  12  26
ENDBRANCH  10  11
ENDBRANCH   6  10
BRANCH   4  28
ATOM     28  O   UNL     1      -1.113  -1.889   2.312  0.00  0.00    -0.436 OA
BRANCH  28  29
ATOM     29  C   UNL     1      -0.783  -3.204   2.212  0.00  0.00    +0.132 A 
ATOM     30  C   UNL     1       0.481  -3.571   1.772  0.00  0.00    +0.046 A 
ATOM     31  C   UNL     1       0.818  -4.907   1.670  0.00  0.00    +0.005 A 
ATOM     32  C   UNL     1      -0.102  -5.882   2.007  0.00  0.00    +0.023 A 
ATOM     33  C   UNL     1      -1.369  -5.520   2.449  0.00  0.00    +0.033 A 
ATOM     34  C   UNL     1      -1.707  -4.178   2.556  0.00  0.00    +0.069 A 
BRANCH  33  35
ATOM     35  N   UNL     1      -2.298  -6.505   2.789  0.00  0.00    -0.336 N 
ATOM     36  C   UNL     1      -1.938  -7.921   2.680  0.00  0.00    +0.129 C 
ATOM     37  C   UNL     1      -3.634  -6.122   3.255  0.00  0.00    +0.129 C 
ENDBRANCH  33  35
ENDBRANCH  28  29
ENDBRANCH   4  28
TORSDOF 8
