REMARK  Name = ZINC33663761
REMARK  15 active torsions:
REMARK  status: ('A' for Active; 'I' for Inactive)
REMARK    1  A    between atoms: C_1  and  C_2
REMARK    2  A    between atoms: C_2  and  C_3
REMARK    3  A    between atoms: C_3  and  C_4
REMARK    4  A    between atoms: C_4  and  C_5
REMARK    5  A    between atoms: C_8  and  C_11
REMARK    6  A    between atoms: N_13  and  C_14
REMARK    7  A    between atoms: N_13  and  C_21
REMARK    8  A    between atoms: C_14  and  C_15
REMARK    9  A    between atoms: C_15  and  C_16
REMARK   10  A    between atoms: C_16  and  C_17
REMARK   11  A    between atoms: C_17  and  C_18
REMARK   12  A    between atoms: C_18  and  C_19
REMARK   13  A    between atoms: C_19  and  N_20
REMARK   14  A    between atoms: C_21  and  C_23
REMARK   15  A    between atoms: C_21  and  C_24
REMARK                            x       y       z     vdW  Elec       q    Type
REMARK                         _______ _______ _______ _____ _____    ______ ____
ROOT
ATOM      1  C   UNL     1       1.196   2.174  -0.330  0.00  0.00    +0.247 C 
ATOM      2  O   UNL     1       1.317   1.254  -1.115  0.00  0.00    -0.270 OA
ATOM      3  N   UNL     1       0.001   2.778  -0.178  0.00  0.00    -0.288 N 
ENDROOT
BRANCH   1   7
ATOM      4  C   UNL     1       4.547   3.484   1.929  0.00  0.00    -0.047 A 
ATOM      5  C   UNL     1       4.362   2.134   1.692  0.00  0.00    +0.004 A 
ATOM      6  C   UNL     1       3.274   1.701   0.961  0.00  0.00    +0.013 A 
ATOM      7  C   UNL     1       2.361   2.630   0.460  0.00  0.00    +0.037 A 
ATOM      8  C   UNL     1       2.554   3.990   0.702  0.00  0.00    +0.013 A 
ATOM      9  C   UNL     1       3.644   4.409   1.436  0.00  0.00    +0.004 A 
BRANCH   4  10
ATOM     10  C   UNL     1       5.736   3.949   2.729  0.00  0.00    +0.035 C 
BRANCH  10  11
ATOM     11  C   UNL     1       6.912   4.213   1.787  0.00  0.00    +0.004 C 
BRANCH  11  13
ATOM     12  C   UNL     1       9.296   4.950   1.656  0.00  0.00    +0.004 C 
ATOM     13  C   UNL     1       8.120   4.685   2.599  0.00  0.00    -0.003 C 
ENDBRANCH  11  13
ENDBRANCH  10  11
ENDBRANCH   4  10
ENDBRANCH   1   7
BRANCH   3  14
ATOM     14  C   UNL     1      -0.062   4.210   0.126  0.00  0.00    +0.139 C 
ATOM     15  C   UNL     1       0.629   5.000  -0.987  0.00  0.00    +0.036 C 
BRANCH  14  16
ATOM     16  C   UNL     1       0.633   4.476   1.437  0.00  0.00    +0.131 A 
ATOM     17  N   UNL     1       1.037   5.731   1.700  0.00  0.00    -0.232 NA
ATOM     18  H   UNL     1       0.452   2.473   1.985  0.00  0.00    +0.170 HD
ATOM     19  C   UNL     1       1.679   6.026   2.887  0.00  0.00    +0.078 A 
ATOM     20  C   UNL     1       2.114   7.309   3.188  0.00  0.00    +0.028 A 
ATOM     21  C   UNL     1       2.756   7.549   4.384  0.00  0.00    +0.002 A 
ATOM     22  C   UNL     1       2.976   6.521   5.289  0.00  0.00    +0.001 A 
ATOM     23  C   UNL     1       2.556   5.239   5.006  0.00  0.00    +0.015 A 
ATOM     24  C   UNL     1       1.907   4.982   3.801  0.00  0.00    +0.065 A 
ATOM     25  C   UNL     1       1.433   3.634   3.440  0.00  0.00    +0.259 A 
ATOM     26  O   UNL     1       1.597   2.689   4.192  0.00  0.00    -0.267 OA
ATOM     27  N   UNL     1       0.812   3.477   2.255  0.00  0.00    -0.309 N 
ENDBRANCH  14  16
ENDBRANCH   3  14
BRANCH   3  28
ATOM     28  C   UNL     1      -1.234   2.004  -0.319  0.00  0.00    +0.109 C 
BRANCH  28  29
ATOM     29  C   UNL     1      -1.637   1.435   1.043  0.00  0.00    +0.019 C 
BRANCH  29  30
ATOM     30  C   UNL     1      -2.928   0.627   0.897  0.00  0.00    +0.001 C 
BRANCH  30  31
ATOM     31  C   UNL     1      -3.331   0.058   2.259  0.00  0.00    -0.002 C 
BRANCH  31  32
ATOM     32  C   UNL     1      -4.621  -0.751   2.112  0.00  0.00    -0.020 C 
BRANCH  32  33
ATOM     33  C   UNL     1      -5.024  -1.320   3.474  0.00  0.00    -0.086 C 
BRANCH  33  34
ATOM     34  N   UNL     1      -6.263  -2.096   3.333  0.00  0.00    +0.378 N 
ATOM     35  H   UNL     1      -6.553  -2.505   4.312  0.00  0.00    -0.090 HD
ATOM     36  H   UNL     1      -6.100  -2.922   2.625  0.00  0.00    -0.090 HD
ATOM     37  H   UNL     1      -7.064  -1.443   2.957  0.00  0.00    -0.090 HD
ENDBRANCH  33  34
ENDBRANCH  32  33
ENDBRANCH  31  32
ENDBRANCH  30  31
ENDBRANCH  29  30
ENDBRANCH  28  29
ENDBRANCH   3  28
TORSDOF 13
