REMARK  Name = ZINC46569525
REMARK  11 active torsions:
REMARK  status: ('A' for Active; 'I' for Inactive)
REMARK    1  A    between atoms: C_1  and  C_2
REMARK    2  A    between atoms: C_2  and  C_3
REMARK    3  A    between atoms: C_6  and  C_9
REMARK    4  A    between atoms: C_9  and  C_11
REMARK    5  A    between atoms: C_9  and  N_12
REMARK    6  A    between atoms: C_13  and  C_15
REMARK    7  A    between atoms: C_15  and  N_16
REMARK    8  A    between atoms: N_16  and  C_17
REMARK    9  A    between atoms: N_16  and  C_27
REMARK   10  A    between atoms: C_17  and  C_18
REMARK   11  A    between atoms: C_21  and  C_24
REMARK                            x       y       z     vdW  Elec       q    Type
REMARK                         _______ _______ _______ _____ _____    ______ ____
ROOT
ATOM      1  N   UNL     1       2.622  -5.877   7.495  0.00  0.00    +0.390 N 
ATOM      2  H   UNL     1       3.325  -6.196   6.845  0.00  0.00    -0.080 HD
ENDROOT
BRANCH   1   3
ATOM      3  C   UNL     1       1.831  -7.023   7.962  0.00  0.00    -0.068 C 
ATOM      4  C   UNL     1       2.383  -8.423   7.685  0.00  0.00    -0.017 C 
ATOM      5  C   UNL     1       1.175  -7.908   6.900  0.00  0.00    -0.017 C 
ENDBRANCH   1   3
BRANCH   1   6
ATOM      6  C   UNL     1       1.740  -4.912   6.827  0.00  0.00    +0.019 C 
BRANCH   6   8
ATOM      7  N   UNL     1       1.967  -2.748   5.649  0.00  0.00    -0.310 N 
ATOM      8  C   UNL     1       2.570  -3.816   6.209  0.00  0.00    +0.197 C 
ATOM      9  O   UNL     1       3.780  -3.895   6.215  0.00  0.00    -0.278 OA
ATOM     10  H   UNL     1       0.999  -2.685   5.644  0.00  0.00    +0.149 HD
BRANCH   7  11
ATOM     11  C   UNL     1       2.774  -1.683   5.049  0.00  0.00    +0.100 C 
ATOM     12  C   UNL     1       3.198  -0.691   6.134  0.00  0.00    +0.033 C 
BRANCH  11  16
ATOM     13  C   UNL     1       0.467   0.348   2.082  0.00  0.00    -0.048 A 
ATOM     14  C   UNL     1       1.804   0.080   1.854  0.00  0.00    +0.004 A 
ATOM     15  C   UNL     1       2.551  -0.577   2.815  0.00  0.00    +0.006 A 
ATOM     16  C   UNL     1       1.960  -0.966   4.003  0.00  0.00    -0.027 A 
ATOM     17  C   UNL     1       0.624  -0.698   4.230  0.00  0.00    +0.006 A 
ATOM     18  C   UNL     1      -0.122  -0.037   3.272  0.00  0.00    +0.004 A 
BRANCH  13  20
ATOM     19  C   UNL     1      -0.262   2.574   1.268  0.00  0.00    +0.009 C 
ATOM     20  C   UNL     1      -0.346   1.064   1.035  0.00  0.00    +0.032 C 
ENDBRANCH  13  20
ENDBRANCH  11  16
ENDBRANCH   7  11
ENDBRANCH   6   8
ENDBRANCH   1   6
BRANCH   1  21
ATOM     21  C   UNL     1       3.273  -5.232   8.643  0.00  0.00    -0.042 C 
BRANCH  21  22
ATOM     22  C   UNL     1       4.270  -6.183   9.255  0.00  0.00    -0.064 A 
ATOM     23  C   UNL     1       3.870  -7.050  10.256  0.00  0.00    +0.002 A 
ATOM     24  C   UNL     1       4.778  -7.923  10.820  0.00  0.00    +0.013 A 
ATOM     25  C   UNL     1       6.102  -7.929  10.379  0.00  0.00    +0.037 A 
ATOM     26  C   UNL     1       6.499  -7.052   9.368  0.00  0.00    +0.013 A 
ATOM     27  C   UNL     1       5.580  -6.188   8.809  0.00  0.00    +0.002 A 
BRANCH  25  28
ATOM     28  C   UNL     1       7.080  -8.861  10.979  0.00  0.00    +0.242 C 
ATOM     29  O   UNL     1       6.731  -9.624  11.859  0.00  0.00    -0.270 OA
ATOM     30  N   UNL     1       8.358  -8.866  10.550  0.00  0.00    -0.325 N 
ATOM     31  H   UNL     1       8.636  -8.257   9.848  0.00  0.00    +0.145 HD
ATOM     32  H   UNL     1       8.999  -9.477  10.944  0.00  0.00    +0.145 HD
ENDBRANCH  25  28
ENDBRANCH  21  22
ENDBRANCH   1  21
TORSDOF 9
