REMARK  Name = ZINC03190009
REMARK  6 active torsions:
REMARK  status: ('A' for Active; 'I' for Inactive)
REMARK    1  A    between atoms: C_1  and  N_2
REMARK    2  A    between atoms: N_2  and  C_3
REMARK    3  A    between atoms: C_4  and  N_18
REMARK    4  A    between atoms: C_6  and  N_15
REMARK    5  A    between atoms: C_7  and  N_10
REMARK    6  A    between atoms: N_8  and  C_9
REMARK                            x       y       z     vdW  Elec       q    Type
REMARK                         _______ _______ _______ _____ _____    ______ ____
ROOT
ATOM      1  C   UNL     1       1.025  -0.679   0.205  0.00  0.00    +0.118 C 
ATOM      2  C   UNL     1       0.021   0.085  -0.204  0.00  0.00    +0.145 C 
ATOM      3  C   UNL     1       0.070   1.581  -0.092  0.00  0.00    +0.127 C 
ATOM      4  C   UNL     1       1.473   2.061   0.143  0.00  0.00    +0.145 C 
ATOM      5  C   UNL     1       2.434   1.239   0.542  0.00  0.00    +0.121 C 
ATOM      6  N   UNL     1       2.170  -0.109   0.750  0.00  0.00    -0.277 N 
ATOM      7  C   UNL     1       3.094  -0.927   1.539  0.00  0.00    +0.138 C 
ENDROOT
BRANCH   5   8
ATOM      8  N   UNL     1       3.717   1.731   0.752  0.00  0.00    -0.320 N 
ATOM      9  C   UNL     1       4.690   1.799  -0.349  0.00  0.00    +0.087 C 
ATOM     10  C   UNL     1       5.989   1.132   0.101  0.00  0.00    -0.063 C 
ATOM     11  C   UNL     1       5.463   1.503   2.439  0.00  0.00    -0.063 C 
ATOM     12  C   UNL     1       4.140   2.190   2.084  0.00  0.00    +0.087 C 
ATOM     13  N   UNL     1       6.447   1.741   1.365  0.00  0.00    +0.381 N 
ATOM     14  H   UNL     1       6.562   2.753   1.230  0.00  0.00    -0.086 HD
ATOM     15  H   UNL     1       7.347   1.327   1.633  0.00  0.00    -0.086 HD
ENDBRANCH   5   8
BRANCH   1  17
ATOM     16  C   UNL     1       1.925  -2.798  -0.699  0.00  0.00    +0.126 C 
ATOM     17  N   UNL     1       0.932  -2.061   0.087  0.00  0.00    -0.334 N 
ATOM     18  H   UNL     1       0.210  -2.538   0.525  0.00  0.00    +0.147 HD
ENDBRANCH   1  17
BRANCH   4  19
ATOM     19  N   UNL     1       1.792   3.491  -0.076  0.00  0.00    +0.056 N 
ATOM     20  O   UNL     1       2.941   3.881   0.025  0.00  0.00    -0.126 OA
ATOM     21  O   UNL     1       0.905   4.276  -0.357  0.00  0.00    -0.126 OA
ENDBRANCH   4  19
BRANCH   2  22
ATOM     22  N   UNL     1      -1.181  -0.556  -0.786  0.00  0.00    +0.056 N 
ATOM     23  O   UNL     1      -1.199  -1.759  -0.977  0.00  0.00    -0.126 OA
ATOM     24  O   UNL     1      -2.152   0.121  -1.075  0.00  0.00    -0.126 OA
ENDBRANCH   2  22
TORSDOF 4
