REMARK  Name = ZINC39225993
REMARK  5 active torsions:
REMARK  status: ('A' for Active; 'I' for Inactive)
REMARK    1  A    between atoms: C_1  and  O_2
REMARK    2  A    between atoms: O_2  and  C_3
REMARK    3  A    between atoms: C_6  and  C_9
REMARK    4  A    between atoms: C_23  and  O_27
REMARK    5  A    between atoms: O_27  and  C_28
REMARK                            x       y       z     vdW  Elec       q    Type
REMARK                         _______ _______ _______ _____ _____    ______ ____
ROOT
ATOM      1  C   UNL     1       2.491  -2.491  -4.359  0.00  0.00    +0.247 C 
ATOM      2  O   UNL     1       2.893  -1.822  -5.292  0.00  0.00    -0.270 OA
ATOM      3  N   UNL     1       2.629  -3.831  -4.382  0.00  0.00    -0.297 N 
ATOM      4  C   UNL     1       2.032  -4.664  -3.329  0.00  0.00    +0.112 C 
ATOM      5  C   UNL     1       1.159  -5.738  -3.986  0.00  0.00    +0.067 C 
ATOM      6  C   UNL     1       1.993  -6.516  -5.005  0.00  0.00    +0.120 C 
ATOM      7  C   UNL     1       2.493  -5.565  -6.094  0.00  0.00    +0.067 C 
ATOM      8  C   UNL     1       3.375  -4.489  -5.464  0.00  0.00    +0.112 C 
ATOM      9  C   UNL     1       1.120  -7.604  -5.646  0.00  0.00    +0.127 C 
ATOM     10  C   UNL     1       1.998  -8.367  -6.623  0.00  0.00    +0.170 C 
ATOM     11  O   UNL     1       1.586  -8.725  -7.706  0.00  0.00    -0.292 OA
ATOM     12  C   UNL     1       3.374  -8.648  -6.186  0.00  0.00    +0.059 A 
ATOM     13  C   UNL     1       4.175  -9.551  -6.891  0.00  0.00    +0.018 A 
ATOM     14  C   UNL     1       5.452  -9.795  -6.472  0.00  0.00    +0.046 A 
ATOM     15  C   UNL     1       5.958  -9.147  -5.348  0.00  0.00    +0.124 A 
ATOM     16  C   UNL     1       5.174  -8.249  -4.638  0.00  0.00    +0.092 A 
ATOM     17  C   UNL     1       3.876  -7.992  -5.048  0.00  0.00    +0.135 A 
ATOM     18  O   UNL     1       3.106  -7.124  -4.351  0.00  0.00    -0.484 OA
ENDROOT
BRANCH   1  22
ATOM     19  C   UNL     1       0.653  -0.603  -1.029  0.00  0.00    +0.120 A 
ATOM     20  C   UNL     1       0.364  -0.169  -2.318  0.00  0.00    +0.046 A 
ATOM     21  C   UNL     1       0.959  -0.779  -3.401  0.00  0.00    +0.016 A 
ATOM     22  C   UNL     1       1.853  -1.834  -3.202  0.00  0.00    +0.037 A 
ATOM     23  C   UNL     1       2.141  -2.266  -1.905  0.00  0.00    +0.016 A 
ATOM     24  C   UNL     1       1.546  -1.648  -0.827  0.00  0.00    +0.046 A 
BRANCH  19  26
ATOM     25  C   UNL     1      -0.842   1.069  -0.244  0.00  0.00    +0.277 C 
ATOM     26  O   UNL     1       0.066   0.001   0.035  0.00  0.00    -0.495 OA
ENDBRANCH  19  26
ENDBRANCH   1  22
BRANCH  15  27
ATOM     27  O   UNL     1       7.229  -9.396  -4.943  0.00  0.00    -0.495 OA
ATOM     28  C   UNL     1       7.984 -10.331  -5.716  0.00  0.00    +0.277 C 
ENDBRANCH  15  27
TORSDOF 3
