REMARK  Name = ZINC35708074
REMARK  13 active torsions:
REMARK  status: ('A' for Active; 'I' for Inactive)
REMARK    1  A    between atoms: C_1  and  C_2
REMARK    2  A    between atoms: C_2  and  C_3
REMARK    3  A    between atoms: C_3  and  C_4
REMARK    4  A    between atoms: C_4  and  N_5
REMARK    5  A    between atoms: C_6  and  C_39
REMARK    6  A    between atoms: C_7  and  C_33
REMARK    7  A    between atoms: C_8  and  C_13
REMARK    8  A    between atoms: C_17  and  N_19
REMARK    9  A    between atoms: N_22  and  C_23
REMARK   10  A    between atoms: C_33  and  O_35
REMARK   11  A    between atoms: O_35  and  C_36
REMARK   12  A    between atoms: C_36  and  C_37
REMARK   13  A    between atoms: C_36  and  C_38
REMARK                            x       y       z     vdW  Elec       q    Type
REMARK                         _______ _______ _______ _____ _____    ______ ____
ROOT
ATOM      1  C   UNL     1      -6.774  -3.161  -0.013  0.00  0.00    -0.021 A 
ATOM      2  C   UNL     1      -6.898  -1.803  -0.243  0.00  0.00    +0.006 A 
ATOM      3  C   UNL     1      -8.149  -1.239  -0.411  0.00  0.00    +0.002 A 
ATOM      4  C   UNL     1      -9.279  -2.030  -0.349  0.00  0.00    +0.023 A 
ATOM      5  C   UNL     1      -9.158  -3.394  -0.119  0.00  0.00    +0.035 A 
ATOM      6  C   UNL     1      -7.900  -3.959   0.044  0.00  0.00    +0.029 A 
ENDROOT
BRANCH   1  10
ATOM      7  N   UNL     1      -3.071  -2.402   0.725  0.00  0.00    -0.259 N 
ATOM      8  C   UNL     1      -3.814  -2.837   1.784  0.00  0.00    +0.024 C 
ATOM      9  C   UNL     1      -4.968  -3.514   1.596  0.00  0.00    +0.078 C 
ATOM     10  C   UNL     1      -5.409  -3.772   0.170  0.00  0.00    +0.144 C 
ATOM     11  N   UNL     1      -4.537  -3.261  -0.901  0.00  0.00    -0.288 N 
ATOM     12  C   UNL     1      -3.416  -2.599  -0.554  0.00  0.00    +0.307 C 
ATOM     13  O   UNL     1      -2.691  -2.169  -1.431  0.00  0.00    -0.252 OA
ATOM     14  C   UNL     1      -3.339  -2.558   3.187  0.00  0.00    +0.061 C 
ATOM     15  H   UNL     1      -4.765  -3.396  -1.835  0.00  0.00    +0.151 HD
BRANCH   9  16
ATOM     16  C   UNL     1      -5.738  -3.966   2.693  0.00  0.00    +0.339 C 
ATOM     17  O   UNL     1      -5.365  -3.747   3.830  0.00  0.00    -0.245 OA
BRANCH  16  18
ATOM     18  O   UNL     1      -6.888  -4.639   2.478  0.00  0.00    -0.459 OA
BRANCH  18  19
ATOM     19  C   UNL     1      -7.615  -5.066   3.632  0.00  0.00    +0.171 C 
ATOM     20  C   UNL     1      -8.604  -3.974   4.044  0.00  0.00    +0.052 C 
ATOM     21  C   UNL     1      -8.380  -6.351   3.307  0.00  0.00    +0.052 C 
ENDBRANCH  18  19
ENDBRANCH  16  18
ENDBRANCH   9  16
BRANCH   7  22
ATOM     22  C   UNL     1      -1.830  -1.674   1.003  0.00  0.00    +0.115 C 
BRANCH  22  23
ATOM     23  C   UNL     1      -0.695  -2.673   1.234  0.00  0.00    +0.019 C 
BRANCH  23  25
ATOM     24  C   UNL     1       1.737  -2.912   1.756  0.00  0.00    +0.004 C 
ATOM     25  C   UNL     1       0.601  -1.913   1.525  0.00  0.00    -0.002 C 
ENDBRANCH  23  25
ENDBRANCH  22  23
ENDBRANCH   7  22
ENDBRANCH   1  10
BRANCH   5  26
ATOM     26  N   UNL     1     -10.302  -4.199  -0.056  0.00  0.00    -0.269 N 
ATOM     27  C   UNL     1     -11.451  -3.699   0.439  0.00  0.00    +0.304 C 
ATOM     28  O   UNL     1     -11.471  -2.582   0.919  0.00  0.00    -0.252 OA
ATOM     29  N   UNL     1     -12.578  -4.437   0.401  0.00  0.00    -0.294 N 
ATOM     30  H   UNL     1     -10.267  -5.116  -0.369  0.00  0.00    +0.156 HD
ATOM     31  H   UNL     1     -12.562  -5.328   0.018  0.00  0.00    +0.151 HD
BRANCH  29  32
ATOM     32  C   UNL     1     -13.828  -3.893   0.939  0.00  0.00    +0.037 C 
ATOM     33  C   UNL     1     -13.646  -3.571   2.424  0.00  0.00    +0.029 C 
ATOM     34  C   UNL     1     -14.951  -3.004   2.986  0.00  0.00    -0.008 C 
ATOM     35  C   UNL     1     -16.069  -4.036   2.821  0.00  0.00    +0.007 C 
ATOM     36  C   UNL     1     -16.250  -4.358   1.336  0.00  0.00    -0.008 C 
ATOM     37  C   UNL     1     -14.945  -4.925   0.774  0.00  0.00    +0.029 C 
ATOM     38  C   UNL     1     -16.619  -3.081   0.579  0.00  0.00    +0.007 C 
ATOM     39  C   UNL     1     -15.502  -2.049   0.744  0.00  0.00    -0.008 C 
ATOM     40  C   UNL     1     -15.320  -1.727   2.228  0.00  0.00    +0.007 C 
ATOM     41  C   UNL     1     -14.197  -2.616   0.182  0.00  0.00    +0.029 C 
ENDBRANCH  29  32
ENDBRANCH   5  26
TORSDOF 9
