REMARK  Name = ZINC15449968
REMARK  8 active torsions:
REMARK  status: ('A' for Active; 'I' for Inactive)
REMARK    1  A    between atoms: C_1  and  C_2
REMARK    2  A    between atoms: N_10  and  N_14
REMARK    3  A    between atoms: C_15  and  C_17
REMARK    4  A    between atoms: C_17  and  N_56
REMARK    5  A    between atoms: C_18  and  N_56
REMARK    6  A    between atoms: C_19  and  C_20
REMARK    7  A    between atoms: C_19  and  N_56
REMARK    8  A    between atoms: N_22  and  C_23
REMARK                            x       y       z     vdW  Elec       q    Type
REMARK                         _______ _______ _______ _____ _____    ______ ____
ROOT
ATOM      1  N   UNL     1      -2.350  -2.753   0.766  0.00  0.00    -0.225 N 
ATOM      2  C   UNL     1      -1.239  -2.035   0.508  0.00  0.00    +0.213 C 
ATOM      3  O   UNL     1      -0.159  -2.586   0.460  0.00  0.00    -0.276 OA
ATOM      4  H   UNL     1      -3.214  -2.312   0.804  0.00  0.00    +0.173 HD
ENDROOT
BRANCH   1  14
ATOM      5  C   UNL     1      -1.912 -10.476   2.539  0.00  0.00    +0.007 C 
ATOM      6  C   UNL     1      -2.075  -8.982   2.823  0.00  0.00    -0.014 C 
ATOM      7  C   UNL     1      -0.818  -8.236   2.370  0.00  0.00    +0.006 C 
ATOM      8  C   UNL     1      -0.978  -6.743   2.666  0.00  0.00    +0.035 C 
ATOM      9  C   UNL     1      -2.201  -6.204   1.931  0.00  0.00    +0.114 C 
ATOM     10  C   UNL     1      -3.459  -6.955   2.354  0.00  0.00    +0.035 C 
ATOM     11  C   UNL     1      -3.289  -8.448   2.059  0.00  0.00    +0.006 C 
ATOM     12  C   UNL     1      -2.360  -4.723   2.189  0.00  0.00    +0.263 C 
ATOM     13  O   UNL     1      -2.542  -4.179   3.257  0.00  0.00    -0.271 OA
ATOM     14  N   UNL     1      -2.258  -4.134   0.979  0.00  0.00    -0.137 N 
ATOM     15  C   UNL     1      -2.064  -5.034   0.007  0.00  0.00    +0.326 C 
ATOM     16  O   UNL     1      -1.947  -4.746  -1.167  0.00  0.00    -0.251 OA
ATOM     17  N   UNL     1      -2.010  -6.295   0.478  0.00  0.00    -0.284 N 
ATOM     18  H   UNL     1      -1.876  -7.104  -0.041  0.00  0.00    +0.151 HD
ENDBRANCH   1  14
BRANCH   2  19
ATOM     19  C   UNL     1      -1.337  -0.549   0.278  0.00  0.00    +0.020 C 
BRANCH  19  21
ATOM     20  C   UNL     1       0.543  -0.517  -1.246  0.00  0.00    -0.095 C 
ATOM     21  N   UNL     1       0.019  -0.013   0.040  0.00  0.00    +0.389 N 
ATOM     22  H   UNL     1       0.638  -0.323   0.798  0.00  0.00    -0.081 HD
BRANCH  21  23
ATOM     23  C   UNL     1      -0.018   1.465   0.025  0.00  0.00    +0.019 C 
BRANCH  23  24
ATOM     24  C   UNL     1       1.396   1.986   0.003  0.00  0.00    +0.201 C 
ATOM     25  O   UNL     1       2.328   1.211  -0.017  0.00  0.00    -0.278 OA
ATOM     26  N   UNL     1       1.624   3.315   0.004  0.00  0.00    -0.286 N 
ATOM     27  H   UNL     1       0.881   3.935  -0.061  0.00  0.00    +0.155 HD
BRANCH  26  28
ATOM     28  C   UNL     1       2.934   3.799   0.100  0.00  0.00    +0.047 A 
ATOM     29  C   UNL     1       3.921   3.023   0.692  0.00  0.00    +0.024 A 
ATOM     30  C   UNL     1       5.213   3.503   0.782  0.00  0.00    +0.002 A 
ATOM     31  C   UNL     1       5.523   4.758   0.291  0.00  0.00    +0.001 A 
ATOM     32  C   UNL     1       4.541   5.536  -0.295  0.00  0.00    +0.017 A 
ATOM     33  C   UNL     1       3.247   5.060  -0.392  0.00  0.00    +0.039 A 
ATOM     34 BR   UNL     1       1.905   6.125  -1.193  0.00  0.00    -0.048 Br
ENDBRANCH  26  28
ENDBRANCH  23  24
ENDBRANCH  21  23
ENDBRANCH  19  21
ENDBRANCH   2  19
TORSDOF 6
