REMARK  Name = ZINC01749241
REMARK  6 active torsions:
REMARK  status: ('A' for Active; 'I' for Inactive)
REMARK    1  A    between atoms: C_3  and  N_26
REMARK    2  A    between atoms: C_6  and  C_7
REMARK    3  A    between atoms: C_8  and  C_9
REMARK    4  A    between atoms: C_10  and  C_11
REMARK    5  A    between atoms: C_12  and  C_19
REMARK    6  A    between atoms: C_13  and  N_18
REMARK                            x       y       z     vdW  Elec       q    Type
REMARK                         _______ _______ _______ _____ _____    ______ ____
ROOT
ATOM      1  C   UNL     1      -3.686  -4.946   0.012  0.00  0.00    +0.053 A 
ATOM      2  C   UNL     1      -3.678  -6.356   0.010  0.00  0.00    +0.045 A 
ATOM      3  C   UNL     1      -4.913  -7.025   0.019  0.00  0.00    +0.129 A 
ATOM      4  N   UNL     1      -6.033  -6.309   0.029  0.00  0.00    -0.201 NA
ATOM      5  C   UNL     1      -5.999  -4.984   0.030  0.00  0.00    +0.192 A 
ATOM      6  N   UNL     1      -4.862  -4.309   0.027  0.00  0.00    -0.327 N 
ATOM      7  N   UNL     1      -7.192  -4.284   0.040  0.00  0.00    -0.329 N 
ATOM      8  H   UNL     1      -8.036  -4.763   0.046  0.00  0.00    +0.145 HD
ATOM      9  H   UNL     1      -7.186  -3.314   0.041  0.00  0.00    +0.145 HD
ATOM     10  H   UNL     1      -4.880  -3.340   0.032  0.00  0.00    +0.169 HD
ENDROOT
BRANCH   2  11
ATOM     11  C   UNL     1      -2.404  -7.109  -0.001  0.00  0.00    -0.013 A 
ATOM     12  C   UNL     1      -1.548  -7.021  -1.099  0.00  0.00    +0.010 A 
ATOM     13  C   UNL     1      -0.362  -7.726  -1.104  0.00  0.00    +0.020 A 
ATOM     14  C   UNL     1      -0.020  -8.519  -0.022  0.00  0.00    +0.041 A 
ATOM     15  C   UNL     1      -0.866  -8.611   1.071  0.00  0.00    +0.020 A 
ATOM     16  C   UNL     1      -2.052  -7.906   1.089  0.00  0.00    +0.010 A 
ATOM     17 CL   UNL     1       1.474  -9.402  -0.035  0.00  0.00    -0.084 Cl
ENDBRANCH   2  11
BRANCH   3  18
ATOM     18  N   UNL     1      -4.964  -8.408   0.018  0.00  0.00    -0.343 N 
ATOM     19  H   UNL     1      -4.142  -8.923   0.010  0.00  0.00    +0.144 HD
ATOM     20  H   UNL     1      -5.821  -8.862   0.024  0.00  0.00    +0.144 HD
ENDBRANCH   3  18
BRANCH   1  22
ATOM     21  C   UNL     1      -2.450  -2.839   0.011  0.00  0.00    +0.002 C 
ATOM     22  C   UNL     1      -2.428  -4.191   0.004  0.00  0.00    +0.026 C 
BRANCH  21  24
ATOM     23  C   UNL     1      -1.260  -0.761   0.011  0.00  0.00    +0.008 C 
ATOM     24  C   UNL     1      -1.237  -2.111   0.003  0.00  0.00    +0.001 C 
BRANCH  23  30
ATOM     25  C   UNL     1      -0.017   1.395   0.010  0.00  0.00    +0.010 A 
ATOM     26  C   UNL     1       1.170   2.096   0.002  0.00  0.00    +0.033 A 
ATOM     27  C   UNL     1       2.378   1.421  -0.013  0.00  0.00    +0.126 A 
ATOM     28  C   UNL     1       2.405   0.037  -0.021  0.00  0.00    +0.033 A 
ATOM     29  C   UNL     1       1.227  -0.679  -0.014  0.00  0.00    +0.010 A 
ATOM     30  C   UNL     1       0.002  -0.004   0.002  0.00  0.00    -0.025 A 
BRANCH  27  31
ATOM     31  N   UNL     1       3.653   2.185  -0.021  0.00  0.00    +0.056 N 
ATOM     32  O   UNL     1       3.633   3.394  -0.014  0.00  0.00    -0.126 OA
ATOM     33  O   UNL     1       4.710   1.598  -0.034  0.00  0.00    -0.126 OA
ENDBRANCH  27  31
ENDBRANCH  23  30
ENDBRANCH  21  24
ENDBRANCH   1  22
TORSDOF 6
