REMARK  Name = ZINC09938510
REMARK  4 active torsions:
REMARK  status: ('A' for Active; 'I' for Inactive)
REMARK    1  A    between atoms: C_8  and  S_10
REMARK    2  A    between atoms: S_10  and  C_11
REMARK    3  A    between atoms: C_11  and  C_12
REMARK    4  A    between atoms: N_22  and  C_23
REMARK                            x       y       z     vdW  Elec       q    Type
REMARK                         _______ _______ _______ _____ _____    ______ ____
ROOT
ATOM      1  C   UNL     1       4.729  -6.092  -0.201  0.00  0.00    +0.060 A 
ATOM      2  C   UNL     1       5.236  -6.608  -1.359  0.00  0.00    +0.094 A 
ATOM      3  C   UNL     1       6.056  -7.748  -1.293  0.00  0.00    +0.253 A 
ATOM      4  O   UNL     1       6.526  -8.236  -2.308  0.00  0.00    -0.268 OA
ATOM      5  N   UNL     1       6.314  -8.293  -0.085  0.00  0.00    -0.293 N 
ATOM      6  C   UNL     1       5.781  -7.735   1.035  0.00  0.00    +0.211 A 
ATOM      7  N   UNL     1       5.018  -6.664   0.966  0.00  0.00    -0.218 NA
ATOM      8  N   UNL     1       6.048  -8.295   2.261  0.00  0.00    -0.298 N 
ATOM      9  C   UNL     1       5.650  -7.652   3.415  0.00  0.00    +0.180 C 
ATOM     10  N   UNL     1       6.011  -8.117   4.577  0.00  0.00    -0.371 N 
ATOM     11  N   UNL     1       4.873  -6.519   3.339  0.00  0.00    -0.327 N 
ATOM     12  H   UNL     1       5.660  -7.718   5.389  0.00  0.00    +0.159 HD
ATOM     13  H   UNL     1       4.675  -6.124   2.475  0.00  0.00    +0.169 HD
ATOM     14  H   UNL     1       6.629  -8.862   4.631  0.00  0.00    +0.159 HD
ATOM     15  H   UNL     1       6.516  -9.143   2.315  0.00  0.00    +0.172 HD
ATOM     16  H   UNL     1       6.877  -9.080  -0.016  0.00  0.00    +0.172 HD
ENDROOT
BRANCH  11  17
ATOM     17  C   UNL     1       4.368  -5.936   4.508  0.00  0.00    +0.045 A 
ATOM     18  C   UNL     1       5.202  -5.732   5.599  0.00  0.00    +0.029 A 
ATOM     19  C   UNL     1       4.704  -5.158   6.752  0.00  0.00    +0.051 A 
ATOM     20  C   UNL     1       3.370  -4.783   6.824  0.00  0.00    +0.162 A 
ATOM     21  C   UNL     1       2.533  -4.984   5.733  0.00  0.00    +0.164 A 
ATOM     22  C   UNL     1       3.035  -5.557   4.574  0.00  0.00    +0.075 A 
ATOM     23  O   UNL     1       1.224  -4.616   5.782  0.00  0.00    -0.485 OA
ATOM     24  C   UNL     1       0.669  -4.383   7.082  0.00  0.00    +0.270 C 
ATOM     25  C   UNL     1       1.654  -3.517   7.877  0.00  0.00    +0.270 C 
ATOM     26  O   UNL     1       2.897  -4.222   7.971  0.00  0.00    -0.485 OA
ENDBRANCH  11  17
BRANCH   1  27
ATOM     27  C   UNL     1       3.848  -4.871  -0.244  0.00  0.00    +0.132 C 
BRANCH  27  28
ATOM     28  S   UNL     1       2.123  -5.360   0.036  0.00  0.00    -0.093 S 
BRANCH  28  36
ATOM     29  C   UNL     1      -2.368  -0.743   0.023  0.00  0.00    +0.002 A 
ATOM     30  C   UNL     1      -1.454   0.272  -0.220  0.00  0.00    +0.001 A 
ATOM     31  C   UNL     1      -0.113  -0.041  -0.350  0.00  0.00    +0.017 A 
ATOM     32  C   UNL     1       0.291  -1.347  -0.237  0.00  0.00    +0.040 A 
ATOM     33  C   UNL     1      -0.611  -2.407   0.010  0.00  0.00    +0.079 A 
ATOM     34  C   UNL     1      -1.973  -2.050   0.138  0.00  0.00    +0.029 A 
ATOM     35  N   UNL     1      -0.059  -3.637   0.095  0.00  0.00    -0.233 NA
ATOM     36  C   UNL     1       1.231  -3.843  -0.042  0.00  0.00    +0.136 A 
ATOM     37  S   UNL     1       1.852  -2.191  -0.328  0.00  0.00    -0.061 S 
ENDBRANCH  28  36
ENDBRANCH  27  28
ENDBRANCH   1  27
TORSDOF 4
