REMARK  Name = ZINC04384857
REMARK  3 active torsions:
REMARK  status: ('A' for Active; 'I' for Inactive)
REMARK    1  A    between atoms: C_10  and  N_11
REMARK    2  A    between atoms: N_11  and  C_12
REMARK    3  A    between atoms: C_15  and  C_18
REMARK                            x       y       z     vdW  Elec       q    Type
REMARK                         _______ _______ _______ _____ _____    ______ ____
ROOT
ATOM      1  C   UNL     1       6.022   9.884  -1.466  0.00  0.00    +0.001 A 
ATOM      2  C   UNL     1       7.056   9.043  -1.845  0.00  0.00    +0.004 A 
ATOM      3  C   UNL     1       6.966   7.682  -1.643  0.00  0.00    +0.047 A 
ATOM      4  C   UNL     1       5.831   7.134  -1.053  0.00  0.00    +0.143 A 
ATOM      5  C   UNL     1       4.794   7.989  -0.659  0.00  0.00    +0.065 A 
ATOM      6  C   UNL     1       4.891   9.364  -0.874  0.00  0.00    +0.015 A 
ATOM      7  C   UNL     1       3.594   7.425   0.002  0.00  0.00    +0.205 C 
ATOM      8  O   UNL     1       2.735   8.124   0.509  0.00  0.00    -0.286 OA
ATOM      9  C   UNL     1       3.525   5.939   0.001  0.00  0.00    +0.120 C 
ATOM     10  C   UNL     1       2.334   5.232   0.008  0.00  0.00    +0.091 C 
ATOM     11  C   UNL     1       4.859   5.288  -0.015  0.00  0.00    +0.349 C 
ATOM     12  O   UNL     1       5.123   4.352   0.715  0.00  0.00    -0.244 OA
ATOM     13  O   UNL     1       5.765   5.793  -0.882  0.00  0.00    -0.422 OA
ENDROOT
BRANCH  10  14
ATOM     14  N   UNL     1       2.350   3.883   0.001  0.00  0.00    -0.320 N 
ATOM     15  H   UNL     1       3.195   3.408  -0.009  0.00  0.00    +0.152 HD
BRANCH  14  16
ATOM     16  C   UNL     1       1.152   3.173   0.008  0.00  0.00    +0.031 A 
ATOM     17  C   UNL     1       1.170   1.781   0.001  0.00  0.00    +0.024 A 
ATOM     18  C   UNL     1      -0.013   1.076   0.008  0.00  0.00    +0.015 A 
ATOM     19  C   UNL     1      -1.232   1.759   0.017  0.00  0.00    +0.037 A 
ATOM     20  C   UNL     1      -1.246   3.156   0.031  0.00  0.00    +0.015 A 
ATOM     21  C   UNL     1      -0.061   3.856   0.023  0.00  0.00    +0.024 A 
BRANCH  19  22
ATOM     22  C   UNL     1      -2.501   1.006   0.019  0.00  0.00    +0.242 C 
ATOM     23  O   UNL     1      -2.487  -0.210   0.013  0.00  0.00    -0.270 OA
ATOM     24  N   UNL     1      -3.676   1.666   0.029  0.00  0.00    -0.325 N 
ATOM     25  H   UNL     1      -3.688   2.636   0.034  0.00  0.00    +0.145 HD
ATOM     26  H   UNL     1      -4.511   1.171   0.030  0.00  0.00    +0.145 HD
ENDBRANCH  19  22
ENDBRANCH  14  16
ENDBRANCH  10  14
TORSDOF 3
