REMARK  Name = ZINC19597246
REMARK  13 active torsions:
REMARK  status: ('A' for Active; 'I' for Inactive)
REMARK    1  A    between atoms: C_1  and  C_2
REMARK    2  A    between atoms: C_2  and  O_3
REMARK    3  A    between atoms: O_3  and  C_4
REMARK    4  A    between atoms: C_4  and  C_6
REMARK    5  A    between atoms: C_7  and  C_38
REMARK    6  A    between atoms: C_9  and  S_20
REMARK    7  A    between atoms: C_10  and  C_18
REMARK    8  A    between atoms: C_11  and  C_13
REMARK    9  A    between atoms: S_20  and  C_21
REMARK   10  A    between atoms: C_21  and  C_22
REMARK   11  A    between atoms: N_24  and  C_25
REMARK   12  A    between atoms: C_25  and  C_27
REMARK   13  A    between atoms: C_25  and  C_28
REMARK                            x       y       z     vdW  Elec       q    Type
REMARK                         _______ _______ _______ _____ _____    ______ ____
ROOT
ATOM      1  C   UNL     1      -1.279   2.929  -0.319  0.00  0.00    +0.066 C 
ATOM      2  C   UNL     1      -1.205   1.631   0.017  0.00  0.00    +0.016 C 
ATOM      3  N   UNL     1      -0.011   0.966   0.007  0.00  0.00    -0.312 N 
ATOM      4  C   UNL     1       1.173   1.669  -0.000  0.00  0.00    +0.080 C 
ATOM      5  C   UNL     1       1.193   2.983  -0.347  0.00  0.00    +0.069 C 
ATOM      6  C   UNL     1      -0.065   3.705  -0.739  0.00  0.00    +0.107 C 
ATOM      7  C   UNL     1      -2.460   0.898   0.416  0.00  0.00    +0.061 C 
ATOM      8  H   UNL     1       0.006  -0.134   0.006  0.00  0.00    +0.152 HD
ENDROOT
BRANCH   6   9
ATOM      9  C   UNL     1      -0.086   3.887  -2.235  0.00  0.00    +0.003 A 
ATOM     10  C   UNL     1      -0.132   5.035  -2.955  0.00  0.00    +0.012 A 
ATOM     11  C   UNL     1      -0.143   4.960  -4.335  0.00  0.00    +0.008 A 
ATOM     12  C   UNL     1      -0.107   3.742  -4.928  0.00  0.00    +0.045 A 
ATOM     13  S   UNL     1      -0.050   2.647  -3.519  0.00  0.00    -0.101 S 
ENDBRANCH   6   9
BRANCH   1  14
ATOM     14  C   UNL     1      -2.533   3.580  -0.280  0.00  0.00    +0.338 C 
ATOM     15  O   UNL     1      -3.528   2.966   0.058  0.00  0.00    -0.245 OA
BRANCH  14  16
ATOM     16  O   UNL     1      -2.628   4.883  -0.620  0.00  0.00    -0.462 OA
BRANCH  16  18
ATOM     17  C   UNL     1      -3.835   6.946  -0.975  0.00  0.00    +0.048 C 
ATOM     18  C   UNL     1      -3.926   5.477  -0.558  0.00  0.00    +0.229 C 
ENDBRANCH  16  18
ENDBRANCH  14  16
ENDBRANCH   1  14
BRANCH   5  19
ATOM     19  C   UNL     1       2.437   3.693  -0.338  0.00  0.00    +0.098 C 
ATOM     20  N   UNL     1       3.424   4.256  -0.331  0.00  0.00    -0.191 NA
ENDBRANCH   5  19
BRANCH   4  21
ATOM     21  S   UNL     1       2.674   0.858   0.443  0.00  0.00    -0.100 S 
BRANCH  21  22
ATOM     22  C   UNL     1       2.043  -0.803   0.789  0.00  0.00    +0.171 C 
BRANCH  22  23
ATOM     23  C   UNL     1       3.184  -1.698   1.200  0.00  0.00    +0.223 C 
ATOM     24  O   UNL     1       4.313  -1.256   1.253  0.00  0.00    -0.275 OA
ATOM     25  N   UNL     1       2.951  -2.989   1.508  0.00  0.00    -0.312 N 
ATOM     26  H   UNL     1       1.928  -3.389   1.459  0.00  0.00    +0.149 HD
BRANCH  25  27
ATOM     27  C   UNL     1       4.060  -3.858   1.907  0.00  0.00    +0.076 C 
ATOM     28  C   UNL     1       4.319  -3.700   3.407  0.00  0.00    +0.028 C 
BRANCH  27  29
ATOM     29  C   UNL     1       3.702  -5.314   1.602  0.00  0.00    -0.010 C 
ATOM     30  C   UNL     1       3.444  -5.473   0.103  0.00  0.00    +0.012 C 
ATOM     31  C   UNL     1       3.086  -6.929  -0.202  0.00  0.00    -0.010 C 
ATOM     32  C   UNL     1       4.244  -7.837   0.215  0.00  0.00    +0.007 C 
ATOM     33  C   UNL     1       4.502  -7.679   1.715  0.00  0.00    -0.010 C 
ATOM     34  C   UNL     1       4.860  -6.223   2.019  0.00  0.00    +0.012 C 
ATOM     35  C   UNL     1       3.243  -8.068   2.493  0.00  0.00    +0.007 C 
ATOM     36  C   UNL     1       2.085  -7.159   2.076  0.00  0.00    -0.010 C 
ATOM     37  C   UNL     1       1.827  -7.318   0.576  0.00  0.00    +0.007 C 
ATOM     38  C   UNL     1       2.443  -5.703   2.380  0.00  0.00    +0.012 C 
ENDBRANCH  27  29
ENDBRANCH  25  27
ENDBRANCH  22  23
ENDBRANCH  21  22
ENDBRANCH   4  21
TORSDOF 10
