REMARK  Name = ZINC62014717
REMARK  6 active torsions:
REMARK  status: ('A' for Active; 'I' for Inactive)
REMARK    1  A    between atoms: C_1  and  C_2
REMARK    2  A    between atoms: C_2  and  C_4
REMARK    3  A    between atoms: C_2  and  N_11
REMARK    4  A    between atoms: N_11  and  C_12
REMARK    5  A    between atoms: N_11  and  C_13
REMARK    6  A    between atoms: C_18  and  C_19
REMARK                            x       y       z     vdW  Elec       q    Type
REMARK                         _______ _______ _______ _____ _____    ______ ____
ROOT
ATOM      1  C   UNL     1      -1.457  -1.364  -0.999  0.00  0.00    +0.040 A 
ATOM      2  C   UNL     1      -1.310  -2.743  -0.906  0.00  0.00    +0.025 A 
ATOM      3  C   UNL     1      -1.882  -3.564  -1.856  0.00  0.00    +0.022 A 
ATOM      4  C   UNL     1      -2.605  -3.023  -2.908  0.00  0.00    +0.042 A 
ATOM      5  C   UNL     1      -2.761  -1.657  -3.016  0.00  0.00    +0.033 A 
ATOM      6  C   UNL     1      -2.193  -0.814  -2.058  0.00  0.00    +0.034 A 
ATOM      7 CL   UNL     1      -3.317  -4.070  -4.096  0.00  0.00    -0.084 Cl
ENDROOT
BRANCH   6   8
ATOM      8  C   UNL     1      -2.361   0.649  -2.164  0.00  0.00    +0.096 C 
ATOM      9  N   UNL     1      -1.944   1.290  -3.256  0.00  0.00    -0.387 N 
ATOM     10  N   UNL     1      -2.930   1.328  -1.169  0.00  0.00    -0.345 N 
ATOM     11  H   UNL     1      -1.596   0.789  -4.010  0.00  0.00    +0.157 HD
ATOM     12  H   UNL     1      -3.183   0.870  -0.352  0.00  0.00    +0.144 HD
ATOM     13  H   UNL     1      -3.091   2.280  -1.261  0.00  0.00    +0.144 HD
ATOM     14  H   UNL     1      -1.988   2.259  -3.296  0.00  0.00    +0.157 HD
ENDBRANCH   6   8
BRANCH   1  15
ATOM     15  N   UNL     1      -0.883  -0.535  -0.042  0.00  0.00    -0.326 N 
ATOM     16  C   UNL     1      -1.562  -0.311   1.236  0.00  0.00    +0.130 C 
BRANCH  15  18
ATOM     17  C   UNL     1       0.745   1.066   0.836  0.00  0.00    +0.033 C 
ATOM     18  C   UNL     1       0.402   0.115  -0.313  0.00  0.00    +0.100 C 
BRANCH  18  19
ATOM     19  C   UNL     1       1.479  -0.932  -0.437  0.00  0.00    -0.027 A 
ATOM     20  C   UNL     1       1.453  -2.049   0.378  0.00  0.00    +0.007 A 
ATOM     21  C   UNL     1       2.440  -3.010   0.265  0.00  0.00    +0.020 A 
ATOM     22  C   UNL     1       3.454  -2.854  -0.663  0.00  0.00    +0.041 A 
ATOM     23  C   UNL     1       3.479  -1.736  -1.478  0.00  0.00    +0.020 A 
ATOM     24  C   UNL     1       2.488  -0.778  -1.368  0.00  0.00    +0.007 A 
ATOM     25 CL   UNL     1       4.695  -4.060  -0.805  0.00  0.00    -0.084 Cl
ENDBRANCH  18  19
ENDBRANCH  15  18
ENDBRANCH   1  15
TORSDOF 4
