REMARK  Name = ZINC43245805
REMARK  9 active torsions:
REMARK  status: ('A' for Active; 'I' for Inactive)
REMARK    1  A    between atoms: C_1  and  C_2
REMARK    2  A    between atoms: C_5  and  C_7
REMARK    3  A    between atoms: C_7  and  C_9
REMARK    4  A    between atoms: C_7  and  O_13
REMARK    5  A    between atoms: C_9  and  C_11
REMARK    6  A    between atoms: C_9  and  N_12
REMARK    7  A    between atoms: O_13  and  C_14
REMARK    8  A    between atoms: C_17  and  S_20
REMARK    9  A    between atoms: S_20  and  C_23
REMARK                            x       y       z     vdW  Elec       q    Type
REMARK                         _______ _______ _______ _____ _____    ______ ____
ROOT
ATOM      1  C   UNL     1       1.036  -4.057  -0.018  0.00  0.00    +0.196 C 
ENDROOT
BRANCH   1   6
ATOM      2  C   UNL     1      -0.140   1.480   0.209  0.00  0.00    +0.051 C 
ATOM      3  C   UNL     1      -0.088  -0.025   0.151  0.00  0.00    -0.013 A 
ATOM      4  C   UNL     1      -1.111  -0.914   0.127  0.00  0.00    +0.011 A 
ATOM      5  C   UNL     1      -0.824  -2.265   0.072  0.00  0.00    +0.015 A 
ATOM      6  C   UNL     1       0.472  -2.661   0.043  0.00  0.00    +0.029 A 
ATOM      7  S   UNL     1       1.336  -1.100   0.087  0.00  0.00    -0.095 S 
ENDBRANCH   1   6
BRANCH   1   8
ATOM      8  C   UNL     1       1.444  -4.381  -1.456  0.00  0.00    -0.032 C 
ATOM      9  C   UNL     1       0.219  -4.287  -2.367  0.00  0.00    -0.010 C 
BRANCH   8  10
ATOM     10  N   UNL     1       1.995  -5.742  -1.515  0.00  0.00    +0.382 N 
ATOM     11  H   UNL     1       1.295  -6.401  -1.207  0.00  0.00    -0.089 HD
ATOM     12  H   UNL     1       2.264  -5.955  -2.464  0.00  0.00    -0.089 HD
ATOM     13  H   UNL     1       2.803  -5.804  -0.914  0.00  0.00    -0.089 HD
ENDBRANCH   8  10
ENDBRANCH   1   8
BRANCH   1  14
ATOM     14  O   UNL     1       2.181  -4.145   0.833  0.00  0.00    -0.485 OA
BRANCH  14  15
ATOM     15  C   UNL     1       2.352  -5.306   1.519  0.00  0.00    +0.121 A 
ATOM     16  C   UNL     1       3.372  -5.417   2.454  0.00  0.00    +0.047 A 
ATOM     17  C   UNL     1       3.543  -6.598   3.150  0.00  0.00    +0.030 A 
ATOM     18  C   UNL     1       2.700  -7.669   2.916  0.00  0.00    +0.088 A 
ATOM     19  C   UNL     1       1.684  -7.561   1.984  0.00  0.00    +0.030 A 
ATOM     20  C   UNL     1       1.504  -6.380   1.290  0.00  0.00    +0.047 A 
BRANCH  18  21
ATOM     21  S   UNL     1       2.922  -9.174   3.805  0.00  0.00    -0.006 S 
ATOM     22  O   UNL     1       2.383 -10.178   2.957  0.00  0.00    -0.170 OA
ATOM     23  O   UNL     1       4.299  -9.186   4.158  0.00  0.00    -0.170 OA
ATOM     24  C   UNL     1       1.898  -8.992   5.291  0.00  0.00    +0.200 C 
ENDBRANCH  18  21
ENDBRANCH  14  15
ENDBRANCH   1  14
TORSDOF 6
