REMARK  Name = ZINC35904214
REMARK  7 active torsions:
REMARK  status: ('A' for Active; 'I' for Inactive)
REMARK    1  A    between atoms: C_1  and  C_2
REMARK    2  A    between atoms: C_9  and  N_14
REMARK    3  A    between atoms: C_10  and  C_11
REMARK    4  A    between atoms: C_15  and  C_17
REMARK    5  A    between atoms: C_17  and  N_18
REMARK    6  A    between atoms: C_20  and  C_27
REMARK    7  A    between atoms: C_23  and  C_26
REMARK                            x       y       z     vdW  Elec       q    Type
REMARK                         _______ _______ _______ _____ _____    ______ ____
ROOT
ATOM      1  C   UNL     1      -0.019   1.526   0.010  0.00  0.00    +0.008 C 
ATOM      2  C   UNL     1       0.002  -0.004   0.002  0.00  0.00    -0.009 C 
ATOM      3  C   UNL     1      -1.434  -0.537   0.019  0.00  0.00    +0.008 C 
ATOM      4  C   UNL     1      -1.433  -2.045  -0.237  0.00  0.00    +0.037 C 
ATOM      5  C   UNL     1      -0.464  -2.704   0.734  0.00  0.00    -0.023 A 
ATOM      6  C   UNL     1       0.485  -1.986   1.374  0.00  0.00    -0.004 A 
ATOM      7  S   UNL     1       1.343  -3.167   2.373  0.00  0.00    -0.077 S 
ATOM      8  C   UNL     1       0.492  -4.557   1.968  0.00  0.00    +0.084 A 
ATOM      9  C   UNL     1      -0.459  -4.119   1.061  0.00  0.00    +0.068 A 
ATOM     10  C   UNL     1       0.739  -0.515   1.248  0.00  0.00    +0.046 C 
ENDROOT
BRANCH   9  11
ATOM     11  C   UNL     1      -1.421  -5.045   0.456  0.00  0.00    +0.244 C 
ATOM     12  O   UNL     1      -1.149  -5.611  -0.587  0.00  0.00    -0.270 OA
ATOM     13  N   UNL     1      -2.608  -5.271   1.055  0.00  0.00    -0.325 N 
ATOM     14  H   UNL     1      -2.825  -4.821   1.886  0.00  0.00    +0.145 HD
ATOM     15  H   UNL     1      -3.244  -5.884   0.655  0.00  0.00    +0.145 HD
ENDBRANCH   9  11
BRANCH   8  16
ATOM     16  N   UNL     1       0.696  -5.847   2.434  0.00  0.00    -0.281 N 
ATOM     17  C   UNL     1       1.677  -6.096   3.324  0.00  0.00    +0.201 C 
ATOM     18  O   UNL     1       2.383  -5.191   3.716  0.00  0.00    -0.278 OA
ATOM     19  H   UNL     1       0.131  -6.571   2.120  0.00  0.00    +0.155 HD
BRANCH  17  20
ATOM     20  C   UNL     1       1.898  -7.498   3.830  0.00  0.00    +0.019 C 
BRANCH  20  21
ATOM     21  N   UNL     1       3.018  -7.504   4.781  0.00  0.00    +0.386 N 
ATOM     22  C   UNL     1       2.660  -6.708   5.961  0.00  0.00    -0.075 C 
ATOM     23  C   UNL     1       3.852  -6.644   6.919  0.00  0.00    -0.031 C 
ATOM     24  C   UNL     1       4.227  -8.063   7.354  0.00  0.00    +0.003 C 
ATOM     25  C   UNL     1       4.526  -8.905   6.110  0.00  0.00    -0.031 C 
ATOM     26  C   UNL     1       3.309  -8.885   5.183  0.00  0.00    -0.075 C 
ATOM     27  C   UNL     1       5.737  -8.323   5.378  0.00  0.00    +0.005 C 
ATOM     28  C   UNL     1       3.475  -5.814   8.148  0.00  0.00    +0.005 C 
ATOM     29  H   UNL     1       3.833  -7.103   4.342  0.00  0.00    -0.081 HD
ENDBRANCH  20  21
ENDBRANCH  17  20
ENDBRANCH   8  16
TORSDOF 4
