REMARK  Name = ZINC35742739
REMARK  15 active torsions:
REMARK  status: ('A' for Active; 'I' for Inactive)
REMARK    1  A    between atoms: C_1  and  C_2
REMARK    2  A    between atoms: C_5  and  C_8
REMARK    3  A    between atoms: C_8  and  N_9
REMARK    4  A    between atoms: N_9  and  C_10
REMARK    5  A    between atoms: N_9  and  C_17
REMARK    6  A    between atoms: C_10  and  C_11
REMARK    7  A    between atoms: C_17  and  C_18
REMARK    8  A    between atoms: C_21  and  C_23
REMARK    9  A    between atoms: C_23  and  C_24
REMARK   10  A    between atoms: C_23  and  C_32
REMARK   11  A    between atoms: C_23  and  O_40
REMARK   12  A    between atoms: C_27  and  O_30
REMARK   13  A    between atoms: O_30  and  C_31
REMARK   14  A    between atoms: C_35  and  O_38
REMARK   15  A    between atoms: O_38  and  C_39
REMARK                            x       y       z     vdW  Elec       q    Type
REMARK                         _______ _______ _______ _____ _____    ______ ____
ROOT
ATOM      1  C   UNL     1       3.700  -6.747   0.773  0.00  0.00    +0.089 A 
ATOM      2  C   UNL     1       4.574  -7.158   1.709  0.00  0.00    +0.043 A 
ATOM      3  C   UNL     1       5.735  -7.588   1.025  0.00  0.00    +0.048 A 
ATOM      4  C   UNL     1       5.500  -7.414  -0.288  0.00  0.00    +0.146 A 
ATOM      5  O   UNL     1       4.264  -6.910  -0.435  0.00  0.00    -0.463 OA
ENDROOT
BRANCH   1   6
ATOM      6  C   UNL     1       2.320  -6.202   1.035  0.00  0.00    -0.002 C 
BRANCH   6   7
ATOM      7  N   UNL     1       2.390  -4.743   1.191  0.00  0.00    +0.390 N 
ATOM      8  H   UNL     1       3.057  -4.514   1.913  0.00  0.00    -0.080 HD
BRANCH   7   9
ATOM      9  C   UNL     1       1.067  -4.226   1.564  0.00  0.00    -0.042 C 
BRANCH   9  14
ATOM     10  C   UNL     1      -0.368  -6.200   6.803  0.00  0.00    +0.044 C 
ATOM     11  C   UNL     1       0.007  -5.685   5.437  0.00  0.00    -0.050 A 
ATOM     12  C   UNL     1       0.803  -4.562   5.316  0.00  0.00    +0.003 A 
ATOM     13  C   UNL     1       1.146  -4.090   4.062  0.00  0.00    +0.002 A 
ATOM     14  C   UNL     1       0.694  -4.741   2.930  0.00  0.00    -0.064 A 
ATOM     15  C   UNL     1      -0.102  -5.865   3.051  0.00  0.00    +0.002 A 
ATOM     16  C   UNL     1      -0.442  -6.340   4.305  0.00  0.00    +0.003 A 
ENDBRANCH   9  14
ENDBRANCH   7   9
BRANCH   7  17
ATOM     17  C   UNL     1       2.813  -4.136  -0.078  0.00  0.00    -0.042 C 
BRANCH  17  18
ATOM     18  C   UNL     1       3.023  -2.656   0.119  0.00  0.00    -0.064 A 
ATOM     19  C   UNL     1       2.014  -1.767  -0.198  0.00  0.00    +0.002 A 
ATOM     20  C   UNL     1       2.206  -0.410  -0.017  0.00  0.00    +0.000 A 
ATOM     21  C   UNL     1       3.408   0.058   0.481  0.00  0.00    +0.000 A 
ATOM     22  C   UNL     1       4.417  -0.832   0.798  0.00  0.00    +0.000 A 
ATOM     23  C   UNL     1       4.223  -2.189   0.622  0.00  0.00    +0.002 A 
ENDBRANCH  17  18
ENDBRANCH   7  17
ENDBRANCH   6   7
ENDBRANCH   1   6
BRANCH   4  24
ATOM     24  C   UNL     1       6.459  -7.735  -1.405  0.00  0.00    +0.174 C 
BRANCH  24  25
ATOM     25  C   UNL     1       5.683  -8.114  -2.640  0.00  0.00    -0.004 A 
ATOM     26  C   UNL     1       5.763  -9.402  -3.138  0.00  0.00    +0.011 A 
ATOM     27  C   UNL     1       5.053  -9.751  -4.270  0.00  0.00    +0.046 A 
ATOM     28  C   UNL     1       4.259  -8.810  -4.908  0.00  0.00    +0.120 A 
ATOM     29  C   UNL     1       4.179  -7.519  -4.406  0.00  0.00    +0.046 A 
ATOM     30  C   UNL     1       4.887  -7.175  -3.271  0.00  0.00    +0.011 A 
BRANCH  28  31
ATOM     31  O   UNL     1       3.560  -9.151  -6.022  0.00  0.00    -0.495 OA
ATOM     32  C   UNL     1       2.763  -8.130  -6.626  0.00  0.00    +0.277 C 
ENDBRANCH  28  31
ENDBRANCH  24  25
BRANCH  24  33
ATOM     33  C   UNL     1       7.311  -6.528  -1.698  0.00  0.00    -0.004 A 
ATOM     34  C   UNL     1       6.745  -5.266  -1.699  0.00  0.00    +0.011 A 
ATOM     35  C   UNL     1       7.524  -4.158  -1.968  0.00  0.00    +0.046 A 
ATOM     36  C   UNL     1       8.876  -4.311  -2.237  0.00  0.00    +0.120 A 
ATOM     37  C   UNL     1       9.443  -5.577  -2.236  0.00  0.00    +0.046 A 
ATOM     38  C   UNL     1       8.660  -6.682  -1.961  0.00  0.00    +0.011 A 
BRANCH  36  39
ATOM     39  O   UNL     1       9.645  -3.222  -2.502  0.00  0.00    -0.495 OA
ATOM     40  C   UNL     1      11.029  -3.455  -2.771  0.00  0.00    +0.277 C 
ENDBRANCH  36  39
ENDBRANCH  24  33
BRANCH  24  41
ATOM     41  O   UNL     1       7.296  -8.826  -1.015  0.00  0.00    -0.372 OA
ATOM     42  H   UNL     1       6.813  -9.639  -0.811  0.00  0.00    +0.212 HD
ENDBRANCH  24  41
ENDBRANCH   4  24
TORSDOF 12
