REMARK  Name = ZINC37621445
REMARK  7 active torsions:
REMARK  status: ('A' for Active; 'I' for Inactive)
REMARK    1  A    between atoms: C_1  and  C_2
REMARK    2  A    between atoms: C_2  and  C_3
REMARK    3  A    between atoms: C_3  and  C_4
REMARK    4  A    between atoms: C_4  and  C_5
REMARK    5  A    between atoms: C_4  and  C_6
REMARK    6  A    between atoms: C_4  and  N_18
REMARK    7  A    between atoms: N_8  and  C_9
REMARK                            x       y       z     vdW  Elec       q    Type
REMARK                         _______ _______ _______ _____ _____    ______ ____
ROOT
ATOM      1  C   UNL     1      -2.632  -2.849   1.328  0.00  0.00    +0.206 C 
ATOM      2  O   UNL     1      -3.391  -2.301   2.099  0.00  0.00    -0.277 OA
ATOM      3  N   UNL     1      -3.088  -3.813   0.504  0.00  0.00    -0.284 N 
ATOM      4  H   UNL     1      -2.499  -4.200  -0.163  0.00  0.00    +0.155 HD
ENDROOT
BRANCH   3   5
ATOM      5  C   UNL     1      -4.412  -4.257   0.611  0.00  0.00    +0.070 A 
ATOM      6  C   UNL     1      -5.411  -3.655  -0.143  0.00  0.00    +0.065 A 
ATOM      7  C   UNL     1      -6.717  -4.096  -0.035  0.00  0.00    +0.037 A 
ATOM      8  C   UNL     1      -7.029  -5.135   0.823  0.00  0.00    +0.021 A 
ATOM      9  C   UNL     1      -6.037  -5.736   1.576  0.00  0.00    +0.037 A 
ATOM     10  C   UNL     1      -4.728  -5.304   1.468  0.00  0.00    +0.065 A 
ATOM     11 CL   UNL     1      -3.482  -6.065   2.408  0.00  0.00    -0.082 Cl
ATOM     12 BR   UNL     1      -8.817  -5.734   0.968  0.00  0.00    -0.050 Br
ATOM     13 CL   UNL     1      -5.020  -2.351  -1.220  0.00  0.00    -0.082 Cl
ENDBRANCH   3   5
BRANCH   1  14
ATOM     14  C   UNL     1      -1.179  -2.451   1.291  0.00  0.00    +0.005 C 
ATOM     15  C   UNL     1      -0.963  -1.410   0.191  0.00  0.00    -0.001 C 
BRANCH  14  16
ATOM     16  N   UNL     1      -0.354  -3.635   1.013  0.00  0.00    +0.387 N 
ATOM     17  H   UNL     1      -0.496  -4.322   1.738  0.00  0.00    -0.089 HD
ATOM     18  H   UNL     1      -0.618  -4.027   0.122  0.00  0.00    -0.089 HD
ATOM     19  H   UNL     1       0.619  -3.369   0.988  0.00  0.00    -0.089 HD
ENDBRANCH  14  16
BRANCH  14  20
ATOM     20  C   UNL     1      -0.778  -1.857   2.642  0.00  0.00    -0.004 C 
BRANCH  20  22
ATOM     21  C   UNL     1       1.098  -0.858   3.956  0.00  0.00    +0.004 C 
ATOM     22  C   UNL     1       0.697  -1.453   2.605  0.00  0.00    -0.004 C 
ENDBRANCH  20  22
ENDBRANCH  14  20
ENDBRANCH   1  14
TORSDOF 5
