REMARK  Name = ZINC49508682
REMARK  9 active torsions:
REMARK  status: ('A' for Active; 'I' for Inactive)
REMARK    1  A    between atoms: C_1  and  C_2
REMARK    2  A    between atoms: C_5  and  N_14
REMARK    3  A    between atoms: C_7  and  N_8
REMARK    4  A    between atoms: C_15  and  C_17
REMARK    5  A    between atoms: N_19  and  C_20
REMARK    6  A    between atoms: C_20  and  C_21
REMARK    7  A    between atoms: C_21  and  C_23
REMARK    8  A    between atoms: C_21  and  N_34
REMARK    9  A    between atoms: N_32  and  C_33
REMARK                            x       y       z     vdW  Elec       q    Type
REMARK                         _______ _______ _______ _____ _____    ______ ____
ROOT
ATOM      1  C   UNL     1      -1.033  -9.075  -0.257  0.00  0.00    +0.299 C 
ATOM      2  O   UNL     1      -0.286  -8.312   0.319  0.00  0.00    -0.265 OA
ATOM      3  N   UNL     1      -0.804  -9.399  -1.545  0.00  0.00    -0.309 N 
ATOM      4  H   UNL     1      -1.401 -10.010  -2.006  0.00  0.00    +0.149 HD
ENDROOT
BRANCH   1   6
ATOM      5  N   UNL     1      -2.437  -9.332   1.749  0.00  0.00    -0.278 N 
ATOM      6  C   UNL     1      -2.207  -9.656   0.461  0.00  0.00    +0.303 C 
ATOM      7  O   UNL     1      -2.954 -10.420  -0.115  0.00  0.00    -0.265 OA
ATOM      8  H   UNL     1      -1.881  -8.669   2.189  0.00  0.00    +0.155 HD
BRANCH   5  13
ATOM      9  C   UNL     1      -6.644 -11.844   4.613  0.00  0.00    +0.045 C 
ATOM     10  C   UNL     1      -5.528 -11.178   3.851  0.00  0.00    -0.029 A 
ATOM     11  C   UNL     1      -4.352 -10.849   4.497  0.00  0.00    +0.007 A 
ATOM     12  C   UNL     1      -3.326 -10.237   3.803  0.00  0.00    +0.024 A 
ATOM     13  C   UNL     1      -3.474  -9.951   2.451  0.00  0.00    +0.036 A 
ATOM     14  C   UNL     1      -4.654 -10.281   1.799  0.00  0.00    +0.047 A 
ATOM     15  C   UNL     1      -5.680 -10.900   2.498  0.00  0.00    +0.041 A 
BRANCH  15  16
ATOM     16  N   UNL     1      -6.869 -11.239   1.843  0.00  0.00    -0.271 N 
ATOM     17  C   UNL     1      -8.032 -10.351   1.726  0.00  0.00    +0.114 C 
ATOM     18  C   UNL     1      -8.893 -10.948   0.591  0.00  0.00    +0.029 C 
ATOM     19  C   UNL     1      -8.477 -12.437   0.629  0.00  0.00    +0.098 C 
ATOM     20  C   UNL     1      -7.091 -12.417   1.236  0.00  0.00    +0.220 C 
ATOM     21  O   UNL     1      -6.298 -13.333   1.185  0.00  0.00    -0.275 OA
ENDBRANCH  15  16
ENDBRANCH   5  13
ENDBRANCH   1   6
BRANCH   3  22
ATOM     22  C   UNL     1       0.347  -8.830  -2.250  0.00  0.00    +0.094 C 
BRANCH  22  23
ATOM     23  C   UNL     1       0.310  -9.258  -3.718  0.00  0.00    -0.020 C 
BRANCH  23  24
ATOM     24  C   UNL     1       0.427 -10.757  -3.808  0.00  0.00    -0.059 A 
ATOM     25  C   UNL     1       1.666 -11.361  -3.693  0.00  0.00    +0.004 A 
ATOM     26  C   UNL     1       1.773 -12.734  -3.776  0.00  0.00    +0.023 A 
ATOM     27  C   UNL     1       0.636 -13.510  -3.974  0.00  0.00    +0.033 A 
ATOM     28  C   UNL     1      -0.606 -12.905  -4.085  0.00  0.00    -0.026 A 
ATOM     29  C   UNL     1      -0.705 -11.527  -3.998  0.00  0.00    +0.007 A 
ATOM     30  C   UNL     1      -1.859 -13.714  -4.289  0.00  0.00    +0.038 C 
ATOM     31  C   UNL     1      -1.520 -15.096  -4.848  0.00  0.00    +0.024 C 
ATOM     32  C   UNL     1      -0.438 -15.735  -3.967  0.00  0.00    +0.105 C 
ATOM     33  N   UNL     1       0.767 -14.901  -4.061  0.00  0.00    -0.333 N 
ATOM     34  C   UNL     1       2.085 -15.514  -4.242  0.00  0.00    +0.129 C 
ENDBRANCH  23  24
BRANCH  23  35
ATOM     35  N   UNL     1       1.428  -8.635  -4.439  0.00  0.00    +0.385 N 
ATOM     36  C   UNL     1       1.355  -7.177  -4.288  0.00  0.00    -0.078 C 
ATOM     37  C   UNL     1       2.562  -6.529  -4.968  0.00  0.00    -0.019 C 
ATOM     38  C   UNL     1       2.559  -6.891  -6.456  0.00  0.00    -0.004 C 
ATOM     39  C   UNL     1       2.561  -8.415  -6.601  0.00  0.00    -0.019 C 
ATOM     40  C   UNL     1       1.353  -8.994  -5.860  0.00  0.00    -0.078 C 
ATOM     41  H   UNL     1       2.300  -8.967  -4.055  0.00  0.00    -0.081 HD
ENDBRANCH  23  35
ENDBRANCH  22  23
ENDBRANCH   3  22
TORSDOF 7
