REMARK  Name = ZINC36447070
REMARK  11 active torsions:
REMARK  status: ('A' for Active; 'I' for Inactive)
REMARK    1  A    between atoms: C_1  and  C_2
REMARK    2  A    between atoms: C_3  and  C_27
REMARK    3  A    between atoms: N_4  and  C_18
REMARK    4  A    between atoms: C_5  and  S_7
REMARK    5  A    between atoms: S_7  and  C_8
REMARK    6  A    between atoms: C_8  and  C_9
REMARK    7  A    between atoms: C_8  and  C_12
REMARK    8  A    between atoms: C_9  and  C_10
REMARK    9  A    between atoms: C_9  and  C_11
REMARK   10  A    between atoms: C_18  and  C_19
REMARK   11  A    between atoms: C_18  and  C_20
REMARK                            x       y       z     vdW  Elec       q    Type
REMARK                         _______ _______ _______ _____ _____    ______ ____
ROOT
ATOM      1  C   UNL     1       0.248   1.665  -0.691  0.00  0.00    +0.065 C 
ATOM      2  C   UNL     1       0.228   0.172  -0.485  0.00  0.00    +0.034 A 
ATOM      3  C   UNL     1       0.111  -0.754  -1.453  0.00  0.00    +0.037 A 
ATOM      4  N   UNL     1       0.138  -1.985  -0.836  0.00  0.00    -0.321 N 
ATOM      5  C   UNL     1       0.273  -1.758   0.499  0.00  0.00    +0.148 A 
ATOM      6  N   UNL     1       0.330  -0.461   0.695  0.00  0.00    -0.338 N 
ATOM      7  C   UNL     1      -0.024  -0.494  -2.931  0.00  0.00    +0.065 C 
ATOM      8  H   UNL     1       0.429  -0.028   1.558  0.00  0.00    +0.168 HD
ENDROOT
BRANCH   4   9
ATOM      9  C   UNL     1       0.041  -3.291  -1.493  0.00  0.00    +0.090 C 
ATOM     10  C   UNL     1      -1.183  -4.039  -0.961  0.00  0.00    +0.031 C 
BRANCH   9  11
ATOM     11  C   UNL     1       1.303  -4.104  -1.200  0.00  0.00    +0.015 C 
ATOM     12  C   UNL     1       1.335  -5.381  -2.071  0.00  0.00    +0.009 C 
ATOM     13  C   UNL     1       2.623  -5.234  -2.938  0.00  0.00    -0.010 C 
ATOM     14  C   UNL     1       2.292  -4.083  -3.937  0.00  0.00    +0.004 C 
ATOM     15  C   UNL     1       2.259  -2.807  -3.066  0.00  0.00    +0.004 C 
ATOM     16  C   UNL     1       2.574  -3.306  -1.623  0.00  0.00    -0.006 C 
ATOM     17  C   UNL     1       3.566  -4.483  -1.933  0.00  0.00    +0.007 C 
ENDBRANCH   9  11
ENDBRANCH   4   9
BRANCH   5  18
ATOM     18  S   UNL     1       0.360  -2.995   1.751  0.00  0.00    -0.077 S 
BRANCH  18  19
ATOM     19  C   UNL     1       0.533  -2.050   3.290  0.00  0.00    +0.143 C 
BRANCH  19  20
ATOM     20  C   UNL     1       0.743  -2.999   4.441  0.00  0.00    +0.234 C 
ATOM     21  O   UNL     1       0.422  -4.163   4.334  0.00  0.00    -0.274 OA
ATOM     22  N   UNL     1       1.288  -2.555   5.591  0.00  0.00    -0.239 N 
ATOM     23  C   UNL     1       1.476  -3.404   6.620  0.00  0.00    +0.303 C 
ATOM     24  O   UNL     1       1.154  -4.571   6.512  0.00  0.00    -0.253 OA
ATOM     25  N   UNL     1       2.022  -2.959   7.770  0.00  0.00    -0.313 N 
ATOM     26  H   UNL     1       1.546  -1.623   5.677  0.00  0.00    +0.159 HD
ATOM     27  H   UNL     1       2.279  -2.027   7.856  0.00  0.00    +0.146 HD
ATOM     28  H   UNL     1       2.157  -3.570   8.511  0.00  0.00    +0.146 HD
ENDBRANCH  19  20
BRANCH  19  29
ATOM     29  C   UNL     1      -0.736  -1.230   3.530  0.00  0.00    +0.005 C 
ATOM     30  C   UNL     1      -1.917  -2.175   3.765  0.00  0.00    +0.009 C 
ATOM     31  C   UNL     1      -0.543  -0.340   4.759  0.00  0.00    +0.009 C 
ENDBRANCH  19  29
ENDBRANCH  18  19
ENDBRANCH   5  18
TORSDOF 6
