REMARK  Name = ZINC59170473
REMARK  10 active torsions:
REMARK  status: ('A' for Active; 'I' for Inactive)
REMARK    1  A    between atoms: C_1  and  C_2
REMARK    2  A    between atoms: C_2  and  O_3
REMARK    3  A    between atoms: O_3  and  C_4
REMARK    4  A    between atoms: N_12  and  C_13
REMARK    5  A    between atoms: C_16  and  S_19
REMARK    6  A    between atoms: S_19  and  N_22
REMARK    7  A    between atoms: C_23  and  C_25
REMARK    8  A    between atoms: N_27  and  C_28
REMARK    9  A    between atoms: C_31  and  C_35
REMARK   10  A    between atoms: C_32  and  C_34
REMARK                            x       y       z     vdW  Elec       q    Type
REMARK                         _______ _______ _______ _____ _____    ______ ____
ROOT
ATOM      1  C   UNL     1       0.824  -1.513  -1.466  0.00  0.00    +0.163 A 
ATOM      2  C   UNL     1      -0.306  -2.124  -0.949  0.00  0.00    +0.049 A 
ATOM      3  C   UNL     1      -0.902  -3.184  -1.615  0.00  0.00    +0.004 A 
ATOM      4  C   UNL     1      -0.377  -3.647  -2.801  0.00  0.00    +0.012 A 
ATOM      5  C   UNL     1       0.768  -3.043  -3.336  0.00  0.00    +0.022 A 
ATOM      6  C   UNL     1       1.367  -1.961  -2.666  0.00  0.00    +0.179 A 
ATOM      7  O   UNL     1       2.466  -1.367  -3.191  0.00  0.00    -0.435 OA
ATOM      8  C   UNL     1       3.263  -2.132  -3.981  0.00  0.00    +0.212 A 
ATOM      9  N   UNL     1       4.574  -2.050  -3.903  0.00  0.00    -0.325 N 
ATOM     10  C   UNL     1       2.613  -3.058  -4.929  0.00  0.00    +0.098 A 
ATOM     11  C   UNL     1       1.350  -3.522  -4.592  0.00  0.00    +0.030 A 
ATOM     12  H   UNL     1       5.128  -2.677  -4.393  0.00  0.00    +0.169 HD
ENDROOT
BRANCH   9  13
ATOM     13  C   UNL     1       5.154  -1.082  -3.132  0.00  0.00    +0.042 A 
ATOM     14  C   UNL     1       4.681   0.232  -3.181  0.00  0.00    +0.027 A 
ATOM     15  C   UNL     1       5.272   1.204  -2.401  0.00  0.00    +0.030 A 
ATOM     16  C   UNL     1       6.330   0.880  -1.569  0.00  0.00    +0.105 A 
ATOM     17  C   UNL     1       6.803  -0.419  -1.516  0.00  0.00    +0.030 A 
ATOM     18  C   UNL     1       6.219  -1.403  -2.286  0.00  0.00    +0.027 A 
BRANCH  16  19
ATOM     19  S   UNL     1       7.078   2.128  -0.576  0.00  0.00    +0.056 S 
ATOM     20  O   UNL     1       8.398   1.685  -0.294  0.00  0.00    -0.153 OA
ATOM     21  O   UNL     1       6.809   3.369  -1.213  0.00  0.00    -0.153 OA
BRANCH  19  22
ATOM     22  N   UNL     1       6.269   2.153   0.869  0.00  0.00    -0.204 NA
ATOM     23  H   UNL     1       5.532   1.542   1.023  0.00  0.00    +0.144 HD
ATOM     24  H   UNL     1       6.532   2.779   1.562  0.00  0.00    +0.144 HD
ENDBRANCH  19  22
ENDBRANCH  16  19
ENDBRANCH   9  13
BRANCH  10  25
ATOM     25  C   UNL     1       3.280  -3.479  -6.172  0.00  0.00    +0.253 C 
ATOM     26  O   UNL     1       2.782  -4.343  -6.868  0.00  0.00    -0.270 OA
ATOM     27  N   UNL     1       4.444  -2.907  -6.539  0.00  0.00    -0.281 N 
ATOM     28  H   UNL     1       4.869  -2.257  -5.958  0.00  0.00    +0.155 HD
BRANCH  27  29
ATOM     29  C   UNL     1       5.039  -3.250  -7.757  0.00  0.00    +0.034 A 
ATOM     30  C   UNL     1       4.946  -4.551  -8.235  0.00  0.00    +0.023 A 
ATOM     31  C   UNL     1       5.534  -4.887  -9.438  0.00  0.00    +0.005 A 
ATOM     32  C   UNL     1       6.215  -3.930 -10.167  0.00  0.00    -0.047 A 
ATOM     33  C   UNL     1       6.311  -2.634  -9.694  0.00  0.00    -0.046 A 
ATOM     34  C   UNL     1       5.720  -2.290  -8.494  0.00  0.00    +0.027 A 
ATOM     35  C   UNL     1       7.055  -1.595 -10.492  0.00  0.00    +0.044 C 
ATOM     36  C   UNL     1       6.856  -4.300 -11.480  0.00  0.00    +0.044 C 
ENDBRANCH  27  29
ENDBRANCH  10  25
BRANCH   1  37
ATOM     37  O   UNL     1       1.399  -0.473  -0.804  0.00  0.00    -0.489 OA
BRANCH  37  39
ATOM     38  C   UNL     1       1.568   1.108   1.016  0.00  0.00    +0.048 C 
ATOM     39  C   UNL     1       0.787  -0.066   0.421  0.00  0.00    +0.226 C 
ENDBRANCH  37  39
ENDBRANCH   1  37
TORSDOF 7
