REMARK  Name = ZINC62776772
REMARK  8 active torsions:
REMARK  status: ('A' for Active; 'I' for Inactive)
REMARK    1  A    between atoms: C_1  and  C_2
REMARK    2  A    between atoms: C_2  and  C_3
REMARK    3  A    between atoms: C_3  and  N_4
REMARK    4  A    between atoms: N_4  and  C_5
REMARK    5  A    between atoms: C_5  and  C_7
REMARK    6  A    between atoms: C_5  and  C_17
REMARK    7  A    between atoms: C_12  and  O_13
REMARK    8  A    between atoms: O_13  and  C_14
REMARK                            x       y       z     vdW  Elec       q    Type
REMARK                         _______ _______ _______ _____ _____    ______ ____
ROOT
ATOM      1  C   UNL     1       1.566  -2.412   2.487  0.00  0.00    -0.003 C 
ENDROOT
BRANCH   1   2
ATOM      2  C   UNL     1       1.833  -3.895   2.457  0.00  0.00    -0.013 A 
ATOM      3  C   UNL     1       1.250  -4.722   3.398  0.00  0.00    +0.026 A 
ATOM      4  C   UNL     1       1.494  -6.083   3.370  0.00  0.00    +0.042 A 
ATOM      5  C   UNL     1       2.323  -6.620   2.401  0.00  0.00    +0.039 A 
ATOM      6  C   UNL     1       2.909  -5.796   1.458  0.00  0.00    +0.061 A 
ATOM      7  C   UNL     1       2.660  -4.431   1.481  0.00  0.00    +0.136 A 
ATOM      8 BR   UNL     1       4.042  -6.529   0.134  0.00  0.00    -0.046 Br
ATOM      9 CL   UNL     1       0.760  -7.120   4.553  0.00  0.00    -0.083 Cl
BRANCH   7  10
ATOM     10  O   UNL     1       3.230  -3.619   0.551  0.00  0.00    -0.494 OA
ATOM     11  C   UNL     1       4.529  -3.104   0.849  0.00  0.00    +0.277 C 
ENDBRANCH   7  10
ENDBRANCH   1   2
BRANCH   1  12
ATOM     12  C   UNL     1       0.987  -2.033   3.826  0.00  0.00    -0.020 A 
ATOM     13  C   UNL     1       1.675  -1.538   4.880  0.00  0.00    +0.107 A 
ATOM     14  N   UNL     1       0.798  -1.330   5.884  0.00  0.00    -0.285 N 
ATOM     15  H   UNL     1       1.009  -0.979   6.763  0.00  0.00    +0.188 HD
ATOM     16  N   UNL     1      -0.472  -1.711   5.432  0.00  0.00    -0.182 NA
ATOM     17  C   UNL     1      -0.359  -2.127   4.197  0.00  0.00    +0.136 A 
ENDBRANCH   1  12
BRANCH   1  18
ATOM     18  N   UNL     1       0.612  -2.064   1.425  0.00  0.00    +0.386 N 
ATOM     19  H   UNL     1      -0.278  -2.500   1.616  0.00  0.00    -0.085 HD
ATOM     20  H   UNL     1       0.963  -2.391   0.538  0.00  0.00    -0.085 HD
BRANCH  18  21
ATOM     21  C   UNL     1       0.443  -0.606   1.377  0.00  0.00    -0.082 C 
BRANCH  21  23
ATOM     22  C   UNL     1      -0.726   1.276   0.221  0.00  0.00    +0.002 C 
ATOM     23  C   UNL     1      -0.550  -0.243   0.271  0.00  0.00    -0.022 C 
ENDBRANCH  21  23
ENDBRANCH  18  21
ENDBRANCH   1  18
TORSDOF 6
