REMARK  Name = ZINC42398839
REMARK  9 active torsions:
REMARK  status: ('A' for Active; 'I' for Inactive)
REMARK    1  A    between atoms: C_1  and  N_2
REMARK    2  A    between atoms: N_2  and  C_3
REMARK    3  A    between atoms: N_2  and  C_10
REMARK    4  A    between atoms: C_3  and  C_4
REMARK    5  A    between atoms: C_10  and  C_12
REMARK    6  A    between atoms: C_10  and  C_14
REMARK    7  A    between atoms: C_12  and  N_13
REMARK    8  A    between atoms: C_19  and  O_20
REMARK    9  A    between atoms: O_20  and  C_21
REMARK                            x       y       z     vdW  Elec       q    Type
REMARK                         _______ _______ _______ _____ _____    ______ ____
ROOT
ATOM      1  C   UNL     1       0.479  -0.722  -1.058  0.00  0.00    +0.073 C 
ENDROOT
BRANCH   1   2
ATOM      2  C   UNL     1      -0.054  -0.286  -2.399  0.00  0.00    +0.009 A 
ATOM      3  C   UNL     1      -1.224   0.444  -2.474  0.00  0.00    +0.009 A 
ATOM      4  C   UNL     1      -1.714   0.844  -3.704  0.00  0.00    +0.001 A 
ATOM      5  C   UNL     1      -1.033   0.515  -4.861  0.00  0.00    +0.004 A 
ATOM      6  C   UNL     1       0.138  -0.214  -4.792  0.00  0.00    +0.046 A 
ATOM      7  C   UNL     1       0.634  -0.612  -3.559  0.00  0.00    +0.125 A 
BRANCH   7   8
ATOM      8  O   UNL     1       1.789  -1.325  -3.487  0.00  0.00    -0.495 OA
ATOM      9  C   UNL     1       2.444  -1.625  -4.722  0.00  0.00    +0.277 C 
ENDBRANCH   7   8
ENDBRANCH   1   2
BRANCH   1  11
ATOM     10  C   UNL     1       0.294   1.514  -0.149  0.00  0.00    +0.105 C 
ATOM     11  N   UNL     1      -0.112   0.111  -0.002  0.00  0.00    -0.295 NA
BRANCH  11  12
ATOM     12  C   UNL     1       0.236  -0.402   1.329  0.00  0.00    +0.127 C 
BRANCH  12  13
ATOM     13  C   UNL     1      -0.627   0.267   2.367  0.00  0.00    +0.005 A 
ATOM     14  C   UNL     1      -1.832  -0.119   2.853  0.00  0.00    +0.027 A 
ATOM     15  C   UNL     1      -2.449   0.660   3.814  0.00  0.00    +0.025 A 
ATOM     16  C   UNL     1      -1.830   1.788   4.242  0.00  0.00    +0.060 A 
ATOM     17  S   UNL     1      -0.325   1.771   3.281  0.00  0.00    -0.099 S 
ATOM     18 BR   UNL     1      -4.130   0.161   4.522  0.00  0.00    -0.050 Br
ENDBRANCH  12  13
ENDBRANCH  11  12
ENDBRANCH   1  11
BRANCH   1  19
ATOM     19  C   UNL     1       0.114  -2.188  -0.817  0.00  0.00    -0.062 C 
BRANCH  19  20
ATOM     20  N   UNL     1      -1.346  -2.318  -0.712  0.00  0.00    +0.379 N 
ATOM     21  H   UNL     1      -1.670  -1.820   0.103  0.00  0.00    -0.090 HD
ATOM     22  H   UNL     1      -1.778  -1.931  -1.538  0.00  0.00    -0.090 HD
ATOM     23  H   UNL     1      -1.591  -3.293  -0.630  0.00  0.00    -0.090 HD
ENDBRANCH  19  20
ENDBRANCH   1  19
TORSDOF 7
