REMARK  Name = ZINC37943940
REMARK  3 active torsions:
REMARK  status: ('A' for Active; 'I' for Inactive)
REMARK    1  A    between atoms: C_3  and  C_9
REMARK    2  A    between atoms: C_9  and  C_11
REMARK    3  A    between atoms: C_9  and  N_14
REMARK                            x       y       z     vdW  Elec       q    Type
REMARK                         _______ _______ _______ _____ _____    ______ ____
ROOT
ATOM      1  C   UNL     1       3.671   2.187  -0.022  0.00  0.00    +0.176 C 
ENDROOT
BRANCH   1   2
ATOM      2  N   UNL     1       3.454   3.513   0.572  0.00  0.00    -0.290 NA
ATOM      3  C   UNL     1       2.921   3.400   1.909  0.00  0.00    +0.083 C 
ATOM      4  C   UNL     1       1.890   4.497   2.241  0.00  0.00    -0.004 C 
ATOM      5  C   UNL     1       2.323   5.878   1.715  0.00  0.00    -0.081 C 
ATOM      6  N   UNL     1       3.733   6.113   1.915  0.00  0.00    +0.380 N 
ATOM      7  C   UNL     1       4.441   5.738   0.676  0.00  0.00    -0.067 C 
ATOM      8  C   UNL     1       4.709   4.304   0.581  0.00  0.00    +0.066 C 
ATOM      9  H   UNL     1       3.891   7.089   2.116  0.00  0.00    -0.086 HD
ATOM     10  H   UNL     1       4.067   5.549   2.682  0.00  0.00    -0.086 HD
ENDBRANCH   1   2
BRANCH   1  13
ATOM     11  C   UNL     1      -0.017   1.379   0.010  0.00  0.00    +0.016 A 
ATOM     12  C   UNL     1       1.171   2.087   0.002  0.00  0.00    +0.009 A 
ATOM     13  C   UNL     1       2.377   1.414  -0.013  0.00  0.00    +0.014 A 
ATOM     14  C   UNL     1       2.398   0.030  -0.021  0.00  0.00    +0.130 A 
ATOM     15  C   UNL     1       1.209  -0.679  -0.013  0.00  0.00    +0.054 A 
ATOM     16  C   UNL     1       0.002  -0.004   0.002  0.00  0.00    +0.021 A 
ATOM     17 BR   UNL     1      -1.623  -0.972   0.012  0.00  0.00    -0.050 Br
ATOM     18  F   UNL     1       3.577  -0.629  -0.036  0.00  0.00    -0.205 F 
ENDBRANCH   1  13
BRANCH   1  19
ATOM     19  C   UNL     1       4.152   2.346  -1.441  0.00  0.00    +0.232 C 
ATOM     20  O   UNL     1       4.299   3.454  -1.911  0.00  0.00    -0.274 OA
ATOM     21  N   UNL     1       4.419   1.256  -2.188  0.00  0.00    -0.328 N 
ATOM     22  H   UNL     1       4.301   0.369  -1.812  0.00  0.00    +0.145 HD
ATOM     23  H   UNL     1       4.728   1.358  -3.102  0.00  0.00    +0.145 HD
ENDBRANCH   1  19
TORSDOF 3
