REMARK  Name = ZINC39352033
REMARK  6 active torsions:
REMARK  status: ('A' for Active; 'I' for Inactive)
REMARK    1  A    between atoms: C_1  and  C_2
REMARK    2  A    between atoms: C_8  and  C_18
REMARK    3  A    between atoms: C_10  and  C_16
REMARK    4  A    between atoms: C_11  and  N_15
REMARK    5  A    between atoms: C_21  and  O_24
REMARK    6  A    between atoms: O_24  and  C_25
REMARK                            x       y       z     vdW  Elec       q    Type
REMARK                         _______ _______ _______ _____ _____    ______ ____
ROOT
ATOM      1  C   UNL     1      -0.018   1.503   0.010  0.00  0.00    +0.063 C 
ATOM      2  C   UNL     1       0.002  -0.004   0.002  0.00  0.00    +0.034 C 
ATOM      3  N   UNL     1       0.005  -0.613  -1.159  0.00  0.00    -0.185 NA
ATOM      4  C   UNL     1       0.032  -1.941  -1.288  0.00  0.00    +0.248 C 
ATOM      5  O   UNL     1       0.016  -2.462  -2.386  0.00  0.00    -0.273 OA
ATOM      6  C   UNL     1       0.086  -2.782  -0.028  0.00  0.00    +0.155 C 
ATOM      7  C   UNL     1      -1.166  -3.666  -0.021  0.00  0.00    +0.084 C 
ATOM      8  C   UNL     1      -1.326  -4.310   1.328  0.00  0.00    +0.095 C 
ATOM      9  C   UNL     1      -0.755  -3.819   2.450  0.00  0.00    +0.198 C 
ATOM     10  O   UNL     1       0.023  -2.711   2.431  0.00  0.00    -0.445 OA
ATOM     11  C   UNL     1       0.071  -2.013   1.283  0.00  0.00    +0.122 C 
ATOM     12  C   UNL     1       0.023  -0.667   1.232  0.00  0.00    +0.063 C 
ENDROOT
BRANCH   7  13
ATOM     13  C   UNL     1      -2.377  -2.820  -0.317  0.00  0.00    -0.038 A 
ATOM     14  C   UNL     1      -2.702  -1.763   0.514  0.00  0.00    +0.008 A 
ATOM     15  C   UNL     1      -3.812  -0.987   0.244  0.00  0.00    +0.046 A 
ATOM     16  C   UNL     1      -4.602  -1.268  -0.861  0.00  0.00    +0.120 A 
ATOM     17  C   UNL     1      -4.274  -2.328  -1.693  0.00  0.00    +0.046 A 
ATOM     18  C   UNL     1      -3.160  -3.098  -1.423  0.00  0.00    +0.008 A 
BRANCH  16  19
ATOM     19  O   UNL     1      -5.695  -0.506  -1.128  0.00  0.00    -0.495 OA
ATOM     20  C   UNL     1      -6.462  -0.853  -2.283  0.00  0.00    +0.277 C 
ENDBRANCH  16  19
ENDBRANCH   7  13
BRANCH   9  21
ATOM     21  N   UNL     1      -0.969  -4.462   3.644  0.00  0.00    -0.328 N 
ATOM     22  H   UNL     1      -1.524  -5.258   3.674  0.00  0.00    +0.145 HD
ATOM     23  H   UNL     1      -0.566  -4.122   4.457  0.00  0.00    +0.145 HD
ENDBRANCH   9  21
BRANCH   8  24
ATOM     24  C   UNL     1      -2.119  -5.498   1.429  0.00  0.00    +0.100 C 
ATOM     25  N   UNL     1      -2.749  -6.440   1.508  0.00  0.00    -0.191 NA
ENDBRANCH   8  24
TORSDOF 4
