REMARK  Name = ZINC34667817
REMARK  5 active torsions:
REMARK  status: ('A' for Active; 'I' for Inactive)
REMARK    1  A    between atoms: C_1  and  O_2
REMARK    2  A    between atoms: O_2  and  C_3
REMARK    3  A    between atoms: C_7  and  N_9
REMARK    4  A    between atoms: N_12  and  C_13
REMARK    5  A    between atoms: C_25  and  C_27
REMARK                            x       y       z     vdW  Elec       q    Type
REMARK                         _______ _______ _______ _____ _____    ______ ____
ROOT
ATOM      1  C   UNL     1       3.725  -6.727   3.941  0.00  0.00    +0.051 A 
ATOM      2  C   UNL     1       4.337  -6.005   4.964  0.00  0.00    +0.028 A 
ATOM      3  C   UNL     1       4.807  -6.694   6.066  0.00  0.00    +0.043 A 
ATOM      4  C   UNL     1       4.656  -8.076   6.117  0.00  0.00    +0.099 A 
ATOM      5  N   UNL     1       4.071  -8.729   5.127  0.00  0.00    -0.348 N 
ATOM      6  C   UNL     1       3.605  -8.102   4.063  0.00  0.00    +0.107 A 
ATOM      7  N   UNL     1       5.127  -8.779   7.223  0.00  0.00    -0.314 N 
ATOM      8  C   UNL     1       5.655  -8.066   8.394  0.00  0.00    +0.125 C 
ATOM      9  C   UNL     1       4.887  -8.530   9.638  0.00  0.00    +0.127 C 
ATOM     10  N   UNL     1       4.864  -9.999   9.655  0.00  0.00    -0.295 N 
ATOM     11  C   UNL     1       4.336 -10.713   8.483  0.00  0.00    +0.127 C 
ATOM     12  C   UNL     1       5.099 -10.248   7.242  0.00  0.00    +0.125 C 
ATOM     13  C   UNL     1       5.319 -10.681  10.725  0.00  0.00    +0.247 C 
ATOM     14  O   UNL     1       5.382 -11.894  10.691  0.00  0.00    -0.270 OA
ATOM     15  H   UNL     1       3.978  -9.693   5.186  0.00  0.00    +0.167 HD
ENDROOT
BRANCH  13  16
ATOM     16  C   UNL     1       5.743  -9.952  11.939  0.00  0.00    +0.037 A 
ATOM     17  C   UNL     1       4.977  -8.889  12.421  0.00  0.00    +0.014 A 
ATOM     18  C   UNL     1       5.377  -8.213  13.555  0.00  0.00    +0.016 A 
ATOM     19  C   UNL     1       6.536  -8.587  14.214  0.00  0.00    +0.018 A 
ATOM     20  C   UNL     1       7.300  -9.640  13.741  0.00  0.00    +0.016 A 
ATOM     21  C   UNL     1       6.907 -10.328  12.611  0.00  0.00    +0.014 A 
ATOM     22 BR   UNL     1       7.078  -7.654  15.767  0.00  0.00    -0.050 Br
ENDBRANCH  13  16
BRANCH   1  26
ATOM     23  N   UNL     1       3.300  -4.258   1.333  0.00  0.00    -0.269 N 
ATOM     24  C   UNL     1       3.833  -4.947   2.361  0.00  0.00    +0.308 C 
ATOM     25  O   UNL     1       4.857  -4.557   2.889  0.00  0.00    -0.252 OA
ATOM     26  N   UNL     1       3.232  -6.069   2.804  0.00  0.00    -0.268 N 
ATOM     27  H   UNL     1       2.444  -4.525   0.962  0.00  0.00    +0.156 HD
ATOM     28  H   UNL     1       2.459  -6.422   2.337  0.00  0.00    +0.156 HD
BRANCH  23  33
ATOM     29  C   UNL     1       6.039  -2.045   0.265  0.00  0.00    +0.122 A 
ATOM     30  C   UNL     1       5.322  -0.976  -0.255  0.00  0.00    +0.046 A 
ATOM     31  C   UNL     1       3.941  -0.999  -0.247  0.00  0.00    +0.005 A 
ATOM     32  C   UNL     1       3.269  -2.086   0.279  0.00  0.00    +0.023 A 
ATOM     33  C   UNL     1       3.981  -3.158   0.801  0.00  0.00    +0.038 A 
ATOM     34  C   UNL     1       5.369  -3.139   0.788  0.00  0.00    +0.069 A 
BRANCH  29  36
ATOM     35  C   UNL     1       8.023  -0.861  -0.298  0.00  0.00    +0.277 C 
ATOM     36  O   UNL     1       7.398  -2.021   0.256  0.00  0.00    -0.495 OA
ENDBRANCH  29  36
ENDBRANCH  23  33
ENDBRANCH   1  26
TORSDOF 4
