REMARK  Name = ZINC59170489
REMARK  8 active torsions:
REMARK  status: ('A' for Active; 'I' for Inactive)
REMARK    1  A    between atoms: C_1  and  C_2
REMARK    2  A    between atoms: C_9  and  C_23
REMARK    3  A    between atoms: N_11  and  C_12
REMARK    4  A    between atoms: C_15  and  S_18
REMARK    5  A    between atoms: S_18  and  N_21
REMARK    6  A    between atoms: N_25  and  C_26
REMARK    7  A    between atoms: C_29  and  O_32
REMARK    8  A    between atoms: O_32  and  C_33
REMARK                            x       y       z     vdW  Elec       q    Type
REMARK                         _______ _______ _______ _____ _____    ______ ____
ROOT
ATOM      1  C   UNL     1      -1.199   1.313  -0.004  0.00  0.00    +0.044 C 
ATOM      2  C   UNL     1      -0.670  -0.096  -0.063  0.00  0.00    -0.050 A 
ATOM      3  C   UNL     1       0.206  -0.460  -1.075  0.00  0.00    +0.007 A 
ATOM      4  C   UNL     1       0.701  -1.747  -1.149  0.00  0.00    +0.047 A 
ATOM      5  C   UNL     1       0.322  -2.687  -0.202  0.00  0.00    +0.137 A 
ATOM      6  C   UNL     1      -0.564  -2.315   0.827  0.00  0.00    +0.018 A 
ATOM      7  C   UNL     1      -1.052  -1.004   0.885  0.00  0.00    +0.015 A 
ATOM      8  C   UNL     1      -0.956  -3.306   1.831  0.00  0.00    +0.030 A 
ATOM      9  C   UNL     1      -0.227  -4.487   1.880  0.00  0.00    +0.098 A 
ATOM     10  C   UNL     1       0.878  -4.636   0.911  0.00  0.00    +0.212 A 
ATOM     11  N   UNL     1       1.912  -5.405   1.176  0.00  0.00    -0.325 N 
ATOM     12  O   UNL     1       0.794  -3.956  -0.260  0.00  0.00    -0.439 OA
ATOM     13  H   UNL     1       2.049  -5.742   2.075  0.00  0.00    +0.169 HD
ENDROOT
BRANCH  11  14
ATOM     14  C   UNL     1       2.794  -5.730   0.183  0.00  0.00    +0.042 A 
ATOM     15  C   UNL     1       2.324  -6.122  -1.073  0.00  0.00    +0.027 A 
ATOM     16  C   UNL     1       3.220  -6.448  -2.070  0.00  0.00    +0.030 A 
ATOM     17  C   UNL     1       4.581  -6.387  -1.829  0.00  0.00    +0.105 A 
ATOM     18  C   UNL     1       5.054  -6.000  -0.587  0.00  0.00    +0.030 A 
ATOM     19  C   UNL     1       4.170  -5.665   0.417  0.00  0.00    +0.027 A 
BRANCH  17  20
ATOM     20  S   UNL     1       5.718  -6.806  -3.108  0.00  0.00    +0.056 S 
ATOM     21  O   UNL     1       6.925  -7.195  -2.467  0.00  0.00    -0.153 OA
ATOM     22  O   UNL     1       5.022  -7.661  -4.005  0.00  0.00    -0.153 OA
BRANCH  20  23
ATOM     23  N   UNL     1       6.051  -5.415  -3.942  0.00  0.00    -0.204 NA
ATOM     24  H   UNL     1       5.634  -4.580  -3.678  0.00  0.00    +0.144 HD
ATOM     25  H   UNL     1       6.664  -5.435  -4.694  0.00  0.00    +0.144 HD
ENDBRANCH  20  23
ENDBRANCH  17  20
ENDBRANCH  11  14
BRANCH   9  26
ATOM     26  C   UNL     1      -0.542  -5.545   2.854  0.00  0.00    +0.253 C 
ATOM     27  O   UNL     1      -1.378  -5.349   3.716  0.00  0.00    -0.270 OA
ATOM     28  N   UNL     1       0.097  -6.731   2.793  0.00  0.00    -0.281 N 
ATOM     29  H   UNL     1       0.787  -6.875   2.127  0.00  0.00    +0.155 HD
BRANCH  28  30
ATOM     30  C   UNL     1      -0.237  -7.753   3.689  0.00  0.00    +0.034 A 
ATOM     31  C   UNL     1      -0.689  -7.439   4.964  0.00  0.00    +0.027 A 
ATOM     32  C   UNL     1      -1.018  -8.448   5.848  0.00  0.00    +0.047 A 
ATOM     33  C   UNL     1      -0.897  -9.775   5.462  0.00  0.00    +0.120 A 
ATOM     34  C   UNL     1      -0.445 -10.089   4.189  0.00  0.00    +0.047 A 
ATOM     35  C   UNL     1      -0.121  -9.082   3.302  0.00  0.00    +0.027 A 
BRANCH  33  36
ATOM     36  O   UNL     1      -1.221 -10.768   6.333  0.00  0.00    -0.495 OA
ATOM     37  C   UNL     1      -1.073 -12.111   5.869  0.00  0.00    +0.277 C 
ENDBRANCH  33  36
ENDBRANCH  28  30
ENDBRANCH   9  26
TORSDOF 6
