REMARK  Name = ZINC63440846
REMARK  8 active torsions:
REMARK  status: ('A' for Active; 'I' for Inactive)
REMARK    1  A    between atoms: C_1  and  C_2
REMARK    2  A    between atoms: C_5  and  C_8
REMARK    3  A    between atoms: C_10  and  C_14
REMARK    4  A    between atoms: C_21  and  S_26
REMARK    5  A    between atoms: S_26  and  N_29
REMARK    6  A    between atoms: N_29  and  C_30
REMARK    7  A    between atoms: C_30  and  C_31
REMARK    8  A    between atoms: C_30  and  C_32
REMARK                            x       y       z     vdW  Elec       q    Type
REMARK                         _______ _______ _______ _____ _____    ______ ____
ROOT
ATOM      1  C   UNL     1       0.567  -7.088   1.619  0.00  0.00    +0.067 A 
ATOM      2  H   UNL     1       1.988  -6.409   4.444  0.00  0.00    +0.165 HD
ATOM      3  C   UNL     1       0.980  -6.393   2.700  0.00  0.00    +0.095 A 
ATOM      4  N   UNL     1       1.717  -6.953   3.688  0.00  0.00    -0.360 N 
ATOM      5  C   UNL     1       2.093  -8.277   3.647  0.00  0.00    +0.050 A 
ATOM      6  C   UNL     1       2.851  -8.844   4.668  0.00  0.00    +0.028 A 
ATOM      7  C   UNL     1       3.209 -10.172   4.596  0.00  0.00    +0.030 A 
ATOM      8  C   UNL     1       2.823 -10.953   3.515  0.00  0.00    +0.106 A 
ATOM      9  C   UNL     1       2.079 -10.416   2.502  0.00  0.00    +0.042 A 
ATOM     10  C   UNL     1       1.704  -9.074   2.555  0.00  0.00    +0.047 A 
ATOM     11  C   UNL     1       0.897  -8.457   1.488  0.00  0.00    +0.197 A 
ATOM     12  O   UNL     1       0.530  -9.104   0.521  0.00  0.00    -0.287 OA
ENDROOT
BRANCH   1  15
ATOM     13  C   UNL     1       0.059  -4.253  -0.021  0.00  0.00    +0.134 C 
ATOM     14  N   UNL     1      -0.467  -4.996   0.903  0.00  0.00    -0.339 N 
ATOM     15  C   UNL     1      -0.251  -6.405   0.553  0.00  0.00    +0.279 C 
ATOM     16  O   UNL     1       0.467  -6.386  -0.690  0.00  0.00    -0.243 OA
ATOM     17  N   UNL     1       0.631  -5.014  -1.011  0.00  0.00    -0.247 N 
ATOM     18  H   UNL     1       1.078  -4.669  -1.800  0.00  0.00    +0.196 HD
ATOM     19  H   UNL     1      -0.926  -4.674   1.694  0.00  0.00    +0.164 HD
BRANCH  13  24
ATOM     20  C   UNL     1      -0.018   1.503   0.010  0.00  0.00    +0.044 C 
ATOM     21  C   UNL     1       0.002  -0.004   0.002  0.00  0.00    -0.050 A 
ATOM     22  C   UNL     1       0.006  -0.686  -1.201  0.00  0.00    +0.004 A 
ATOM     23  C   UNL     1       0.024  -2.066  -1.216  0.00  0.00    +0.012 A 
ATOM     24  C   UNL     1       0.040  -2.773  -0.013  0.00  0.00    +0.017 A 
ATOM     25  C   UNL     1       0.036  -2.079   1.197  0.00  0.00    +0.012 A 
ATOM     26  C   UNL     1       0.023  -0.699   1.198  0.00  0.00    +0.004 A 
ENDBRANCH  13  24
ENDBRANCH   1  15
BRANCH   8  27
ATOM     27  S   UNL     1       3.297 -12.648   3.449  0.00  0.00    +0.059 S 
ATOM     28  O   UNL     1       3.278 -13.022   2.078  0.00  0.00    -0.153 OA
ATOM     29  O   UNL     1       4.459 -12.777   4.257  0.00  0.00    -0.153 OA
BRANCH  27  30
ATOM     30  N   UNL     1       2.103 -13.520   4.194  0.00  0.00    -0.187 NA
ATOM     31  H   UNL     1       2.293 -14.001   5.014  0.00  0.00    +0.148 HD
BRANCH  30  32
ATOM     32  C   UNL     1       0.758 -13.566   3.613  0.00  0.00    +0.070 C 
ATOM     33  C   UNL     1       0.145 -14.947   3.855  0.00  0.00    +0.025 C 
ATOM     34  C   UNL     1      -0.117 -12.497   4.269  0.00  0.00    +0.025 C 
ENDBRANCH  30  32
ENDBRANCH  27  30
ENDBRANCH   8  27
TORSDOF 5
