REMARK  Name = ZINC00498516
REMARK  5 active torsions:
REMARK  status: ('A' for Active; 'I' for Inactive)
REMARK    1  A    between atoms: C_1  and  C_2
REMARK    2  A    between atoms: C_3  and  C_14
REMARK    3  A    between atoms: C_6  and  O_12
REMARK    4  A    between atoms: N_10  and  C_11
REMARK    5  A    between atoms: O_12  and  C_13
REMARK                            x       y       z     vdW  Elec       q    Type
REMARK                         _______ _______ _______ _____ _____    ______ ____
ROOT
ATOM      1  C   UNL     1       0.042  -3.102  -0.235  0.00  0.00    +0.064 C 
ATOM      2  C   UNL     1      -1.188  -2.242  -0.094  0.00  0.00    +0.026 A 
ATOM      3  C   UNL     1      -1.187  -0.892   0.015  0.00  0.00    +0.030 A 
ATOM      4  C   UNL     1      -2.592  -0.475   0.136  0.00  0.00    +0.013 A 
ATOM      5  C   UNL     1      -3.226   0.761   0.266  0.00  0.00    +0.056 A 
ATOM      6  C   UNL     1      -4.604   0.816   0.352  0.00  0.00    +0.121 A 
ATOM      7  C   UNL     1      -5.356  -0.354   0.302  0.00  0.00    +0.047 A 
ATOM      8  C   UNL     1      -4.741  -1.578   0.168  0.00  0.00    +0.030 A 
ATOM      9  C   UNL     1      -3.354  -1.654   0.080  0.00  0.00    +0.050 A 
ATOM     10  N   UNL     1      -2.473  -2.707  -0.056  0.00  0.00    -0.346 N 
ATOM     11  C   UNL     1      -2.858  -4.118  -0.146  0.00  0.00    +0.149 C 
ENDROOT
BRANCH   3  12
ATOM     12  C   UNL     1       0.003  -0.005   0.017  0.00  0.00    +0.093 A 
ATOM     13  C   UNL     1      -0.015   1.350   0.019  0.00  0.00    +0.121 A 
ATOM     14  N   UNL     1       1.308   1.788   0.021  0.00  0.00    -0.300 N 
ATOM     15  C   UNL     1       1.992   2.984   0.023  0.00  0.00    +0.100 A 
ATOM     16  C   UNL     1       3.324   3.008   0.025  0.00  0.00    +0.067 A 
ATOM     17  S   UNL     1       3.724   1.267   0.022  0.00  0.00    -0.058 S 
ATOM     18  C   UNL     1       2.060   0.642   0.019  0.00  0.00    +0.178 A 
ATOM     19  N   UNL     1       1.290  -0.407   0.017  0.00  0.00    -0.221 NA
ENDBRANCH   3  12
BRANCH   6  20
ATOM     20  O   UNL     1      -5.226   2.018   0.484  0.00  0.00    -0.495 OA
ATOM     21  C   UNL     1      -6.653   2.003   0.567  0.00  0.00    +0.277 C 
ENDBRANCH   6  20
TORSDOF 2
