REMARK  Name = ZINC09780074
REMARK  8 active torsions:
REMARK  status: ('A' for Active; 'I' for Inactive)
REMARK    1  A    between atoms: C_1  and  C_2
REMARK    2  A    between atoms: C_2  and  O_3
REMARK    3  A    between atoms: O_3  and  C_4
REMARK    4  A    between atoms: C_4  and  C_6
REMARK    5  A    between atoms: C_11  and  N_12
REMARK    6  A    between atoms: C_13  and  C_15
REMARK    7  A    between atoms: C_20  and  C_32
REMARK    8  A    between atoms: C_23  and  C_26
REMARK                            x       y       z     vdW  Elec       q    Type
REMARK                         _______ _______ _______ _____ _____    ______ ____
ROOT
ATOM      1  C   UNL     1       0.369  -6.976   1.150  0.00  0.00    +0.149 A 
ATOM      2  C   UNL     1       0.272  -8.375   1.331  0.00  0.00    +0.078 A 
ATOM      3  C   UNL     1      -0.278  -8.892   0.214  0.00  0.00    +0.119 A 
ATOM      4  N   UNL     1      -0.529  -7.865  -0.652  0.00  0.00    -0.238 N 
ATOM      5  N   UNL     1      -0.120  -6.680  -0.042  0.00  0.00    -0.164 NA
ATOM      6  C   UNL     1      -1.133  -8.047  -1.975  0.00  0.00    +0.215 C 
ATOM      7  C   UNL     1      -1.848  -9.402  -2.012  0.00  0.00    +0.063 C 
ATOM      8  C   UNL     1      -0.909 -10.502  -1.505  0.00  0.00    +0.104 C 
ATOM      9  N   UNL     1      -0.576 -10.222  -0.094  0.00  0.00    -0.322 N 
ATOM     10  H   UNL     1      -0.565 -10.921   0.579  0.00  0.00    +0.148 HD
ENDROOT
BRANCH   8  11
ATOM     11  C   UNL     1      -1.593 -11.841  -1.612  0.00  0.00    -0.027 A 
ATOM     12  C   UNL     1      -2.511 -12.226  -0.654  0.00  0.00    +0.005 A 
ATOM     13  C   UNL     1      -3.138 -13.454  -0.752  0.00  0.00    +0.000 A 
ATOM     14  C   UNL     1      -2.847 -14.296  -1.809  0.00  0.00    +0.000 A 
ATOM     15  C   UNL     1      -1.930 -13.910  -2.768  0.00  0.00    +0.000 A 
ATOM     16  C   UNL     1      -1.306 -12.680  -2.672  0.00  0.00    +0.005 A 
ENDBRANCH   8  11
BRANCH   1  18
ATOM     17  N   UNL     1       0.945  -4.698   1.831  0.00  0.00    -0.279 N 
ATOM     18  C   UNL     1       0.915  -6.012   2.127  0.00  0.00    +0.268 C 
ATOM     19  O   UNL     1       1.338  -6.405   3.197  0.00  0.00    -0.268 OA
ATOM     20  H   UNL     1       0.539  -4.375   1.012  0.00  0.00    +0.155 HD
BRANCH  17  26
ATOM     21  C   UNL     1       1.042  -2.507   2.863  0.00  0.00    +0.080 A 
ATOM     22  C   UNL     1       1.664  -1.621   3.745  0.00  0.00    +0.017 A 
ATOM     23  C   UNL     1       2.781  -2.020   4.447  0.00  0.00    +0.001 A 
ATOM     24  C   UNL     1       3.291  -3.297   4.283  0.00  0.00    +0.002 A 
ATOM     25  C   UNL     1       2.688  -4.185   3.414  0.00  0.00    +0.024 A 
ATOM     26  C   UNL     1       1.558  -3.803   2.703  0.00  0.00    +0.048 A 
BRANCH  21  27
ATOM     27  C   UNL     1      -0.153  -2.087   2.109  0.00  0.00    +0.341 C 
ATOM     28  O   UNL     1      -0.640  -2.830   1.280  0.00  0.00    -0.245 OA
BRANCH  27  29
ATOM     29  O   UNL     1      -0.704  -0.879   2.339  0.00  0.00    -0.461 OA
BRANCH  29  31
ATOM     30  C   UNL     1      -2.341   0.860   1.969  0.00  0.00    +0.048 C 
ATOM     31  C   UNL     1      -1.861  -0.538   1.572  0.00  0.00    +0.229 C 
ENDBRANCH  29  31
ENDBRANCH  27  29
ENDBRANCH  21  27
ENDBRANCH  17  26
ENDBRANCH   1  18
BRANCH   6  32
ATOM     32  C   UNL     1      -2.140  -6.925  -2.236  0.00  0.00    +0.412 C 
ATOM     33  F   UNL     1      -1.486  -5.690  -2.189  0.00  0.00    -0.168 F 
ATOM     34  F   UNL     1      -2.716  -7.101  -3.499  0.00  0.00    -0.168 F 
ATOM     35  F   UNL     1      -3.141  -6.960  -1.259  0.00  0.00    -0.168 F 
ENDBRANCH   6  32
TORSDOF 7
