REMARK  Name = ZINC25049106
REMARK  7 active torsions:
REMARK  status: ('A' for Active; 'I' for Inactive)
REMARK    1  A    between atoms: C_1  and  C_2
REMARK    2  A    between atoms: C_5  and  O_8
REMARK    3  A    between atoms: O_8  and  C_9
REMARK    4  A    between atoms: C_9  and  C_11
REMARK    5  A    between atoms: C_9  and  C_12
REMARK    6  A    between atoms: N_17  and  S_20
REMARK    7  A    between atoms: S_20  and  C_23
REMARK                            x       y       z     vdW  Elec       q    Type
REMARK                         _______ _______ _______ _____ _____    ______ ____
ROOT
ATOM      1  C   UNL     1       2.239  -0.618   5.164  0.00  0.00    +0.256 C 
ATOM      2  O   UNL     1       1.722  -1.675   5.455  0.00  0.00    -0.272 OA
ATOM      3  N   UNL     1       2.206  -0.179   3.890  0.00  0.00    -0.296 N 
ATOM      4  C   UNL     1       1.546  -0.972   2.843  0.00  0.00    +0.125 C 
ATOM      5  C   UNL     1       2.550  -1.224   1.712  0.00  0.00    +0.128 C 
ATOM      6  N   UNL     1       3.174   0.056   1.344  0.00  0.00    -0.174 NA
ATOM      7  C   UNL     1       3.839   0.845   2.390  0.00  0.00    +0.128 C 
ATOM      8  C   UNL     1       2.830   1.100   3.522  0.00  0.00    +0.125 C 
ENDROOT
BRANCH   6   9
ATOM      9  S   UNL     1       3.134   0.594  -0.221  0.00  0.00    +0.062 S 
ATOM     10  O   UNL     1       3.112  -0.562  -1.048  0.00  0.00    -0.153 OA
ATOM     11  O   UNL     1       4.139   1.592  -0.333  0.00  0.00    -0.153 OA
BRANCH   9  12
ATOM     12  C   UNL     1       1.589   1.408  -0.453  0.00  0.00    +0.127 A 
ATOM     13  C   UNL     1       0.640   0.859  -1.297  0.00  0.00    +0.077 A 
ATOM     14  C   UNL     1      -0.574   1.498  -1.479  0.00  0.00    +0.144 A 
ATOM     15  C   UNL     1      -0.836   2.694  -0.812  0.00  0.00    +0.077 A 
ATOM     16  C   UNL     1       0.114   3.236   0.037  0.00  0.00    +0.049 A 
ATOM     17  C   UNL     1       1.328   2.594   0.211  0.00  0.00    +0.069 A 
ATOM     18 CL   UNL     1       2.524   3.274   1.269  0.00  0.00    -0.081 Cl
ATOM     19  N   UNL     1      -2.069   3.332  -1.007  0.00  0.00    -0.280 N 
ATOM     20  C   UNL     1      -3.083   2.639  -1.571  0.00  0.00    +0.255 C 
ATOM     21  O   UNL     1      -4.149   3.179  -1.778  0.00  0.00    -0.272 OA
ATOM     22  C   UNL     1      -2.883   1.192  -1.942  0.00  0.00    +0.325 C 
ATOM     23  O   UNL     1      -1.518   0.972  -2.305  0.00  0.00    -0.481 OA
ATOM     24  H   UNL     1      -2.200   4.381  -0.703  0.00  0.00    +0.155 HD
ENDBRANCH   9  12
ENDBRANCH   6   9
BRANCH   1  25
ATOM     25  C   UNL     1       2.920   0.205   6.227  0.00  0.00    +0.256 C 
ATOM     26  C   UNL     1       2.166   1.524   6.411  0.00  0.00    +0.062 C 
BRANCH  25  27
ATOM     27  O   UNL     1       2.925  -0.517   7.459  0.00  0.00    -0.480 OA
BRANCH  27  32
ATOM     28  C   UNL     1       6.853   0.899  11.239  0.00  0.00    +0.044 C 
ATOM     29  C   UNL     1       5.802   0.520  10.228  0.00  0.00    -0.050 A 
ATOM     30  C   UNL     1       4.972  -0.560  10.467  0.00  0.00    +0.007 A 
ATOM     31  C   UNL     1       4.008  -0.909   9.541  0.00  0.00    +0.046 A 
ATOM     32  C   UNL     1       3.873  -0.176   8.371  0.00  0.00    +0.122 A 
ATOM     33  C   UNL     1       4.710   0.904   8.132  0.00  0.00    +0.046 A 
ATOM     34  C   UNL     1       5.670   1.252   9.063  0.00  0.00    +0.007 A 
ENDBRANCH  27  32
ENDBRANCH  25  27
ENDBRANCH   1  25
TORSDOF 5
