REMARK  Name = ZINC40719589
REMARK  14 active torsions:
REMARK  status: ('A' for Active; 'I' for Inactive)
REMARK    1  A    between atoms: C_1  and  C_2
REMARK    2  A    between atoms: C_2  and  C_3
REMARK    3  A    between atoms: C_2  and  O_4
REMARK    4  A    between atoms: O_4  and  C_5
REMARK    5  A    between atoms: C_6  and  O_20
REMARK    6  A    between atoms: C_8  and  C_12
REMARK    7  A    between atoms: C_12  and  N_13
REMARK    8  A    between atoms: N_13  and  C_14
REMARK    9  A    between atoms: C_14  and  C_15
REMARK   10  A    between atoms: C_15  and  N_16
REMARK   11  A    between atoms: N_16  and  C_17
REMARK   12  A    between atoms: C_17  and  C_18
REMARK   13  A    between atoms: C_18  and  O_19
REMARK   14  A    between atoms: O_20  and  C_21
REMARK                            x       y       z     vdW  Elec       q    Type
REMARK                         _______ _______ _______ _____ _____    ______ ____
ROOT
ATOM      1  C   UNL     1      -0.052  -0.700   2.276  0.00  0.00    +0.176 A 
ATOM      2  C   UNL     1      -0.250   0.324   3.197  0.00  0.00    +0.163 A 
ATOM      3  C   UNL     1      -1.009   0.093   4.333  0.00  0.00    +0.051 A 
ATOM      4  C   UNL     1      -1.569  -1.153   4.549  0.00  0.00    -0.060 A 
ATOM      5  C   UNL     1      -1.372  -2.170   3.634  0.00  0.00    +0.021 A 
ATOM      6  C   UNL     1      -0.620  -1.944   2.495  0.00  0.00    +0.063 A 
ATOM      7 BR   UNL     1      -0.360  -3.337   1.242  0.00  0.00    -0.046 Br
ENDROOT
BRANCH   2   8
ATOM      8  O   UNL     1       0.301   1.549   2.984  0.00  0.00    -0.491 OA
ATOM      9  C   UNL     1       0.056   2.552   3.972  0.00  0.00    +0.277 C 
ENDBRANCH   2   8
BRANCH   1  10
ATOM     10  O   UNL     1       0.693  -0.477   1.160  0.00  0.00    -0.485 OA
BRANCH  10  12
ATOM     11  C   UNL     1      -0.019   1.526   0.010  0.00  0.00    +0.051 C 
ATOM     12  C   UNL     1       0.002  -0.004   0.002  0.00  0.00    +0.168 C 
ATOM     13  C   UNL     1       0.718  -0.497  -1.257  0.00  0.00    +0.051 C 
ENDBRANCH  10  12
ENDBRANCH   1  10
BRANCH   4  14
ATOM     14  C   UNL     1      -2.395  -1.402   5.785  0.00  0.00    -0.047 C 
BRANCH  14  15
ATOM     15  N   UNL     1      -3.803  -1.089   5.504  0.00  0.00    +0.383 N 
ATOM     16  H   UNL     1      -3.885  -0.120   5.234  0.00  0.00    -0.085 HD
ATOM     17  H   UNL     1      -4.134  -1.677   4.754  0.00  0.00    -0.085 HD
BRANCH  15  18
ATOM     18  C   UNL     1      -4.607  -1.332   6.708  0.00  0.00    -0.067 C 
BRANCH  18  19
ATOM     19  C   UNL     1      -6.074  -1.006   6.416  0.00  0.00    +0.062 C 
BRANCH  19  20
ATOM     20  N   UNL     1      -6.879  -1.249   7.621  0.00  0.00    -0.316 NA
ATOM     21  H   UNL     1      -6.762  -2.196   7.949  0.00  0.00    +0.122 HD
BRANCH  20  22
ATOM     22  C   UNL     1      -8.295  -0.947   7.377  0.00  0.00    +0.108 C 
BRANCH  22  23
ATOM     23  C   UNL     1      -9.100  -1.211   8.651  0.00  0.00    +0.171 C 
BRANCH  23  24
ATOM     24  O   UNL     1      -8.689  -0.299   9.672  0.00  0.00    -0.394 OA
ATOM     25  H   UNL     1      -9.158  -0.410  10.510  0.00  0.00    +0.209 HD
ENDBRANCH  23  24
ENDBRANCH  22  23
ENDBRANCH  20  22
ENDBRANCH  19  20
ENDBRANCH  18  19
ENDBRANCH  15  18
ENDBRANCH  14  15
ENDBRANCH   4  14
TORSDOF 11
