REMARK  Name = ZINC63289610
REMARK  9 active torsions:
REMARK  status: ('A' for Active; 'I' for Inactive)
REMARK    1  A    between atoms: C_2  and  C_3
REMARK    2  A    between atoms: C_3  and  N_4
REMARK    3  A    between atoms: C_5  and  C_23
REMARK    4  A    between atoms: C_9  and  S_11
REMARK    5  A    between atoms: S_11  and  C_12
REMARK    6  A    between atoms: C_12  and  C_13
REMARK    7  A    between atoms: N_15  and  C_16
REMARK    8  A    between atoms: C_16  and  C_17
REMARK    9  A    between atoms: C_23  and  C_24
REMARK                            x       y       z     vdW  Elec       q    Type
REMARK                         _______ _______ _______ _____ _____    ______ ____
ROOT
ATOM      1  N   UNL     1      -1.318  -1.702  -1.129  0.00  0.00    -0.257 NA
ATOM      2  C   UNL     1      -2.486  -2.610  -1.050  0.00  0.00    +0.145 C 
ATOM      3  N   UNL     1      -3.498  -1.981  -1.939  0.00  0.00    -0.237 NA
ATOM      4  N   UNL     1      -2.686  -1.461  -3.050  0.00  0.00    -0.229 NA
ATOM      5  C   UNL     1      -1.447  -0.969  -2.405  0.00  0.00    +0.200 C 
ATOM      6  H   UNL     1      -3.981  -1.233  -1.464  0.00  0.00    +0.142 HD
ATOM      7  H   UNL     1      -2.481  -2.188  -3.719  0.00  0.00    +0.143 HD
ENDROOT
BRANCH   1   8
ATOM      8  C   UNL     1      -1.293  -0.775   0.010  0.00  0.00    +0.115 C 
BRANCH   8  10
ATOM      9  C   UNL     1      -0.016   1.306   0.009  0.00  0.00    +0.005 C 
ATOM     10  C   UNL     1       0.002  -0.004   0.002  0.00  0.00    -0.019 C 
ENDBRANCH   8  10
ENDBRANCH   1   8
BRANCH   5  11
ATOM     11  S   UNL     1      -0.016  -1.311  -3.466  0.00  0.00    -0.116 S 
BRANCH  11  12
ATOM     12  C   UNL     1      -0.069  -3.107  -3.710  0.00  0.00    +0.167 C 
BRANCH  12  13
ATOM     13  C   UNL     1       1.082  -3.530  -4.587  0.00  0.00    +0.223 C 
ATOM     14  O   UNL     1       1.861  -2.700  -5.005  0.00  0.00    -0.275 OA
ATOM     15  N   UNL     1       1.245  -4.829  -4.905  0.00  0.00    -0.311 N 
ATOM     16  H   UNL     1       0.622  -5.492  -4.570  0.00  0.00    +0.149 HD
BRANCH  15  17
ATOM     17  C   UNL     1       2.364  -5.240  -5.757  0.00  0.00    +0.139 C 
BRANCH  17  18
ATOM     18  C   UNL     1       2.320  -6.732  -5.959  0.00  0.00    -0.030 A 
ATOM     19  C   UNL     1       2.979  -7.569  -5.078  0.00  0.00    +0.005 A 
ATOM     20  C   UNL     1       2.938  -8.938  -5.263  0.00  0.00    +0.000 A 
ATOM     21  C   UNL     1       2.239  -9.471  -6.330  0.00  0.00    +0.000 A 
ATOM     22  C   UNL     1       1.579  -8.634  -7.211  0.00  0.00    +0.000 A 
ATOM     23  C   UNL     1       1.616  -7.265  -7.023  0.00  0.00    +0.005 A 
ENDBRANCH  17  18
ENDBRANCH  15  17
ENDBRANCH  12  13
ENDBRANCH  11  12
ENDBRANCH   5  11
BRANCH   2  24
ATOM     24  C   UNL     1      -3.006  -2.688   0.387  0.00  0.00    +0.069 C 
BRANCH  24  25
ATOM     25  C   UNL     1      -4.113  -3.707   0.466  0.00  0.00    -0.039 C 
ATOM     26  C   UNL     1      -3.998  -5.006   0.825  0.00  0.00    -0.001 A 
ATOM     27  C   UNL     1      -2.852  -5.827   1.234  0.00  0.00    +0.010 A 
ATOM     28  C   UNL     1      -3.054  -7.129   1.540  0.00  0.00    +0.001 A 
ATOM     29  C   UNL     1      -4.327  -7.713   1.476  0.00  0.00    +0.002 A 
ATOM     30  C   UNL     1      -5.428  -7.023   1.109  0.00  0.00    +0.026 A 
ATOM     31  C   UNL     1      -5.332  -5.646   0.766  0.00  0.00    +0.043 A 
ATOM     32  N   UNL     1      -6.236  -4.777   0.385  0.00  0.00    -0.380 N 
ATOM     33  C   UNL     1      -5.578  -3.484   0.165  0.00  0.00    +0.144 C 
ATOM     34  H   UNL     1      -7.182  -4.957   0.271  0.00  0.00    +0.160 HD
ENDBRANCH  24  25
ENDBRANCH   2  24
TORSDOF 9
