REMARK  Name = ZINC33332049
REMARK  9 active torsions:
REMARK  status: ('A' for Active; 'I' for Inactive)
REMARK    1  A    between atoms: C_1  and  C_2
REMARK    2  A    between atoms: N_8  and  C_9
REMARK    3  A    between atoms: C_9  and  C_10
REMARK    4  A    between atoms: C_10  and  C_11
REMARK    5  A    between atoms: C_11  and  N_12
REMARK    6  A    between atoms: C_13  and  C_15
REMARK    7  A    between atoms: C_15  and  C_16
REMARK    8  A    between atoms: C_16  and  C_17
REMARK    9  A    between atoms: C_17  and  N_18
REMARK                            x       y       z     vdW  Elec       q    Type
REMARK                         _______ _______ _______ _____ _____    ______ ____
ROOT
ATOM      1  C   UNL     1       5.510   8.966  -3.591  0.00  0.00    +0.031 C 
ENDROOT
BRANCH   1   2
ATOM      2  C   UNL     1       4.244   8.182  -3.239  0.00  0.00    +0.097 C 
BRANCH   2   4
ATOM      3  N   UNL     1       3.642   5.864  -2.620  0.00  0.00    -0.315 N 
ATOM      4  C   UNL     1       4.604   6.747  -2.954  0.00  0.00    +0.213 C 
ATOM      5  O   UNL     1       5.760   6.386  -3.026  0.00  0.00    -0.276 OA
ATOM      6  H   UNL     1       2.594   6.191  -2.555  0.00  0.00    +0.149 HD
BRANCH   3   7
ATOM      7  C   UNL     1       3.993   4.469  -2.344  0.00  0.00    +0.102 C 
BRANCH   7   8
ATOM      8  C   UNL     1       2.726   3.685  -1.992  0.00  0.00    +0.000 C 
BRANCH   8   9
ATOM      9  C   UNL     1       3.092   2.228  -1.703  0.00  0.00    -0.077 C 
BRANCH   9  16
ATOM     10  C   UNL     1       2.702  -0.340  -2.785  0.00  0.00    -0.013 C 
ATOM     11  C   UNL     1       2.121   0.029  -1.418  0.00  0.00    -0.072 C 
ATOM     12  C   UNL     1       0.804  -0.721  -1.205  0.00  0.00    -0.016 C 
ATOM     13  C   UNL     1       0.217  -0.334   0.155  0.00  0.00    -0.003 C 
ATOM     14  C   UNL     1       0.017   1.184   0.203  0.00  0.00    -0.019 C 
ATOM     15  C   UNL     1       1.357   1.878  -0.052  0.00  0.00    -0.078 C 
ATOM     16  N   UNL     1       1.877   1.476  -1.365  0.00  0.00    +0.381 N 
ATOM     17  H   UNL     1       1.110   1.714  -2.116  0.00  0.00    -0.081 HD
ENDBRANCH   9  16
ENDBRANCH   8   9
ENDBRANCH   7   8
ENDBRANCH   3   7
ENDBRANCH   2   4
ENDBRANCH   1   2
BRANCH   1  18
ATOM     18  C   UNL     1       5.144  10.423  -3.880  0.00  0.00    +0.126 C 
BRANCH  18  19
ATOM     19  N   UNL     1       6.356  11.173  -4.217  0.00  0.00    -0.305 N 
ATOM     20  C   UNL     1       7.083  11.804  -3.207  0.00  0.00    +0.070 A 
ATOM     21  C   UNL     1       6.657  11.706  -1.888  0.00  0.00    +0.043 A 
ATOM     22  C   UNL     1       7.374  12.322  -0.882  0.00  0.00    +0.020 A 
ATOM     23  C   UNL     1       8.523  13.036  -1.181  0.00  0.00    +0.017 A 
ATOM     24  C   UNL     1       8.957  13.135  -2.488  0.00  0.00    +0.029 A 
ATOM     25  C   UNL     1       8.243  12.518  -3.506  0.00  0.00    +0.070 A 
ATOM     26  N   UNL     1       8.687  12.621  -4.829  0.00  0.00    -0.310 N 
ATOM     27  C   UNL     1       9.755  13.244  -5.386  0.00  0.00    +0.092 A 
ATOM     28  C   UNL     1       9.736  13.039  -6.725  0.00  0.00    +0.020 A 
ATOM     29  C   UNL     1       8.615  12.258  -7.025  0.00  0.00    +0.033 A 
ATOM     30  C   UNL     1       7.970  12.005  -5.834  0.00  0.00    +0.112 A 
ATOM     31  C   UNL     1       6.758  11.254  -5.501  0.00  0.00    +0.276 A 
ATOM     32  O   UNL     1       6.117  10.706  -6.379  0.00  0.00    -0.265 OA
ATOM     33 BR   UNL     1       6.786  12.191   0.911  0.00  0.00    -0.050 Br
ENDBRANCH  18  19
ENDBRANCH   1  18
TORSDOF 8
