REMARK  Name = ZINC39467093
REMARK  6 active torsions:
REMARK  status: ('A' for Active; 'I' for Inactive)
REMARK    1  A    between atoms: C_4  and  O_39
REMARK    2  A    between atoms: C_5  and  C_7
REMARK    3  A    between atoms: P_16  and  C_32
REMARK    4  A    between atoms: C_24  and  C_25
REMARK    5  A    between atoms: C_30  and  O_31
REMARK    6  A    between atoms: C_37  and  O_38
REMARK                            x       y       z     vdW  Elec       q    Type
REMARK                         _______ _______ _______ _____ _____    ______ ____
ROOT
ATOM      1  C   UNL     1       1.245  -2.165  -0.022  0.00  0.00    -0.011 C 
ATOM      2  C   UNL     1       1.551  -2.829  -1.146  0.00  0.00    -0.014 C 
ATOM      3  C   UNL     1       1.582  -4.338  -1.134  0.00  0.00    +0.016 C 
ATOM      4  C   UNL     1       0.150  -4.860  -1.267  0.00  0.00    -0.003 C 
ATOM      5  C   UNL     1       0.119  -6.387  -1.131  0.00  0.00    -0.020 C 
ATOM      6  C   UNL     1      -1.346  -6.822  -1.268  0.00  0.00    +0.157 C 
ATOM      7  O   UNL     1      -1.430  -8.256  -1.201  0.00  0.00    -0.316 OA
ATOM      8  P   UNL     1      -0.683  -9.001   0.037  0.00  0.00    +0.291 P 
ATOM      9  O   UNL     1      -0.397 -10.411  -0.308  0.00  0.00    -0.269 OA
ATOM     10  N   UNL     1       0.725  -8.168   0.256  0.00  0.00    -0.288 NA
ATOM     11  N   UNL     1       0.675  -6.793   0.162  0.00  0.00    +0.398 N 
ATOM     12  C   UNL     1       2.067  -6.330   0.289  0.00  0.00    -0.046 C 
ATOM     13  C   UNL     1       2.167  -4.811   0.200  0.00  0.00    +0.005 C 
ATOM     14  C   UNL     1       1.397  -4.189   1.335  0.00  0.00    -0.016 C 
ATOM     15  C   UNL     1       0.938  -2.926   1.216  0.00  0.00    -0.011 C 
ATOM     16  H   UNL     1       1.557  -8.630   0.446  0.00  0.00    +0.111 HD
ATOM     17  H   UNL     1       0.110  -6.417   0.908  0.00  0.00    -0.055 HD
ENDROOT
BRANCH   1  22
ATOM     18  C   UNL     1      -0.017   1.376   0.010  0.00  0.00    +0.001 A 
ATOM     19  C   UNL     1       1.169   2.089   0.002  0.00  0.00    +0.004 A 
ATOM     20  C   UNL     1       2.382   1.426  -0.013  0.00  0.00    +0.046 A 
ATOM     21  C   UNL     1       2.416   0.041  -0.021  0.00  0.00    +0.125 A 
ATOM     22  C   UNL     1       1.219  -0.683  -0.013  0.00  0.00    +0.024 A 
ATOM     23  C   UNL     1       0.002  -0.004   0.002  0.00  0.00    +0.012 A 
BRANCH  21  24
ATOM     24  O   UNL     1       3.607  -0.612  -0.036  0.00  0.00    -0.506 OA
ATOM     25  H   UNL     1       3.961  -0.805   0.843  0.00  0.00    +0.292 HD
ENDBRANCH  21  24
ENDBRANCH   1  22
BRANCH  15  26
ATOM     26  C   UNL     1       0.161  -2.297   2.310  0.00  0.00    +0.024 A 
ATOM     27  C   UNL     1       0.759  -1.348   3.138  0.00  0.00    +0.012 A 
ATOM     28  C   UNL     1       0.031  -0.765   4.155  0.00  0.00    +0.001 A 
ATOM     29  C   UNL     1      -1.292  -1.120   4.357  0.00  0.00    +0.004 A 
ATOM     30  C   UNL     1      -1.895  -2.059   3.542  0.00  0.00    +0.046 A 
ATOM     31  C   UNL     1      -1.177  -2.648   2.513  0.00  0.00    +0.125 A 
BRANCH  31  32
ATOM     32  O   UNL     1      -1.770  -3.567   1.707  0.00  0.00    -0.506 OA
ATOM     33  H   UNL     1      -1.690  -4.477   2.024  0.00  0.00    +0.292 HD
ENDBRANCH  31  32
ENDBRANCH  15  26
BRANCH   8  34
ATOM     34  C   UNL     1      -1.706  -8.916   1.533  0.00  0.00    +0.091 A 
ATOM     35  C   UNL     1      -1.574  -7.850   2.401  0.00  0.00    +0.018 A 
ATOM     36  C   UNL     1      -2.354  -7.785   3.541  0.00  0.00    +0.001 A 
ATOM     37  C   UNL     1      -3.268  -8.786   3.815  0.00  0.00    +0.004 A 
ATOM     38  C   UNL     1      -3.404  -9.853   2.949  0.00  0.00    +0.046 A 
ATOM     39  C   UNL     1      -2.627  -9.918   1.802  0.00  0.00    +0.131 A 
BRANCH  39  40
ATOM     40  O   UNL     1      -2.763 -10.965   0.946  0.00  0.00    -0.506 OA
ATOM     41  H   UNL     1      -2.185 -11.714   1.146  0.00  0.00    +0.292 HD
ENDBRANCH  39  40
ENDBRANCH   8  34
TORSDOF 6
