REMARK  Name = ZINC14923413
REMARK  11 active torsions:
REMARK  status: ('A' for Active; 'I' for Inactive)
REMARK    1  A    between atoms: C_1  and  C_2
REMARK    2  A    between atoms: C_2  and  C_4
REMARK    3  A    between atoms: C_2  and  N_59
REMARK    4  A    between atoms: N_6  and  C_7
REMARK    5  A    between atoms: C_8  and  C_17
REMARK    6  A    between atoms: C_19  and  N_59
REMARK    7  A    between atoms: C_20  and  C_21
REMARK    8  A    between atoms: C_20  and  N_59
REMARK    9  A    between atoms: N_23  and  C_24
REMARK   10  A    between atoms: C_29  and  O_30
REMARK   11  A    between atoms: O_30  and  C_31
REMARK                            x       y       z     vdW  Elec       q    Type
REMARK                         _______ _______ _______ _____ _____    ______ ____
ROOT
ATOM      1  C   UNL     1       5.569   8.091   0.466  0.00  0.00    -0.004 C 
ATOM      2  C   UNL     1       4.540   8.209  -0.660  0.00  0.00    +0.017 C 
ENDROOT
BRANCH   2   3
ATOM      3  C   UNL     1       4.178   9.658  -0.859  0.00  0.00    +0.204 C 
ATOM      4  O   UNL     1       3.029  10.021  -0.719  0.00  0.00    -0.277 OA
ATOM      5  N   UNL     1       5.131  10.551  -1.194  0.00  0.00    -0.280 N 
ATOM      6  H   UNL     1       6.049  10.260  -1.307  0.00  0.00    +0.155 HD
BRANCH   5   7
ATOM      7  C   UNL     1       4.797  11.885  -1.378  0.00  0.00    +0.090 A 
ATOM      8  C   UNL     1       5.627  12.941  -1.720  0.00  0.00    +0.084 A 
ATOM      9  C   UNL     1       5.025  14.260  -1.856  0.00  0.00    -0.018 A 
ATOM     10  C   UNL     1       3.697  14.307  -1.617  0.00  0.00    -0.004 A 
ATOM     11  S   UNL     1       3.242  12.635  -1.243  0.00  0.00    -0.077 S 
ATOM     12  C   UNL     1       2.800  15.505  -1.659  0.00  0.00    +0.043 C 
ATOM     13  C   UNL     1       3.045  16.273  -2.965  0.00  0.00    +0.005 C 
ATOM     14  C   UNL     1       4.154  17.293  -2.725  0.00  0.00    +0.001 C 
ATOM     15  C   UNL     1       5.159  16.748  -1.713  0.00  0.00    +0.005 C 
ATOM     16  C   UNL     1       5.832  15.490  -2.252  0.00  0.00    +0.037 C 
BRANCH   8  17
ATOM     17  C   UNL     1       7.028  12.741  -1.935  0.00  0.00    +0.102 C 
ATOM     18  N   UNL     1       8.140  12.582  -2.105  0.00  0.00    -0.191 NA
ENDBRANCH   8  17
ENDBRANCH   5   7
ENDBRANCH   2   3
BRANCH   2  20
ATOM     19  C   UNL     1       2.751   7.943   0.950  0.00  0.00    -0.094 C 
ATOM     20  N   UNL     1       3.315   7.452  -0.324  0.00  0.00    +0.391 N 
ATOM     21  H   UNL     1       2.623   7.589  -1.070  0.00  0.00    -0.080 HD
BRANCH  20  22
ATOM     22  C   UNL     1       3.626   6.011  -0.216  0.00  0.00    +0.020 C 
BRANCH  22  23
ATOM     23  C   UNL     1       2.335   5.243  -0.094  0.00  0.00    +0.201 C 
ATOM     24  O   UNL     1       1.277   5.835  -0.081  0.00  0.00    -0.278 OA
ATOM     25  N   UNL     1       2.357   3.899   0.000  0.00  0.00    -0.284 N 
ATOM     26  H   UNL     1       3.204   3.431   0.070  0.00  0.00    +0.155 HD
BRANCH  25  27
ATOM     27  C   UNL     1       1.156   3.176  -0.003  0.00  0.00    +0.077 A 
ATOM     28  C   UNL     1       0.023   3.714  -0.596  0.00  0.00    +0.047 A 
ATOM     29  C   UNL     1      -1.161   2.999  -0.598  0.00  0.00    +0.043 A 
ATOM     30  C   UNL     1      -1.216   1.745  -0.015  0.00  0.00    +0.024 A 
ATOM     31  C   UNL     1      -0.092   1.207   0.583  0.00  0.00    +0.049 A 
ATOM     32  C   UNL     1       1.098   1.917   0.589  0.00  0.00    +0.141 A 
ATOM     33 CL   UNL     1      -2.578   3.673  -1.341  0.00  0.00    -0.083 Cl
BRANCH  32  34
ATOM     34  O   UNL     1       2.206   1.385   1.171  0.00  0.00    -0.493 OA
ATOM     35  C   UNL     1       2.072   0.089   1.758  0.00  0.00    +0.277 C 
ENDBRANCH  32  34
ENDBRANCH  25  27
ENDBRANCH  22  23
ENDBRANCH  20  22
ENDBRANCH   2  20
TORSDOF 8
