REMARK  Name = ZINC49563876
REMARK  4 active torsions:
REMARK  status: ('A' for Active; 'I' for Inactive)
REMARK    1  A    between atoms: C_2  and  N_23
REMARK    2  A    between atoms: C_5  and  S_8
REMARK    3  A    between atoms: S_8  and  N_11
REMARK    4  A    between atoms: N_11  and  C_12
REMARK                            x       y       z     vdW  Elec       q    Type
REMARK                         _______ _______ _______ _____ _____    ______ ____
ROOT
ATOM      1  S   UNL     1       1.229  -2.443  -0.023  0.00  0.00    +0.061 S 
ATOM      2  O   UNL     1      -0.017  -2.860  -0.564  0.00  0.00    -0.153 OA
ATOM      3  O   UNL     1       2.473  -2.832  -0.588  0.00  0.00    -0.153 OA
ENDROOT
BRANCH   1   8
ATOM      4  C   UNL     1      -0.017   1.378   0.010  0.00  0.00    +0.040 A 
ATOM      5  C   UNL     1       1.177   2.087   0.002  0.00  0.00    +0.027 A 
ATOM      6  C   UNL     1       2.387   1.405  -0.013  0.00  0.00    +0.040 A 
ATOM      7  C   UNL     1       2.400   0.023  -0.021  0.00  0.00    +0.047 A 
ATOM      8  C   UNL     1       1.209  -0.681  -0.013  0.00  0.00    +0.133 A 
ATOM      9  C   UNL     1       0.002  -0.004   0.002  0.00  0.00    +0.047 A 
ATOM     10 BR   UNL     1      -1.623  -0.971   0.013  0.00  0.00    -0.048 Br
ATOM     11 BR   UNL     1       4.046  -0.906  -0.042  0.00  0.00    -0.048 Br
BRANCH   5  12
ATOM     12  N   UNL     1       1.162   3.484   0.009  0.00  0.00    -0.358 N 
ATOM     13  H   UNL     1       0.316   3.959   0.019  0.00  0.00    +0.142 HD
ATOM     14  H   UNL     1       1.996   3.978   0.004  0.00  0.00    +0.142 HD
ENDBRANCH   5  12
ENDBRANCH   1   8
BRANCH   1  15
ATOM     15  N   UNL     1       1.249  -2.941   1.556  0.00  0.00    -0.188 NA
ATOM     16  H   UNL     1       2.019  -3.417   1.905  0.00  0.00    +0.148 HD
BRANCH  15  17
ATOM     17  C   UNL     1       0.104  -2.663   2.427  0.00  0.00    +0.061 C 
ATOM     18  C   UNL     1       0.373  -1.413   3.290  0.00  0.00    +0.000 C 
ATOM     19  C   UNL     1      -0.322  -1.712   4.629  0.00  0.00    -0.077 C 
ATOM     20  N   UNL     1      -0.548  -3.160   4.704  0.00  0.00    +0.383 N 
ATOM     21  C   UNL     1      -0.082  -3.797   3.452  0.00  0.00    -0.050 C 
ATOM     22  C   UNL     1       1.311  -4.383   3.792  0.00  0.00    -0.016 C 
ATOM     23  C   UNL     1       1.125  -4.827   5.265  0.00  0.00    -0.020 C 
ATOM     24  C   UNL     1       0.190  -3.737   5.840  0.00  0.00    -0.078 C 
ATOM     25  H   UNL     1      -1.534  -3.344   4.813  0.00  0.00    -0.081 HD
ENDBRANCH  15  17
ENDBRANCH   1  15
TORSDOF 4
