REMARK  Name = ZINC40777814
REMARK  8 active torsions:
REMARK  status: ('A' for Active; 'I' for Inactive)
REMARK    1  A    between atoms: C_1  and  C_2
REMARK    2  A    between atoms: C_5  and  C_8
REMARK    3  A    between atoms: C_8  and  N_9
REMARK    4  A    between atoms: C_11  and  N_30
REMARK    5  A    between atoms: C_12  and  N_16
REMARK    6  A    between atoms: N_16  and  N_17
REMARK    7  A    between atoms: N_17  and  C_18
REMARK    8  A    between atoms: N_17  and  C_24
REMARK                            x       y       z     vdW  Elec       q    Type
REMARK                         _______ _______ _______ _____ _____    ______ ____
ROOT
ATOM      1  N   UNL     1       9.122  -5.811   1.173  0.00  0.00    -0.323 N 
ATOM      2  C   UNL     1       8.335  -6.671   0.416  0.00  0.00    +0.145 A 
ATOM      3  C   UNL     1       7.304  -7.399   1.013  0.00  0.00    +0.105 A 
ATOM      4  C   UNL     1       6.544  -8.248   0.207  0.00  0.00    +0.139 A 
ATOM      5  N   UNL     1       6.829  -8.332  -1.090  0.00  0.00    -0.332 N 
ATOM      6  C   UNL     1       7.812  -7.627  -1.614  0.00  0.00    +0.200 A 
ATOM      7  N   UNL     1       8.549  -6.810  -0.890  0.00  0.00    -0.221 NA
ATOM      8  H   UNL     1       8.959  -5.716   2.125  0.00  0.00    +0.148 HD
ATOM      9  H   UNL     1       6.307  -8.919  -1.658  0.00  0.00    +0.168 HD
ENDROOT
BRANCH   3  10
ATOM     10  N   UNL     1       7.039  -7.280   2.388  0.00  0.00    -0.353 N 
ATOM     11  H   UNL     1       7.575  -6.686   2.935  0.00  0.00    +0.143 HD
ATOM     12  H   UNL     1       6.319  -7.792   2.789  0.00  0.00    +0.143 HD
ENDBRANCH   3  10
BRANCH   4  13
ATOM     13  N   UNL     1       5.506  -8.996   0.751  0.00  0.00    -0.243 N 
ATOM     14  H   UNL     1       5.305  -8.929   1.698  0.00  0.00    +0.172 HD
BRANCH  13  15
ATOM     15  N   UNL     1       4.751  -9.845  -0.068  0.00  0.00    -0.221 N 
BRANCH  15  16
ATOM     16  C   UNL     1       4.946 -11.227  -0.009  0.00  0.00    +0.053 A 
ATOM     17  C   UNL     1       6.216 -11.759  -0.192  0.00  0.00    +0.025 A 
ATOM     18  C   UNL     1       6.405 -13.126  -0.134  0.00  0.00    +0.002 A 
ATOM     19  C   UNL     1       5.332 -13.964   0.106  0.00  0.00    +0.000 A 
ATOM     20  C   UNL     1       4.066 -13.438   0.288  0.00  0.00    +0.002 A 
ATOM     21  C   UNL     1       3.871 -12.072   0.237  0.00  0.00    +0.025 A 
ENDBRANCH  15  16
BRANCH  15  22
ATOM     22  C   UNL     1       3.802  -9.309  -0.942  0.00  0.00    +0.053 A 
ATOM     23  C   UNL     1       3.475  -7.961  -0.874  0.00  0.00    +0.025 A 
ATOM     24  C   UNL     1       2.537  -7.435  -1.740  0.00  0.00    +0.002 A 
ATOM     25  C   UNL     1       1.923  -8.249  -2.675  0.00  0.00    +0.000 A 
ATOM     26  C   UNL     1       2.246  -9.592  -2.745  0.00  0.00    +0.002 A 
ATOM     27  C   UNL     1       3.188 -10.123  -1.886  0.00  0.00    +0.025 A 
ENDBRANCH  15  22
ENDBRANCH  13  15
ENDBRANCH   4  13
BRANCH   1  28
ATOM     28  C   UNL     1      10.197  -5.048   0.534  0.00  0.00    +0.138 C 
BRANCH  28  33
ATOM     29  C   UNL     1      12.866  -1.789   4.489  0.00  0.00    +0.044 C 
ATOM     30  C   UNL     1      12.170  -2.639   3.458  0.00  0.00    -0.050 A 
ATOM     31  C   UNL     1      12.615  -3.923   3.206  0.00  0.00    +0.003 A 
ATOM     32  C   UNL     1      11.977  -4.703   2.260  0.00  0.00    +0.005 A 
ATOM     33  C   UNL     1      10.893  -4.199   1.566  0.00  0.00    -0.030 A 
ATOM     34  C   UNL     1      10.447  -2.915   1.819  0.00  0.00    +0.005 A 
ATOM     35  C   UNL     1      11.082  -2.137   2.768  0.00  0.00    +0.003 A 
ENDBRANCH  28  33
ENDBRANCH   1  28
TORSDOF 7
