REMARK  Name = ZINC34830172
REMARK  13 active torsions:
REMARK  status: ('A' for Active; 'I' for Inactive)
REMARK    1  A    between atoms: C_1  and  C_2
REMARK    2  A    between atoms: C_2  and  C_3
REMARK    3  A    between atoms: C_3  and  C_4
REMARK    4  A    between atoms: C_4  and  C_5
REMARK    5  A    between atoms: C_5  and  C_7
REMARK    6  A    between atoms: C_5  and  C_9
REMARK    7  A    between atoms: C_7  and  C_8
REMARK    8  A    between atoms: C_16  and  C_18
REMARK    9  A    between atoms: C_19  and  C_21
REMARK   10  A    between atoms: C_21  and  C_22
REMARK   11  A    between atoms: C_22  and  N_23
REMARK   12  A    between atoms: C_31  and  C_33
REMARK   13  A    between atoms: C_36  and  C_39
REMARK                            x       y       z     vdW  Elec       q    Type
REMARK                         _______ _______ _______ _____ _____    ______ ____
ROOT
ATOM      1  C   UNL     1      -9.108  -5.158   0.636  0.00  0.00    +0.077 C 
ENDROOT
BRANCH   1  11
ATOM      2  C   UNL     1      -3.130  -3.767   0.033  0.00  0.00    +0.219 C 
ATOM      3  O   UNL     1      -2.142  -4.434   0.257  0.00  0.00    -0.275 OA
ATOM      4  N   UNL     1      -4.334  -4.362  -0.075  0.00  0.00    -0.295 N 
ATOM      5  C   UNL     1      -5.553  -3.558  -0.240  0.00  0.00    +0.127 C 
ATOM      6  C   UNL     1      -6.544  -3.936   0.868  0.00  0.00    +0.127 C 
ATOM      7  N   UNL     1      -6.662  -5.400   0.913  0.00  0.00    -0.298 N 
ATOM      8  C   UNL     1      -5.442  -6.204   1.078  0.00  0.00    +0.130 C 
ATOM      9  C   UNL     1      -4.451  -5.826  -0.036  0.00  0.00    +0.090 C 
ATOM     10  C   UNL     1      -4.968  -6.336  -1.383  0.00  0.00    +0.029 C 
ATOM     11  C   UNL     1      -7.866  -5.995   0.805  0.00  0.00    +0.214 C 
ATOM     12  O   UNL     1      -7.951  -7.204   0.843  0.00  0.00    -0.276 OA
BRANCH   2  13
ATOM     13  C   UNL     1      -3.010  -2.273  -0.125  0.00  0.00    +0.075 C 
BRANCH  13  14
ATOM     14  C   UNL     1      -1.629  -1.928  -0.684  0.00  0.00    +0.009 C 
ATOM     15  C   UNL     1      -1.495  -2.496  -2.099  0.00  0.00    +0.004 C 
ENDBRANCH  13  14
BRANCH  13  16
ATOM     16  C   UNL     1      -3.191  -1.600   1.238  0.00  0.00    +0.013 C 
BRANCH  16  17
ATOM     17  C   UNL     1      -3.194  -0.081   1.060  0.00  0.00    +0.000 C 
BRANCH  17  19
ATOM     18  C   UNL     1      -3.379   2.112   2.244  0.00  0.00    +0.004 C 
ATOM     19  C   UNL     1      -3.375   0.592   2.422  0.00  0.00    -0.003 C 
ENDBRANCH  17  19
ENDBRANCH  16  17
ENDBRANCH  13  16
ENDBRANCH   2  13
ENDBRANCH   1  11
BRANCH   1  20
ATOM     20  C   UNL     1     -10.330  -6.072   0.539  0.00  0.00    -0.068 C 
BRANCH  20  21
ATOM     21  N   UNL     1     -11.541  -5.256   0.374  0.00  0.00    +0.388 N 
ATOM     22  C   UNL     1     -11.462  -4.525  -0.897  0.00  0.00    -0.072 C 
ATOM     23  C   UNL     1     -12.548  -3.436  -0.913  0.00  0.00    +0.024 C 
ATOM     24  C   UNL     1     -13.826  -4.068  -0.468  0.00  0.00    -0.010 A 
ATOM     25  C   UNL     1     -13.961  -5.286   0.129  0.00  0.00    -0.047 A 
ATOM     26  C   UNL     1     -15.257  -5.678   0.455  0.00  0.00    +0.010 A 
ATOM     27  C   UNL     1     -16.301  -4.861   0.180  0.00  0.00    +0.045 A 
ATOM     28  S   UNL     1     -15.485  -3.461  -0.573  0.00  0.00    -0.101 S 
ATOM     29  C   UNL     1     -12.720  -6.130   0.402  0.00  0.00    -0.006 C 
ATOM     30  H   UNL     1     -11.600  -4.594   1.134  0.00  0.00    -0.080 HD
BRANCH  29  31
ATOM     31  C   UNL     1     -12.837  -6.778   1.757  0.00  0.00    -0.057 A 
ATOM     32  C   UNL     1     -12.571  -6.045   2.899  0.00  0.00    +0.002 A 
ATOM     33  C   UNL     1     -12.679  -6.639   4.142  0.00  0.00    +0.003 A 
ATOM     34  C   UNL     1     -13.053  -7.966   4.244  0.00  0.00    -0.050 A 
ATOM     35  C   UNL     1     -13.321  -8.698   3.102  0.00  0.00    +0.003 A 
ATOM     36  C   UNL     1     -13.217  -8.103   1.859  0.00  0.00    +0.002 A 
ATOM     37  C   UNL     1     -13.170  -8.614   5.599  0.00  0.00    +0.044 C 
ENDBRANCH  29  31
ENDBRANCH  20  21
ENDBRANCH   1  20
TORSDOF 9
