REMARK  Name = ZINC35005758
REMARK  10 active torsions:
REMARK  status: ('A' for Active; 'I' for Inactive)
REMARK    1  A    between atoms: C_1  and  C_2
REMARK    2  A    between atoms: C_2  and  C_3
REMARK    3  A    between atoms: C_3  and  C_4
REMARK    4  A    between atoms: C_4  and  C_5
REMARK    5  A    between atoms: C_5  and  N_6
REMARK    6  A    between atoms: N_6  and  C_7
REMARK    7  A    between atoms: C_7  and  C_8
REMARK    8  A    between atoms: C_19  and  C_21
REMARK    9  A    between atoms: N_24  and  C_25
REMARK   10  A    between atoms: C_29  and  C_31
REMARK                            x       y       z     vdW  Elec       q    Type
REMARK                         _______ _______ _______ _____ _____    ______ ____
ROOT
ATOM      1  N   UNL     1      -2.834  -4.058   0.007  0.00  0.00    -0.277 N 
ATOM      2  C   UNL     1      -2.828  -4.725  -1.163  0.00  0.00    +0.307 C 
ATOM      3  O   UNL     1      -2.803  -5.941  -1.170  0.00  0.00    -0.252 OA
ATOM      4  N   UNL     1      -2.850  -4.045  -2.327  0.00  0.00    -0.269 N 
ATOM      5  H   UNL     1      -2.938  -3.079  -2.323  0.00  0.00    +0.156 HD
ENDROOT
BRANCH   4   6
ATOM      6  C   UNL     1      -2.747  -4.733  -3.541  0.00  0.00    +0.035 A 
ATOM      7  C   UNL     1      -2.063  -4.163  -4.608  0.00  0.00    +0.023 A 
ATOM      8  C   UNL     1      -1.963  -4.845  -5.805  0.00  0.00    +0.002 A 
ATOM      9  C   UNL     1      -2.542  -6.093  -5.942  0.00  0.00    +0.012 A 
ATOM     10  C   UNL     1      -3.223  -6.663  -4.883  0.00  0.00    +0.057 A 
ATOM     11  C   UNL     1      -3.322  -5.989  -3.681  0.00  0.00    +0.035 A 
BRANCH  10  12
ATOM     12  C   UNL     1      -3.854  -8.023  -5.037  0.00  0.00    +0.417 C 
ATOM     13  F   UNL     1      -3.617  -8.502  -6.330  0.00  0.00    -0.166 F 
ATOM     14  F   UNL     1      -3.297  -8.904  -4.104  0.00  0.00    -0.166 F 
ATOM     15  F   UNL     1      -5.233  -7.925  -4.822  0.00  0.00    -0.166 F 
ENDBRANCH  10  12
ENDBRANCH   4   6
BRANCH   1  16
ATOM     16  C   UNL     1      -2.865  -2.593   0.015  0.00  0.00    +0.110 C 
BRANCH  16  17
ATOM     17  C   UNL     1      -1.434  -2.053   0.009  0.00  0.00    +0.019 C 
BRANCH  17  18
ATOM     18  C   UNL     1      -1.466  -0.523   0.017  0.00  0.00    +0.001 C 
BRANCH  18  20
ATOM     19  C   UNL     1      -0.067   1.547   0.018  0.00  0.00    +0.004 C 
ATOM     20  C   UNL     1      -0.035   0.017   0.010  0.00  0.00    -0.003 C 
ENDBRANCH  18  20
ENDBRANCH  17  18
ENDBRANCH  16  17
ENDBRANCH   1  16
BRANCH   1  21
ATOM     21  C   UNL     1      -2.811  -4.797   1.272  0.00  0.00    +0.205 C 
BRANCH  21  22
ATOM     22  C   UNL     1      -4.223  -5.080   1.715  0.00  0.00    +0.233 C 
ATOM     23  O   UNL     1      -5.157  -4.702   1.041  0.00  0.00    -0.274 OA
ATOM     24  N   UNL     1      -4.447  -5.754   2.861  0.00  0.00    -0.293 N 
ATOM     25  C   UNL     1      -3.335  -6.221   3.705  0.00  0.00    +0.113 C 
ATOM     26  C   UNL     1      -3.420  -5.487   5.042  0.00  0.00    +0.054 C 
ATOM     27  C   UNL     1      -4.825  -5.521   5.584  0.00  0.00    -0.041 A 
ATOM     28  C   UNL     1      -4.997  -5.292   6.944  0.00  0.00    +0.004 A 
ATOM     29  C   UNL     1      -6.257  -5.300   7.503  0.00  0.00    +0.000 A 
ATOM     30  C   UNL     1      -7.362  -5.536   6.705  0.00  0.00    +0.000 A 
ATOM     31  C   UNL     1      -7.194  -5.767   5.356  0.00  0.00    +0.006 A 
ATOM     32  C   UNL     1      -5.925  -5.765   4.793  0.00  0.00    -0.024 A 
ATOM     33  C   UNL     1      -5.810  -6.046   3.320  0.00  0.00    +0.103 C 
ATOM     34  C   UNL     1      -6.130  -7.519   3.060  0.00  0.00    +0.033 C 
ENDBRANCH  21  22
ENDBRANCH   1  21
TORSDOF 8
