REMARK  Name = ZINC19825189
REMARK  15 active torsions:
REMARK  status: ('A' for Active; 'I' for Inactive)
REMARK    1  A    between atoms: C_1  and  C_2
REMARK    2  A    between atoms: C_2  and  N_3
REMARK    3  A    between atoms: N_3  and  C_4
REMARK    4  A    between atoms: N_3  and  C_6
REMARK    5  A    between atoms: C_4  and  C_5
REMARK    6  A    between atoms: C_6  and  C_7
REMARK    7  A    between atoms: C_7  and  N_8
REMARK    8  A    between atoms: N_8  and  C_9
REMARK    9  A    between atoms: N_8  and  C_24
REMARK   10  A    between atoms: C_9  and  C_10
REMARK   11  A    between atoms: C_14  and  C_23
REMARK   12  A    between atoms: C_16  and  C_22
REMARK   13  A    between atoms: C_24  and  N_26
REMARK   14  A    between atoms: N_26  and  C_27
REMARK   15  A    between atoms: C_27  and  C_28
REMARK                            x       y       z     vdW  Elec       q    Type
REMARK                         _______ _______ _______ _____ _____    ______ ____
ROOT
ATOM      1  N   UNL     1      -2.903  -4.090   0.187  0.00  0.00    -0.310 N 
ENDROOT
BRANCH   1   2
ATOM      2  C   UNL     1      -2.739  -4.898  -0.879  0.00  0.00    +0.133 C 
ATOM      3  S   UNL     1      -2.732  -6.597  -0.673  0.00  0.00    -0.019 S 
BRANCH   2   4
ATOM      4  N   UNL     1      -2.580  -4.367  -2.108  0.00  0.00    -0.319 N 
ATOM      5  H   UNL     1      -2.583  -3.405  -2.225  0.00  0.00    +0.148 HD
BRANCH   4   6
ATOM      6  C   UNL     1      -2.401  -5.245  -3.267  0.00  0.00    +0.177 C 
BRANCH   6   7
ATOM      7  C   UNL     1      -2.246  -4.409  -4.511  0.00  0.00    +0.122 A 
ATOM      8  C   UNL     1      -1.084  -3.955  -5.014  0.00  0.00    +0.046 A 
ATOM      9  C   UNL     1      -1.401  -3.220  -6.180  0.00  0.00    +0.041 A 
ATOM     10  C   UNL     1      -2.738  -3.270  -6.320  0.00  0.00    +0.195 A 
ATOM     11  O   UNL     1      -3.244  -3.996  -5.309  0.00  0.00    -0.466 OA
ENDBRANCH   6   7
ENDBRANCH   4   6
ENDBRANCH   2   4
ENDBRANCH   1   2
BRANCH   1  12
ATOM     12  C   UNL     1      -2.909  -2.636   0.011  0.00  0.00    +0.088 C 
BRANCH  12  13
ATOM     13  C   UNL     1      -1.483  -2.100   0.147  0.00  0.00    -0.060 C 
BRANCH  13  14
ATOM     14  N   UNL     1      -1.470  -0.661  -0.151  0.00  0.00    +0.380 N 
ATOM     15  H   UNL     1      -1.875  -0.503  -1.061  0.00  0.00    -0.082 HD
BRANCH  14  17
ATOM     16  C   UNL     1      -2.342   1.536   0.487  0.00  0.00    -0.017 C 
ATOM     17  C   UNL     1      -2.251   0.056   0.865  0.00  0.00    -0.082 C 
ENDBRANCH  14  17
BRANCH  14  18
ATOM     18  C   UNL     1      -0.085  -0.172  -0.140  0.00  0.00    -0.082 C 
ATOM     19  C   UNL     1       0.689  -0.803  -1.299  0.00  0.00    -0.017 C 
ENDBRANCH  14  18
ENDBRANCH  13  14
ENDBRANCH  12  13
ENDBRANCH   1  12
BRANCH   1  20
ATOM     20  C   UNL     1      -3.076  -4.667   1.523  0.00  0.00    +0.147 C 
BRANCH  20  21
ATOM     21  C   UNL     1      -4.543  -4.894   1.786  0.00  0.00    +0.035 A 
ATOM     22  C   UNL     1      -5.091  -6.111   1.548  0.00  0.00    +0.020 A 
ATOM     23  C   UNL     1      -6.519  -6.299   1.815  0.00  0.00    -0.001 A 
ATOM     24  C   UNL     1      -7.141  -7.531   1.590  0.00  0.00    +0.013 A 
ATOM     25  C   UNL     1      -8.474  -7.674   1.849  0.00  0.00    -0.050 A 
ATOM     26  C   UNL     1      -9.218  -6.607   2.333  0.00  0.00    +0.008 A 
ATOM     27  C   UNL     1      -8.626  -5.383   2.562  0.00  0.00    -0.026 A 
ATOM     28  C   UNL     1      -7.269  -5.214   2.306  0.00  0.00    +0.052 A 
ATOM     29  N   UNL     1      -6.652  -4.002   2.527  0.00  0.00    -0.322 N 
ATOM     30  H   UNL     1      -7.171  -3.256   2.865  0.00  0.00    +0.169 HD
ATOM     31  C   UNL     1      -5.339  -3.840   2.284  0.00  0.00    +0.254 A 
ATOM     32  O   UNL     1      -4.825  -2.756   2.495  0.00  0.00    -0.268 OA
ATOM     33  C   UNL     1      -9.446  -4.233   3.087  0.00  0.00    +0.046 C 
ATOM     34  C   UNL     1      -9.144  -9.002   1.606  0.00  0.00    +0.044 C 
ENDBRANCH  20  21
ENDBRANCH   1  20
TORSDOF 11
