REMARK  Name = ZINC36789871
REMARK  11 active torsions:
REMARK  status: ('A' for Active; 'I' for Inactive)
REMARK    1  A    between atoms: C_1  and  C_2
REMARK    2  A    between atoms: C_2  and  C_3
REMARK    3  A    between atoms: C_3  and  C_4
REMARK    4  A    between atoms: C_4  and  C_6
REMARK    5  A    between atoms: C_4  and  N_7
REMARK    6  A    between atoms: N_7  and  C_8
REMARK    7  A    between atoms: N_7  and  C_9
REMARK    8  A    between atoms: C_9  and  C_11
REMARK    9  A    between atoms: C_9  and  C_12
REMARK   10  A    between atoms: N_14  and  C_15
REMARK   11  A    between atoms: C_18  and  N_22
REMARK                            x       y       z     vdW  Elec       q    Type
REMARK                         _______ _______ _______ _____ _____    ______ ____
ROOT
ATOM      1  C   UNL     1      -1.942  -4.754   0.393  0.00  0.00    +0.203 C 
ATOM      2  O   UNL     1      -2.688  -4.236  -0.410  0.00  0.00    -0.277 OA
ATOM      3  N   UNL     1      -2.360  -5.812   1.116  0.00  0.00    -0.284 N 
ATOM      4  H   UNL     1      -1.793  -6.176   1.814  0.00  0.00    +0.155 HD
ENDROOT
BRANCH   3   5
ATOM      5  C   UNL     1      -3.612  -6.388   0.857  0.00  0.00    +0.070 A 
ATOM      6  C   UNL     1      -3.737  -7.768   0.764  0.00  0.00    +0.065 A 
ATOM      7  C   UNL     1      -4.971  -8.335   0.510  0.00  0.00    +0.044 A 
ATOM      8  C   UNL     1      -6.087  -7.524   0.347  0.00  0.00    +0.027 A 
ATOM      9  C   UNL     1      -5.963  -6.144   0.439  0.00  0.00    +0.044 A 
ATOM     10  C   UNL     1      -4.730  -5.577   0.700  0.00  0.00    +0.065 A 
ATOM     11 CL   UNL     1      -4.575  -3.853   0.823  0.00  0.00    -0.082 Cl
ATOM     12 CL   UNL     1      -2.342  -8.781   0.968  0.00  0.00    -0.082 Cl
BRANCH   8  13
ATOM     13  N   UNL     1      -7.337  -8.098   0.089  0.00  0.00    -0.358 N 
ATOM     14  H   UNL     1      -7.424  -9.062   0.024  0.00  0.00    +0.142 HD
ATOM     15  H   UNL     1      -8.116  -7.532  -0.025  0.00  0.00    +0.142 HD
ENDBRANCH   8  13
ENDBRANCH   3   5
BRANCH   1  16
ATOM     16  C   UNL     1      -0.548  -4.214   0.584  0.00  0.00    +0.016 C 
ATOM     17  C   UNL     1      -0.404  -3.666   2.006  0.00  0.00    -0.004 C 
BRANCH  16  18
ATOM     18  N   UNL     1      -0.304  -3.136  -0.383  0.00  0.00    +0.387 N 
ATOM     19  C   UNL     1       1.087  -2.679  -0.266  0.00  0.00    -0.095 C 
ATOM     20  H   UNL     1      -0.928  -2.366  -0.194  0.00  0.00    -0.081 HD
BRANCH  18  21
ATOM     21  C   UNL     1      -0.542  -3.636  -1.744  0.00  0.00    -0.071 C 
ATOM     22  C   UNL     1      -0.214  -2.536  -2.756  0.00  0.00    -0.013 C 
BRANCH  21  23
ATOM     23  C   UNL     1       0.349  -4.852  -2.004  0.00  0.00    -0.016 C 
BRANCH  23  25
ATOM     24  C   UNL     1       0.521  -7.336  -1.801  0.00  0.00    +0.004 C 
ATOM     25  C   UNL     1      -0.365  -6.119  -1.529  0.00  0.00    -0.005 C 
ENDBRANCH  23  25
ENDBRANCH  21  23
ENDBRANCH  18  21
ENDBRANCH  16  18
ENDBRANCH   1  16
TORSDOF 7
