REMARK  Name = ZINC36267357
REMARK  7 active torsions:
REMARK  status: ('A' for Active; 'I' for Inactive)
REMARK    1  A    between atoms: C_3  and  S_9
REMARK    2  A    between atoms: S_9  and  N_12
REMARK    3  A    between atoms: N_12  and  C_13
REMARK    4  A    between atoms: C_13  and  C_14
REMARK    5  A    between atoms: C_14  and  C_15
REMARK    6  A    between atoms: C_15  and  N_16
REMARK    7  A    between atoms: N_16  and  C_17
REMARK                            x       y       z     vdW  Elec       q    Type
REMARK                         _______ _______ _______ _____ _____    ______ ____
ROOT
ATOM      1  S   UNL     1       3.890   2.316  -0.024  0.00  0.00    +0.060 S 
ATOM      2  O   UNL     1       4.688   1.760  -1.061  0.00  0.00    -0.153 OA
ATOM      3  O   UNL     1       3.542   3.693   0.013  0.00  0.00    -0.153 OA
ENDROOT
BRANCH   1   6
ATOM      4  C   UNL     1      -0.017   1.379   0.010  0.00  0.00    +0.017 A 
ATOM      5  C   UNL     1       1.171   2.087   0.002  0.00  0.00    +0.031 A 
ATOM      6  C   UNL     1       2.377   1.413  -0.013  0.00  0.00    +0.124 A 
ATOM      7  C   UNL     1       2.397   0.029  -0.021  0.00  0.00    +0.068 A 
ATOM      8  C   UNL     1       1.209  -0.679  -0.013  0.00  0.00    +0.037 A 
ATOM      9  C   UNL     1       0.002  -0.004   0.002  0.00  0.00    +0.019 A 
ATOM     10 BR   UNL     1      -1.623  -0.972   0.013  0.00  0.00    -0.050 Br
ATOM     11 CL   UNL     1       3.913  -0.817  -0.041  0.00  0.00    -0.081 Cl
ENDBRANCH   1   6
BRANCH   1  12
ATOM     12  N   UNL     1       4.668   1.985   1.400  0.00  0.00    -0.190 NA
ATOM     13  H   UNL     1       4.813   2.692   2.049  0.00  0.00    +0.148 HD
BRANCH  12  14
ATOM     14  C   UNL     1       5.137   0.626   1.681  0.00  0.00    +0.104 C 
BRANCH  14  15
ATOM     15  C   UNL     1       6.125   0.658   2.848  0.00  0.00    -0.002 C 
BRANCH  15  16
ATOM     16  C   UNL     1       6.615  -0.762   3.141  0.00  0.00    -0.081 C 
BRANCH  16  17
ATOM     17  N   UNL     1       7.564  -0.731   4.261  0.00  0.00    +0.381 N 
ATOM     18  H   UNL     1       8.351  -0.147   4.020  0.00  0.00    -0.086 HD
ATOM     19  H   UNL     1       7.107  -0.357   5.079  0.00  0.00    -0.086 HD
BRANCH  17  20
ATOM     20  C   UNL     1       8.034  -2.094   4.542  0.00  0.00    -0.072 C 
ATOM     21  C   UNL     1       7.688  -2.693   5.907  0.00  0.00    -0.017 C 
ATOM     22  C   UNL     1       9.123  -2.261   5.604  0.00  0.00    -0.017 C 
ENDBRANCH  17  20
ENDBRANCH  16  17
ENDBRANCH  15  16
ENDBRANCH  14  15
ENDBRANCH  12  14
ENDBRANCH   1  12
TORSDOF 7
