REMARK  Name = ZINC15184140
REMARK  6 active torsions:
REMARK  status: ('A' for Active; 'I' for Inactive)
REMARK    1  A    between atoms: C_3  and  C_8
REMARK    2  A    between atoms: C_8  and  N_9
REMARK    3  A    between atoms: N_9  and  C_10
REMARK    4  A    between atoms: C_10  and  C_11
REMARK    5  A    between atoms: C_11  and  C_12
REMARK    6  A    between atoms: C_12  and  N_13
REMARK                            x       y       z     vdW  Elec       q    Type
REMARK                         _______ _______ _______ _____ _____    ______ ____
ROOT
ATOM      1  C   UNL     1       5.820   3.433   2.791  0.00  0.00    +0.000 C 
ENDROOT
BRANCH   1   2
ATOM      2  C   UNL     1       5.368   3.179   1.351  0.00  0.00    -0.081 C 
BRANCH   2   3
ATOM      3  N   UNL     1       4.106   2.427   1.360  0.00  0.00    +0.382 N 
ATOM      4  H   UNL     1       3.400   2.959   1.845  0.00  0.00    -0.085 HD
ATOM      5  H   UNL     1       4.244   1.544   1.829  0.00  0.00    -0.085 HD
BRANCH   3   6
ATOM      6  C   UNL     1       3.672   2.183  -0.022  0.00  0.00    -0.047 C 
BRANCH   6   9
ATOM      7  C   UNL     1      -0.017   1.378   0.010  0.00  0.00    +0.001 A 
ATOM      8  C   UNL     1       1.171   2.086   0.002  0.00  0.00    +0.002 A 
ATOM      9  C   UNL     1       2.378   1.411  -0.013  0.00  0.00    -0.063 A 
ATOM     10  C   UNL     1       2.397   0.029  -0.022  0.00  0.00    +0.017 A 
ATOM     11  C   UNL     1       1.210  -0.679  -0.014  0.00  0.00    +0.018 A 
ATOM     12  C   UNL     1       0.002  -0.004   0.002  0.00  0.00    +0.015 A 
ATOM     13 BR   UNL     1       1.236  -2.570  -0.025  0.00  0.00    -0.050 Br
ENDBRANCH   6   9
ENDBRANCH   3   6
ENDBRANCH   2   3
ENDBRANCH   1   2
BRANCH   1  14
ATOM     14  C   UNL     1       7.134   4.217   2.782  0.00  0.00    +0.116 C 
BRANCH  14  15
ATOM     15  N   UNL     1       7.567   4.459   4.160  0.00  0.00    -0.224 N 
ATOM     16  C   UNL     1       7.215   5.542   4.887  0.00  0.00    +0.246 C 
ATOM     17  O   UNL     1       6.508   6.463   4.540  0.00  0.00    -0.273 OA
ATOM     18  C   UNL     1       7.888   5.359   6.224  0.00  0.00    +0.113 C 
ATOM     19  C   UNL     1       6.857   5.304   7.358  0.00  0.00    +0.035 C 
ATOM     20  C   UNL     1       7.567   6.004   8.545  0.00  0.00    +0.003 C 
ATOM     21  C   UNL     1       8.355   7.144   7.852  0.00  0.00    +0.003 C 
ATOM     22  C   UNL     1       8.843   6.516   6.527  0.00  0.00    +0.035 C 
ATOM     23  N   UNL     1       8.608   4.090   6.101  0.00  0.00    -0.285 N 
ATOM     24  C   UNL     1       8.357   3.633   4.858  0.00  0.00    +0.309 C 
ATOM     25  O   UNL     1       8.799   2.589   4.419  0.00  0.00    -0.252 OA
ATOM     26  H   UNL     1       9.154   3.663   6.779  0.00  0.00    +0.151 HD
ENDBRANCH  14  15
ENDBRANCH   1  14
TORSDOF 6
