REMARK  Name = ZINC39632099
REMARK  12 active torsions:
REMARK  status: ('A' for Active; 'I' for Inactive)
REMARK    1  A    between atoms: C_1  and  C_2
REMARK    2  A    between atoms: C_6  and  C_7
REMARK    3  A    between atoms: C_11  and  C_20
REMARK    4  A    between atoms: N_22  and  C_23
REMARK    5  A    between atoms: C_23  and  C_25
REMARK    6  A    between atoms: C_23  and  C_26
REMARK    7  A    between atoms: C_26  and  C_27
REMARK    8  A    between atoms: C_27  and  C_28
REMARK    9  A    between atoms: C_28  and  C_29
REMARK   10  A    between atoms: C_29  and  C_30
REMARK   11  A    between atoms: C_29  and  C_31
REMARK   12  A    between atoms: C_29  and  O_32
REMARK                            x       y       z     vdW  Elec       q    Type
REMARK                         _______ _______ _______ _____ _____    ______ ____
ROOT
ATOM      1  C   UNL     1       0.032  -0.278   2.567  0.00  0.00    +0.254 C 
ATOM      2  O   UNL     1       0.122   0.910   2.813  0.00  0.00    -0.269 OA
ATOM      3  N   UNL     1      -0.049  -1.171   3.574  0.00  0.00    -0.296 N 
ATOM      4  C   UNL     1      -0.041  -2.650   3.480  0.00  0.00    +0.121 C 
ATOM      5  C   UNL     1       0.813  -3.113   4.682  0.00  0.00    +0.100 C 
ATOM      6  C   UNL     1       0.726  -1.958   5.694  0.00  0.00    -0.004 C 
ATOM      7  C   UNL     1      -0.159  -0.894   5.027  0.00  0.00    +0.115 C 
ATOM      8  C   UNL     1       2.114  -1.386   5.964  0.00  0.00    -0.010 C 
ATOM      9  C   UNL     1       2.009  -0.277   7.015  0.00  0.00    -0.082 C 
ATOM     10  N   UNL     1       1.434  -0.825   8.250  0.00  0.00    +0.379 N 
ATOM     11  C   UNL     1       0.063  -1.288   8.002  0.00  0.00    -0.082 C 
ATOM     12  C   UNL     1       0.086  -2.439   6.992  0.00  0.00    -0.010 C 
ATOM     13  H   UNL     1       1.997  -1.599   8.567  0.00  0.00    -0.086 HD
ATOM     14  H   UNL     1       1.422  -0.108   8.960  0.00  0.00    -0.086 HD
ENDROOT
BRANCH   1  20
ATOM     15  C   UNL     1      -0.012   1.514   0.020  0.00  0.00    +0.045 C 
ATOM     16  C   UNL     1      -0.009   0.007   0.008  0.00  0.00    -0.031 A 
ATOM     17  C   UNL     1      -0.020  -0.714  -1.162  0.00  0.00    +0.011 A 
ATOM     18  C   UNL     1      -0.016  -2.069  -1.101  0.00  0.00    +0.046 A 
ATOM     19  S   UNL     1       0.003  -2.407   0.545  0.00  0.00    -0.092 S 
ATOM     20  C   UNL     1       0.011  -0.740   1.176  0.00  0.00    +0.077 A 
ENDBRANCH   1  20
BRANCH   5  21
ATOM     21  C   UNL     1       2.241  -3.334   4.257  0.00  0.00    +0.218 C 
ATOM     22  O   UNL     1       2.739  -2.622   3.410  0.00  0.00    -0.275 OA
ATOM     23  N   UNL     1       2.966  -4.323   4.816  0.00  0.00    -0.312 N 
ATOM     24  H   UNL     1       2.567  -4.892   5.494  0.00  0.00    +0.149 HD
BRANCH  23  25
ATOM     25  C   UNL     1       4.354  -4.538   4.403  0.00  0.00    +0.070 C 
ATOM     26  C   UNL     1       4.383  -5.423   3.155  0.00  0.00    +0.028 C 
BRANCH  25  27
ATOM     27  C   UNL     1       5.122  -5.226   5.533  0.00  0.00    +0.022 C 
BRANCH  27  28
ATOM     28  C   UNL     1       5.200  -4.289   6.741  0.00  0.00    +0.005 C 
BRANCH  28  29
ATOM     29  C   UNL     1       5.968  -4.977   7.871  0.00  0.00    +0.034 C 
BRANCH  29  30
ATOM     30  C   UNL     1       6.046  -4.040   9.078  0.00  0.00    +0.061 C 
ATOM     31  C   UNL     1       6.919  -4.676  10.162  0.00  0.00    +0.041 C 
ATOM     32  C   UNL     1       6.658  -2.705   8.649  0.00  0.00    +0.041 C 
BRANCH  30  33
ATOM     33  O   UNL     1       4.732  -3.818   9.595  0.00  0.00    -0.389 OA
ATOM     34  H   UNL     1       4.705  -3.232  10.363  0.00  0.00    +0.210 HD
ENDBRANCH  30  33
ENDBRANCH  29  30
ENDBRANCH  28  29
ENDBRANCH  27  28
ENDBRANCH  25  27
ENDBRANCH  23  25
ENDBRANCH   5  21
TORSDOF 8
