REMARK  Name = ZINC54649156
REMARK  7 active torsions:
REMARK  status: ('A' for Active; 'I' for Inactive)
REMARK    1  A    between atoms: C_3  and  C_6
REMARK    2  A    between atoms: C_6  and  C_8
REMARK    3  A    between atoms: C_6  and  N_24
REMARK    4  A    between atoms: C_8  and  N_9
REMARK    5  A    between atoms: N_12  and  C_13
REMARK    6  A    between atoms: C_13  and  C_14
REMARK    7  A    between atoms: N_16  and  C_17
REMARK                            x       y       z     vdW  Elec       q    Type
REMARK                         _______ _______ _______ _____ _____    ______ ____
ROOT
ATOM      1  N   UNL     1       5.830   2.348  -1.332  0.00  0.00    -0.301 N 
ATOM      2  C   UNL     1       6.613   2.505  -2.417  0.00  0.00    +0.300 C 
ATOM      3  O   UNL     1       6.190   2.216  -3.520  0.00  0.00    -0.253 OA
ATOM      4  N   UNL     1       7.867   2.982  -2.281  0.00  0.00    -0.291 N 
ATOM      5  H   UNL     1       6.168   2.578  -0.452  0.00  0.00    +0.150 HD
ATOM      6  H   UNL     1       8.205   3.212  -1.401  0.00  0.00    +0.151 HD
ENDROOT
BRANCH   1   7
ATOM      7  C   UNL     1       4.468   1.829  -1.480  0.00  0.00    +0.095 C 
BRANCH   7   8
ATOM      8  C   UNL     1       3.757   1.869  -0.126  0.00  0.00    -0.013 C 
BRANCH   8   9
ATOM      9  N   UNL     1       2.431   1.247  -0.251  0.00  0.00    +0.386 N 
ATOM     10  C   UNL     1       2.571  -0.208  -0.513  0.00  0.00    -0.078 C 
ATOM     11  C   UNL     1       1.204  -0.782  -0.062  0.00  0.00    -0.020 C 
ATOM     12  C   UNL     1       0.865   0.070   1.183  0.00  0.00    -0.020 C 
ATOM     13  C   UNL     1       1.694   1.359   1.026  0.00  0.00    -0.078 C 
ATOM     14  H   UNL     1       1.909   1.687  -0.994  0.00  0.00    -0.081 HD
ENDBRANCH   8   9
BRANCH   8  17
ATOM     15  C   UNL     1       4.014   5.323   1.459  0.00  0.00    +0.008 A 
ATOM     16  C   UNL     1       4.345   4.006   1.204  0.00  0.00    +0.009 A 
ATOM     17  C   UNL     1       3.600   3.301   0.317  0.00  0.00    -0.022 A 
ATOM     18  S   UNL     1       2.387   4.508  -0.189  0.00  0.00    -0.103 S 
ATOM     19  C   UNL     1       2.954   5.871   0.815  0.00  0.00    +0.045 A 
ENDBRANCH   8  17
ENDBRANCH   7   8
ENDBRANCH   1   7
BRANCH   4  20
ATOM     20  C   UNL     1       8.718   3.152  -3.461  0.00  0.00    +0.202 C 
BRANCH  20  21
ATOM     21  C   UNL     1      10.059   3.696  -3.038  0.00  0.00    +0.234 C 
ATOM     22  O   UNL     1      10.281   3.919  -1.867  0.00  0.00    -0.274 OA
ATOM     23  N   UNL     1      11.011   3.934  -3.962  0.00  0.00    -0.284 N 
ATOM     24  H   UNL     1      10.859   3.691  -4.888  0.00  0.00    +0.155 HD
BRANCH  23  25
ATOM     25  C   UNL     1      12.218   4.534  -3.584  0.00  0.00    +0.034 A 
ATOM     26  C   UNL     1      12.852   5.422  -4.443  0.00  0.00    +0.025 A 
ATOM     27  C   UNL     1      14.043   6.012  -4.068  0.00  0.00    +0.022 A 
ATOM     28  C   UNL     1      14.605   5.718  -2.837  0.00  0.00    +0.041 A 
ATOM     29  C   UNL     1      13.975   4.833  -1.980  0.00  0.00    +0.022 A 
ATOM     30  C   UNL     1      12.781   4.245  -2.348  0.00  0.00    +0.025 A 
ATOM     31 CL   UNL     1      16.102   6.461  -2.369  0.00  0.00    -0.084 Cl
ENDBRANCH  23  25
ENDBRANCH  20  21
ENDBRANCH   4  20
TORSDOF 7
