REMARK  Name = ZINC64720977
REMARK  9 active torsions:
REMARK  status: ('A' for Active; 'I' for Inactive)
REMARK    1  A    between atoms: C_1  and  C_2
REMARK    2  A    between atoms: C_2  and  C_4
REMARK    3  A    between atoms: C_2  and  N_17
REMARK    4  A    between atoms: N_6  and  C_7
REMARK    5  A    between atoms: C_7  and  C_8
REMARK    6  A    between atoms: N_17  and  C_18
REMARK    7  A    between atoms: C_18  and  C_19
REMARK    8  A    between atoms: C_19  and  C_21
REMARK    9  A    between atoms: C_19  and  C_27
REMARK                            x       y       z     vdW  Elec       q    Type
REMARK                         _______ _______ _______ _____ _____    ______ ____
ROOT
ATOM      1  N   UNL     1       0.800  -0.269  -1.218  0.00  0.00    +0.387 N 
ATOM      2  H   UNL     1       1.766   0.021  -1.248  0.00  0.00    -0.085 HD
ATOM      3  H   UNL     1       0.752  -1.276  -1.183  0.00  0.00    -0.085 HD
ENDROOT
BRANCH   1   5
ATOM      4  C   UNL     1       0.338   1.813  -0.014  0.00  0.00    -0.004 C 
ATOM      5  C   UNL     1       0.157   0.294  -0.023  0.00  0.00    +0.013 C 
BRANCH   5   6
ATOM      6  C   UNL     1       0.788  -0.295   1.212  0.00  0.00    +0.199 C 
ATOM      7  O   UNL     1       1.686  -1.104   1.107  0.00  0.00    -0.278 OA
ATOM      8  N   UNL     1       0.356   0.077   2.433  0.00  0.00    -0.313 N 
ATOM      9  H   UNL     1      -0.362   0.724   2.517  0.00  0.00    +0.149 HD
BRANCH   8  10
ATOM     10  C   UNL     1       0.970  -0.495   3.634  0.00  0.00    +0.139 C 
BRANCH  10  11
ATOM     11  C   UNL     1       0.310   0.082   4.859  0.00  0.00    -0.027 A 
ATOM     12  C   UNL     1       0.807   1.239   5.430  0.00  0.00    +0.009 A 
ATOM     13  C   UNL     1       0.205   1.773   6.554  0.00  0.00    +0.050 A 
ATOM     14  C   UNL     1      -0.899   1.149   7.112  0.00  0.00    +0.166 A 
ATOM     15  C   UNL     1      -1.400  -0.017   6.537  0.00  0.00    +0.167 A 
ATOM     16  C   UNL     1      -0.795  -0.543   5.407  0.00  0.00    +0.054 A 
ATOM     17  O   UNL     1      -2.478  -0.433   7.263  0.00  0.00    -0.453 OA
ATOM     18  C   UNL     1      -2.384   0.259   8.522  0.00  0.00    +0.466 C 
ATOM     19  O   UNL     1      -1.663   1.463   8.198  0.00  0.00    -0.453 OA
ENDBRANCH  10  11
ENDBRANCH   8  10
ENDBRANCH   5   6
ENDBRANCH   1   5
BRANCH   1  20
ATOM     20  C   UNL     1       0.106   0.212  -2.420  0.00  0.00    -0.073 C 
BRANCH  20  21
ATOM     21  C   UNL     1       0.690  -0.476  -3.655  0.00  0.00    +0.014 C 
BRANCH  21  22
ATOM     22  C   UNL     1       2.126  -0.054  -3.835  0.00  0.00    -0.039 C 
ATOM     23  C   UNL     1       3.214  -0.856  -3.845  0.00  0.00    -0.001 A 
ATOM     24  C   UNL     1       3.381  -2.307  -3.698  0.00  0.00    +0.010 A 
ATOM     25  C   UNL     1       4.626  -2.833  -3.753  0.00  0.00    +0.001 A 
ATOM     26  C   UNL     1       5.758  -2.030  -3.947  0.00  0.00    +0.002 A 
ATOM     27  C   UNL     1       5.685  -0.689  -4.090  0.00  0.00    +0.026 A 
ATOM     28  C   UNL     1       4.425  -0.030  -4.049  0.00  0.00    +0.043 A 
ATOM     29  N   UNL     1       4.098   1.235  -4.160  0.00  0.00    -0.380 N 
ATOM     30  C   UNL     1       2.640   1.353  -4.045  0.00  0.00    +0.145 C 
ATOM     31  H   UNL     1       4.716   1.969  -4.299  0.00  0.00    +0.160 HD
ENDBRANCH  21  22
BRANCH  21  32
ATOM     32  C   UNL     1      -0.117  -0.075  -4.892  0.00  0.00    +0.060 C 
ATOM     33  C   UNL     1      -1.546  -0.680  -4.859  0.00  0.00    +0.042 C 
ATOM     34  C   UNL     1      -1.965  -1.121  -6.224  0.00  0.00    -0.019 C 
ATOM     35  C   UNL     1      -1.057  -1.306  -7.162  0.00  0.00    +0.036 C 
ATOM     36  S   UNL     1       0.512  -0.910  -6.409  0.00  0.00    -0.129 S 
ENDBRANCH  21  32
ENDBRANCH  20  21
ENDBRANCH   1  20
TORSDOF 8
