REMARK  Name = ZINC19499323
REMARK  8 active torsions:
REMARK  status: ('A' for Active; 'I' for Inactive)
REMARK    1  A    between atoms: C_1  and  C_2
REMARK    2  A    between atoms: C_2  and  C_3
REMARK    3  A    between atoms: N_5  and  C_6
REMARK    4  A    between atoms: C_9  and  C_12
REMARK    5  A    between atoms: C_12  and  C_14
REMARK    6  A    between atoms: C_12  and  O_33
REMARK    7  A    between atoms: C_14  and  N_15
REMARK    8  A    between atoms: C_22  and  O_32
REMARK                            x       y       z     vdW  Elec       q    Type
REMARK                         _______ _______ _______ _____ _____    ______ ____
ROOT
ATOM      1  N   UNL     1      -7.142   4.423  -1.235  0.00  0.00    +0.382 N 
ATOM      2  C   UNL     1      -7.257   5.389  -0.136  0.00  0.00    -0.075 C 
ATOM      3  C   UNL     1      -8.722   5.803   0.029  0.00  0.00    +0.029 C 
ATOM      4  C   UNL     1      -9.222   6.421  -1.278  0.00  0.00    +0.110 C 
ATOM      5  C   UNL     1      -9.043   5.416  -2.417  0.00  0.00    +0.029 C 
ATOM      6  C   UNL     1      -7.569   5.013  -2.509  0.00  0.00    -0.075 C 
ATOM      7  C   UNL     1     -10.706   6.780  -1.139  0.00  0.00    +0.084 C 
ATOM      8  C   UNL     1     -11.205   7.298  -2.490  0.00  0.00    +0.152 C 
ATOM      9  C   UNL     1     -10.244   8.330  -3.024  0.00  0.00    +0.025 A 
ATOM     10  C   UNL     1     -10.677   9.189  -4.021  0.00  0.00    +0.048 A 
ATOM     11  C   UNL     1      -9.820  10.143  -4.540  0.00  0.00    +0.124 A 
ATOM     12  C   UNL     1      -8.524  10.241  -4.062  0.00  0.00    +0.042 A 
ATOM     13  C   UNL     1      -8.091   9.387  -3.068  0.00  0.00    +0.049 A 
ATOM     14  C   UNL     1      -8.951   8.428  -2.543  0.00  0.00    +0.127 A 
ATOM     15  O   UNL     1      -8.488   7.611  -1.561  0.00  0.00    -0.485 OA
ATOM     16  F   UNL     1     -10.247  10.979  -5.512  0.00  0.00    -0.205 F 
ATOM     17  H   UNL     1      -7.814   3.581  -1.013  0.00  0.00    -0.082 HD
ENDROOT
BRANCH   8  18
ATOM     18  O   UNL     1     -12.495   7.889  -2.326  0.00  0.00    -0.387 OA
ATOM     19  H   UNL     1     -13.018   8.319  -3.193  0.00  0.00    +0.210 HD
ENDBRANCH   8  18
BRANCH   1  20
ATOM     20  C   UNL     1      -5.774   3.896  -1.331  0.00  0.00    -0.042 C 
BRANCH  20  21
ATOM     21  C   UNL     1      -5.748   2.718  -2.307  0.00  0.00    +0.128 C 
BRANCH  21  25
ATOM     22  C   UNL     1      -1.776   1.161  -2.557  0.00  0.00    +0.033 A 
ATOM     23  C   UNL     1      -2.630   0.731  -1.550  0.00  0.00    +0.023 A 
ATOM     24  C   UNL     1      -3.911   1.240  -1.468  0.00  0.00    +0.008 A 
ATOM     25  C   UNL     1      -4.348   2.169  -2.395  0.00  0.00    -0.021 A 
ATOM     26  C   UNL     1      -3.502   2.595  -3.403  0.00  0.00    +0.008 A 
ATOM     27  C   UNL     1      -2.217   2.094  -3.486  0.00  0.00    +0.023 A 
BRANCH  22  30
ATOM     28  C   UNL     1       0.534   1.444  -3.052  0.00  0.00    +0.217 C 
ATOM     29  O   UNL     1       0.303   2.574  -3.429  0.00  0.00    -0.275 OA
ATOM     30  N   UNL     1      -0.475   0.652  -2.639  0.00  0.00    -0.286 N 
ATOM     31  H   UNL     1      -0.276  -0.395  -2.366  0.00  0.00    +0.155 HD
BRANCH  28  33
ATOM     32  C   UNL     1       2.893   2.017  -3.557  0.00  0.00    +0.013 C 
ATOM     33  C   UNL     1       1.949   0.927  -3.045  0.00  0.00    +0.093 C 
ENDBRANCH  28  33
ENDBRANCH  22  30
ENDBRANCH  21  25
BRANCH  21  34
ATOM     34  O   UNL     1      -6.632   1.695  -1.842  0.00  0.00    -0.389 OA
ATOM     35  H   UNL     1      -7.703   1.911  -1.714  0.00  0.00    +0.210 HD
ENDBRANCH  21  34
ENDBRANCH  20  21
ENDBRANCH   1  20
TORSDOF 7
