REMARK  Name = ZINC37767026
REMARK  6 active torsions:
REMARK  status: ('A' for Active; 'I' for Inactive)
REMARK    1  A    between atoms: C_1  and  C_2
REMARK    2  A    between atoms: C_6  and  O_18
REMARK    3  A    between atoms: C_7  and  N_8
REMARK    4  A    between atoms: C_9  and  C_11
REMARK    5  A    between atoms: C_14  and  N_17
REMARK    6  A    between atoms: O_18  and  C_19
REMARK                            x       y       z     vdW  Elec       q    Type
REMARK                         _______ _______ _______ _____ _____    ______ ____
ROOT
ATOM      1  N   UNL     1       0.025  -0.011   2.418  0.00  0.00    -0.282 N 
ATOM      2  C   UNL     1      -0.355  -0.637   3.549  0.00  0.00    +0.220 C 
ATOM      3  O   UNL     1      -0.612  -1.823   3.530  0.00  0.00    -0.275 OA
ATOM      4  H   UNL     1       0.301   0.918   2.447  0.00  0.00    +0.155 HD
ENDROOT
BRANCH   1  11
ATOM      5  C   UNL     1       2.458  -1.190   1.534  0.00  0.00    +0.046 C 
ATOM      6  C   UNL     1       1.187  -1.293   0.732  0.00  0.00    -0.025 A 
ATOM      7  C   UNL     1       1.181  -1.980  -0.468  0.00  0.00    +0.020 A 
ATOM      8  C   UNL     1       0.016  -2.077  -1.207  0.00  0.00    +0.022 A 
ATOM      9  C   UNL     1      -1.149  -1.487  -0.749  0.00  0.00    +0.062 A 
ATOM     10  C   UNL     1      -1.150  -0.797   0.452  0.00  0.00    +0.142 A 
ATOM     11  C   UNL     1       0.022  -0.704   1.199  0.00  0.00    +0.079 A 
ATOM     12 BR   UNL     1       0.015  -3.017  -2.848  0.00  0.00    -0.050 Br
BRANCH  10  13
ATOM     13  O   UNL     1      -2.294  -0.215   0.902  0.00  0.00    -0.493 OA
ATOM     14  C   UNL     1      -3.458  -0.356   0.086  0.00  0.00    +0.277 C 
ENDBRANCH  10  13
ENDBRANCH   1  11
BRANCH   2  15
ATOM     15  C   UNL     1      -0.461   0.135   4.838  0.00  0.00    +0.075 C 
ATOM     16  C   UNL     1       0.903   0.734   5.188  0.00  0.00    +0.011 C 
ATOM     17  C   UNL     1       1.927  -0.390   5.350  0.00  0.00    -0.016 C 
ATOM     18  C   UNL     1       1.480  -1.329   6.472  0.00  0.00    -0.075 C 
ATOM     19  C   UNL     1       0.117  -1.929   6.123  0.00  0.00    -0.016 C 
ATOM     20  C   UNL     1      -0.908  -0.804   5.961  0.00  0.00    +0.011 C 
BRANCH  18  21
ATOM     21  N   UNL     1       2.464  -2.409   6.628  0.00  0.00    +0.380 N 
ATOM     22  H   UNL     1       3.364  -2.014   6.858  0.00  0.00    -0.090 HD
ATOM     23  H   UNL     1       2.170  -3.029   7.368  0.00  0.00    -0.090 HD
ATOM     24  H   UNL     1       2.535  -2.927   5.764  0.00  0.00    -0.090 HD
ENDBRANCH  18  21
ENDBRANCH   2  15
TORSDOF 4
