REMARK  Name = ZINC13052821
REMARK  9 active torsions:
REMARK  status: ('A' for Active; 'I' for Inactive)
REMARK    1  A    between atoms: C_1  and  C_2
REMARK    2  A    between atoms: C_5  and  N_9
REMARK    3  A    between atoms: C_6  and  C_8
REMARK    4  A    between atoms: C_10  and  C_12
REMARK    5  A    between atoms: C_12  and  S_13
REMARK    6  A    between atoms: S_13  and  C_14
REMARK    7  A    between atoms: C_18  and  C_32
REMARK    8  A    between atoms: N_24  and  C_25
REMARK    9  A    between atoms: C_25  and  C_26
REMARK                            x       y       z     vdW  Elec       q    Type
REMARK                         _______ _______ _______ _____ _____    ______ ____
ROOT
ATOM      1  C   UNL     1       0.003  -0.005   0.033  0.00  0.00    +0.173 A 
ATOM      2  N   UNL     1       1.111  -0.705   0.025  0.00  0.00    -0.223 NA
ATOM      3  C   UNL     1       2.326  -0.108   0.027  0.00  0.00    +0.080 A 
ATOM      4  C   UNL     1       3.506  -0.857   0.018  0.00  0.00    +0.043 A 
ATOM      5  C   UNL     1       4.731  -0.201   0.020  0.00  0.00    +0.065 A 
ATOM      6  C   UNL     1       4.787   1.199   0.032  0.00  0.00    +0.016 A 
ATOM      7  C   UNL     1       3.641   1.940   0.041  0.00  0.00    +0.016 A 
ATOM      8  C   UNL     1       2.401   1.303   0.039  0.00  0.00    +0.065 A 
ATOM      9  C   UNL     1       1.141   2.064   0.049  0.00  0.00    +0.262 A 
ATOM     10  O   UNL     1       1.139   3.281   0.059  0.00  0.00    -0.267 OA
ATOM     11  N   UNL     1      -0.015   1.361   0.045  0.00  0.00    -0.285 N 
ENDROOT
BRANCH   5  12
ATOM     12  C   UNL     1       5.985  -0.987   0.011  0.00  0.00    +0.387 C 
ATOM     13  O   UNL     1       5.941  -2.200   0.000  0.00  0.00    -0.241 OA
ATOM     14  O   UNL     1       7.175  -0.356   0.013  0.00  0.00    -0.241 OA
ENDBRANCH   5  12
BRANCH   1  15
ATOM     15  S   UNL     1      -1.534  -0.865   0.029  0.00  0.00    -0.078 S 
BRANCH  15  16
ATOM     16  C   UNL     1      -0.938  -2.574   0.012  0.00  0.00    +0.173 C 
BRANCH  16  18
ATOM     17  N   UNL     1      -1.910  -4.849  -0.006  0.00  0.00    -0.285 N 
ATOM     18  C   UNL     1      -2.114  -3.517   0.007  0.00  0.00    +0.227 C 
ATOM     19  O   UNL     1      -3.244  -3.076   0.013  0.00  0.00    -0.275 OA
ATOM     20  H   UNL     1      -1.010  -5.201  -0.092  0.00  0.00    +0.155 HD
BRANCH  17  25
ATOM     21  C   UNL     1      -6.313  -8.397   0.445  0.00  0.00    +0.044 C 
ATOM     22  C   UNL     1      -5.143  -7.455   0.326  0.00  0.00    -0.050 A 
ATOM     23  C   UNL     1      -5.236  -6.171   0.833  0.00  0.00    +0.005 A 
ATOM     24  C   UNL     1      -4.166  -5.305   0.725  0.00  0.00    +0.024 A 
ATOM     25  C   UNL     1      -2.996  -5.724   0.106  0.00  0.00    +0.036 A 
ATOM     26  C   UNL     1      -2.908  -7.011  -0.408  0.00  0.00    -0.029 A 
ATOM     27  C   UNL     1      -3.980  -7.874  -0.291  0.00  0.00    +0.008 A 
ATOM     28  C   UNL     1      -1.642  -7.467  -1.087  0.00  0.00    +0.045 C 
ENDBRANCH  17  25
ENDBRANCH  16  18
ENDBRANCH  15  16
ENDBRANCH   1  15
BRANCH  11  29
ATOM     29  C   UNL     1      -1.297   2.070   0.049  0.00  0.00    +0.159 C 
BRANCH  29  30
ATOM     30  C   UNL     1      -1.746   2.304   1.492  0.00  0.00    +0.138 C 
ATOM     31  C   UNL     1      -3.135   2.991   1.518  0.00  0.00    +0.035 C 
ATOM     32  C   UNL     1      -3.656   2.550   2.913  0.00  0.00    +0.031 C 
ATOM     33  C   UNL     1      -3.054   1.136   3.056  0.00  0.00    +0.160 C 
ATOM     34  O   UNL     1      -1.936   1.049   2.165  0.00  0.00    -0.375 OA
ENDBRANCH  29  30
ENDBRANCH  11  29
TORSDOF 7
