REMARK  Name = ZINC43289515
REMARK  8 active torsions:
REMARK  status: ('A' for Active; 'I' for Inactive)
REMARK    1  A    between atoms: C_1  and  C_2
REMARK    2  A    between atoms: C_2  and  C_3
REMARK    3  A    between atoms: C_3  and  C_5
REMARK    4  A    between atoms: C_3  and  N_23
REMARK    5  A    between atoms: C_5  and  C_7
REMARK    6  A    between atoms: C_5  and  O_13
REMARK    7  A    between atoms: O_13  and  C_14
REMARK    8  A    between atoms: C_17  and  C_20
REMARK                            x       y       z     vdW  Elec       q    Type
REMARK                         _______ _______ _______ _____ _____    ______ ____
ROOT
ATOM      1  C   UNL     1       0.634  -2.037  -1.331  0.00  0.00    +0.196 C 
ENDROOT
BRANCH   1   2
ATOM      2  C   UNL     1       1.356  -2.618  -2.519  0.00  0.00    +0.029 A 
ATOM      3  C   UNL     1       2.593  -3.169  -2.581  0.00  0.00    +0.030 A 
ATOM      4  C   UNL     1       3.055  -3.643  -3.795  0.00  0.00    +0.025 A 
ATOM      5  C   UNL     1       2.257  -3.543  -4.887  0.00  0.00    +0.060 A 
ATOM      6  S   UNL     1       0.800  -2.766  -4.209  0.00  0.00    -0.097 S 
ATOM      7 BR   UNL     1       4.774  -4.420  -3.930  0.00  0.00    -0.050 Br
ENDBRANCH   1   2
BRANCH   1   8
ATOM      8  C   UNL     1       0.741  -0.511  -1.365  0.00  0.00    -0.029 C 
BRANCH   8   9
ATOM      9  N   UNL     1       2.156  -0.118  -1.319  0.00  0.00    +0.383 N 
ATOM     10  H   UNL     1       2.574  -0.466  -0.469  0.00  0.00    -0.089 HD
ATOM     11  H   UNL     1       2.639  -0.507  -2.115  0.00  0.00    -0.089 HD
ATOM     12  H   UNL     1       2.226   0.888  -1.342  0.00  0.00    -0.089 HD
ENDBRANCH   8   9
BRANCH   8  14
ATOM     13  C   UNL     1       0.008   1.605  -0.258  0.00  0.00    +0.002 C 
ATOM     14  C   UNL     1       0.009   0.078  -0.158  0.00  0.00    -0.016 C 
ENDBRANCH   8  14
ENDBRANCH   1   8
BRANCH   1  15
ATOM     15  O   UNL     1      -0.742  -2.420  -1.375  0.00  0.00    -0.485 OA
BRANCH  15  16
ATOM     16  C   UNL     1      -1.329  -2.747  -0.196  0.00  0.00    +0.121 A 
ATOM     17  C   UNL     1      -2.626  -3.246  -0.182  0.00  0.00    +0.046 A 
ATOM     18  C   UNL     1      -3.225  -3.579   1.012  0.00  0.00    +0.016 A 
ATOM     19  C   UNL     1      -2.527  -3.416   2.211  0.00  0.00    +0.037 A 
ATOM     20  C   UNL     1      -1.222  -2.914   2.193  0.00  0.00    +0.016 A 
ATOM     21  C   UNL     1      -0.629  -2.588   0.995  0.00  0.00    +0.046 A 
BRANCH  19  22
ATOM     22  C   UNL     1      -3.165  -3.771   3.494  0.00  0.00    +0.242 C 
ATOM     23  O   UNL     1      -4.300  -4.207   3.508  0.00  0.00    -0.270 OA
ATOM     24  N   UNL     1      -2.490  -3.613   4.649  0.00  0.00    -0.325 N 
ATOM     25  H   UNL     1      -1.584  -3.265   4.638  0.00  0.00    +0.145 HD
ATOM     26  H   UNL     1      -2.909  -3.846   5.492  0.00  0.00    +0.145 HD
ENDBRANCH  19  22
ENDBRANCH  15  16
ENDBRANCH   1  15
TORSDOF 7
