REMARK  Name = ZINC08492741
REMARK  10 active torsions:
REMARK  status: ('A' for Active; 'I' for Inactive)
REMARK    1  A    between atoms: C_1  and  C_2
REMARK    2  A    between atoms: C_2  and  C_4
REMARK    3  A    between atoms: C_2  and  N_18
REMARK    4  A    between atoms: N_6  and  C_7
REMARK    5  A    between atoms: C_8  and  C_15
REMARK    6  A    between atoms: N_18  and  C_19
REMARK    7  A    between atoms: N_18  and  C_20
REMARK    8  A    between atoms: C_20  and  C_21
REMARK    9  A    between atoms: C_25  and  O_27
REMARK   10  A    between atoms: O_27  and  C_28
REMARK                            x       y       z     vdW  Elec       q    Type
REMARK                         _______ _______ _______ _____ _____    ______ ____
ROOT
ATOM      1  C   UNL     1       0.505  -0.310   1.319  0.00  0.00    +0.204 C 
ATOM      2  O   UNL     1       1.461  -1.055   1.351  0.00  0.00    -0.277 OA
ATOM      3  N   UNL     1      -0.006   0.181   2.465  0.00  0.00    -0.281 N 
ATOM      4  H   UNL     1      -0.770   0.777   2.440  0.00  0.00    +0.155 HD
ENDROOT
BRANCH   3   5
ATOM      5  C   UNL     1       0.562  -0.166   3.682  0.00  0.00    +0.084 A 
ATOM      6  C   UNL     1       0.172   0.233   4.947  0.00  0.00    +0.068 A 
ATOM      7  C   UNL     1       0.944  -0.280   6.078  0.00  0.00    -0.023 A 
ATOM      8  C   UNL     1       1.958  -1.091   5.728  0.00  0.00    -0.004 A 
ATOM      9  S   UNL     1       1.875  -1.173   3.957  0.00  0.00    -0.077 S 
ATOM     10  C   UNL     1       2.720  -1.586   6.927  0.00  0.00    +0.043 C 
ATOM     11  C   UNL     1       2.311  -0.631   8.071  0.00  0.00    +0.010 C 
ATOM     12  C   UNL     1       0.923  -0.152   7.600  0.00  0.00    +0.037 C 
BRANCH   6  13
ATOM     13  C   UNL     1      -0.968   1.133   5.146  0.00  0.00    +0.244 C 
ATOM     14  O   UNL     1      -2.086   0.675   5.292  0.00  0.00    -0.270 OA
ATOM     15  N   UNL     1      -0.777   2.467   5.167  0.00  0.00    -0.325 N 
ATOM     16  H   UNL     1       0.114   2.831   5.050  0.00  0.00    +0.145 HD
ATOM     17  H   UNL     1      -1.531   3.062   5.298  0.00  0.00    +0.145 HD
ENDBRANCH   6  13
ENDBRANCH   3   5
BRANCH   1  19
ATOM     18  C   UNL     1       0.513   1.371  -0.504  0.00  0.00    -0.004 C 
ATOM     19  C   UNL     1      -0.113   0.068  -0.003  0.00  0.00    +0.016 C 
BRANCH  19  20
ATOM     20  N   UNL     1       0.133  -1.001  -0.981  0.00  0.00    +0.388 N 
ATOM     21  C   UNL     1      -0.424  -0.610  -2.283  0.00  0.00    -0.095 C 
ATOM     22  H   UNL     1       1.126  -1.152  -1.072  0.00  0.00    -0.081 HD
BRANCH  20  23
ATOM     23  C   UNL     1      -0.512  -2.240  -0.525  0.00  0.00    -0.042 C 
BRANCH  23  24
ATOM     24  C   UNL     1      -0.143  -3.369  -1.452  0.00  0.00    -0.060 A 
ATOM     25  C   UNL     1      -0.927  -3.636  -2.560  0.00  0.00    +0.002 A 
ATOM     26  C   UNL     1      -0.592  -4.671  -3.413  0.00  0.00    +0.004 A 
ATOM     27  C   UNL     1       0.527  -5.441  -3.160  0.00  0.00    +0.045 A 
ATOM     28  C   UNL     1       1.314  -5.175  -2.050  0.00  0.00    +0.120 A 
ATOM     29  C   UNL     1       0.979  -4.132  -1.199  0.00  0.00    +0.047 A 
BRANCH  28  30
ATOM     30  O   UNL     1       2.415  -5.931  -1.799  0.00  0.00    -0.495 OA
ATOM     31  C   UNL     1       2.703  -6.985  -2.721  0.00  0.00    +0.277 C 
ENDBRANCH  28  30
ENDBRANCH  23  24
ENDBRANCH  20  23
ENDBRANCH  19  20
ENDBRANCH   1  19
TORSDOF 7
