REMARK  Name = ZINC38547559
REMARK  9 active torsions:
REMARK  status: ('A' for Active; 'I' for Inactive)
REMARK    1  A    between atoms: C_1  and  C_2
REMARK    2  A    between atoms: C_6  and  N_8
REMARK    3  A    between atoms: N_8  and  C_9
REMARK    4  A    between atoms: C_9  and  C_11
REMARK    5  A    between atoms: C_9  and  C_18
REMARK    6  A    between atoms: C_19  and  C_32
REMARK    7  A    between atoms: C_20  and  C_31
REMARK    8  A    between atoms: C_22  and  N_23
REMARK    9  A    between atoms: C_24  and  C_26
REMARK                            x       y       z     vdW  Elec       q    Type
REMARK                         _______ _______ _______ _____ _____    ______ ____
ROOT
ATOM      1  C   UNL     1       0.383  -4.467   2.327  0.00  0.00    +0.135 C 
ENDROOT
BRANCH   1   2
ATOM      2  C   UNL     1       1.701  -5.183   2.474  0.00  0.00    -0.023 A 
ATOM      3  C   UNL     1       2.717  -4.612   3.218  0.00  0.00    +0.007 A 
ATOM      4  C   UNL     1       3.926  -5.268   3.354  0.00  0.00    +0.020 A 
ATOM      5  C   UNL     1       4.119  -6.495   2.746  0.00  0.00    +0.041 A 
ATOM      6  C   UNL     1       3.102  -7.066   2.002  0.00  0.00    +0.020 A 
ATOM      7  C   UNL     1       1.891  -6.412   1.871  0.00  0.00    +0.007 A 
ATOM      8 CL   UNL     1       5.638  -7.319   2.915  0.00  0.00    -0.084 Cl
ENDBRANCH   1   2
BRANCH   1   9
ATOM      9  C   UNL     1      -0.544  -4.886   3.439  0.00  0.00    +0.009 A 
ATOM     10  C   UNL     1      -1.616  -5.722   3.185  0.00  0.00    -0.033 A 
ATOM     11  C   UNL     1      -2.429  -6.080   4.207  0.00  0.00    -0.008 A 
ATOM     12  S   UNL     1      -1.687  -5.228   5.590  0.00  0.00    -0.078 S 
ATOM     13  C   UNL     1      -0.337  -4.454   4.714  0.00  0.00    +0.078 A 
ATOM     14  C   UNL     1      -3.647  -6.967   4.184  0.00  0.00    +0.052 C 
ATOM     15  C   UNL     1      -1.877  -6.226   1.789  0.00  0.00    +0.045 C 
BRANCH  13  16
ATOM     16  N   UNL     1       0.668  -3.620   5.208  0.00  0.00    -0.273 N 
ATOM     17  C   UNL     1       0.769  -3.398   6.534  0.00  0.00    +0.284 C 
ATOM     18  O   UNL     1      -0.017  -3.924   7.300  0.00  0.00    -0.266 OA
ATOM     19  H   UNL     1       1.295  -3.201   4.597  0.00  0.00    +0.156 HD
BRANCH  17  20
ATOM     20  C   UNL     1       1.825  -2.522   7.052  0.00  0.00    +0.189 A 
ATOM     21  C   UNL     1       2.042  -2.218   8.366  0.00  0.00    +0.054 A 
ATOM     22  C   UNL     1       3.148  -1.354   8.402  0.00  0.00    +0.042 A 
ATOM     23  C   UNL     1       3.552  -1.172   7.126  0.00  0.00    +0.196 A 
ATOM     24  O   UNL     1       2.756  -1.881   6.316  0.00  0.00    -0.458 OA
ENDBRANCH  17  20
ENDBRANCH  13  16
ENDBRANCH   1   9
BRANCH   1  25
ATOM     25  N   UNL     1       0.602  -3.020   2.393  0.00  0.00    -0.320 N 
ATOM     26  H   UNL     1       0.324  -2.523   3.178  0.00  0.00    +0.148 HD
BRANCH  25  32
ATOM     27  C   UNL     1       2.176   1.102   0.536  0.00  0.00    +0.063 C 
ATOM     28  C   UNL     1       1.977  -0.387   0.412  0.00  0.00    +0.014 A 
ATOM     29  C   UNL     1       2.395  -1.037  -0.732  0.00  0.00    +0.021 A 
ATOM     30  C   UNL     1       2.209  -2.409  -0.841  0.00  0.00    +0.005 A 
ATOM     31  C   UNL     1       1.606  -3.079   0.209  0.00  0.00    +0.041 A 
ATOM     32  C   UNL     1       1.209  -2.360   1.332  0.00  0.00    +0.097 A 
ATOM     33  N   UNL     1       1.409  -1.052   1.400  0.00  0.00    -0.347 N 
ATOM     34  H   UNL     1       1.129  -0.572   2.194  0.00  0.00    +0.167 HD
ENDBRANCH  25  32
ENDBRANCH   1  25
TORSDOF 6
