REMARK  Name = ZINC12454951
REMARK  7 active torsions:
REMARK  status: ('A' for Active; 'I' for Inactive)
REMARK    1  A    between atoms: C_6  and  C_7
REMARK    2  A    between atoms: C_7  and  N_8
REMARK    3  A    between atoms: C_12  and  C_15
REMARK    4  A    between atoms: C_12  and  O_23
REMARK    5  A    between atoms: C_15  and  N_51
REMARK    6  A    between atoms: C_16  and  N_51
REMARK    7  A    between atoms: C_19  and  O_22
REMARK                            x       y       z     vdW  Elec       q    Type
REMARK                         _______ _______ _______ _____ _____    ______ ____
ROOT
ATOM      1  N   UNL     1      -1.186  -3.607  -1.382  0.00  0.00    -0.295 N 
ATOM      2  C   UNL     1      -2.197  -4.462  -0.772  0.00  0.00    +0.108 C 
ATOM      3  C   UNL     1      -2.241  -4.244   0.741  0.00  0.00    +0.022 C 
ATOM      4  C   UNL     1      -2.353  -2.740   1.017  0.00  0.00    +0.044 C 
ATOM      5  C   UNL     1      -1.046  -2.070   0.583  0.00  0.00    +0.127 C 
ATOM      6  C   UNL     1      -0.675  -2.521  -0.800  0.00  0.00    +0.246 C 
ATOM      7  O   UNL     1       0.132  -1.863  -1.421  0.00  0.00    -0.273 OA
ENDROOT
BRANCH   5   8
ATOM      8  O   UNL     1      -0.006  -2.428   1.495  0.00  0.00    -0.381 OA
ATOM      9  H   UNL     1       0.853  -2.036   1.285  0.00  0.00    +0.211 HD
ENDBRANCH   5   8
BRANCH   1  10
ATOM     10  C   UNL     1      -0.700  -3.963  -2.717  0.00  0.00    +0.143 C 
BRANCH  10  16
ATOM     11  C   UNL     1       1.765  -4.349  -2.528  0.00  0.00    +0.008 A 
ATOM     12  C   UNL     1       2.857  -5.189  -2.407  0.00  0.00    +0.038 A 
ATOM     13  C   UNL     1       2.673  -6.560  -2.362  0.00  0.00    +0.123 A 
ATOM     14  C   UNL     1       1.396  -7.089  -2.432  0.00  0.00    +0.038 A 
ATOM     15  C   UNL     1       0.305  -6.248  -2.547  0.00  0.00    +0.008 A 
ATOM     16  C   UNL     1       0.490  -4.879  -2.592  0.00  0.00    -0.030 A 
ATOM     17  F   UNL     1       3.740  -7.381  -2.251  0.00  0.00    -0.205 F 
ENDBRANCH  10  16
ENDBRANCH   1  10
BRANCH   5  18
ATOM     18  C   UNL     1      -1.228  -0.550   0.591  0.00  0.00    -0.037 C 
BRANCH  18  19
ATOM     19  N   UNL     1      -1.633  -0.118   1.941  0.00  0.00    +0.383 N 
ATOM     20  H   UNL     1      -0.869  -0.306   2.601  0.00  0.00    -0.085 HD
ATOM     21  H   UNL     1      -2.469  -0.642   2.228  0.00  0.00    -0.085 HD
BRANCH  19  22
ATOM     22  C   UNL     1      -1.937   1.325   1.948  0.00  0.00    -0.072 C 
ATOM     23  C   UNL     1      -0.644   2.118   2.150  0.00  0.00    -0.013 C 
ATOM     24  C   UNL     1      -0.962   3.615   2.165  0.00  0.00    +0.030 C 
ATOM     25  C   UNL     1      -1.931   3.919   3.309  0.00  0.00    +0.114 C 
ATOM     26  C   UNL     1      -3.223   3.126   3.107  0.00  0.00    +0.030 C 
ATOM     27  C   UNL     1      -2.906   1.629   3.092  0.00  0.00    -0.013 C 
BRANCH  25  28
ATOM     28  O   UNL     1      -2.227   5.317   3.324  0.00  0.00    -0.392 OA
ATOM     29  H   UNL     1      -1.452   5.882   3.448  0.00  0.00    +0.210 HD
ENDBRANCH  25  28
ENDBRANCH  19  22
ENDBRANCH  18  19
ENDBRANCH   5  18
TORSDOF 7
