REMARK  Name = ZINC36671589
REMARK  6 active torsions:
REMARK  status: ('A' for Active; 'I' for Inactive)
REMARK    1  A    between atoms: C_3  and  O_8
REMARK    2  A    between atoms: C_6  and  N_7
REMARK    3  A    between atoms: O_8  and  C_9
REMARK    4  A    between atoms: C_9  and  C_10
REMARK    5  A    between atoms: C_10  and  C_11
REMARK    6  A    between atoms: C_11  and  N_12
REMARK                            x       y       z     vdW  Elec       q    Type
REMARK                         _______ _______ _______ _____ _____    ______ ____
ROOT
ATOM      1  C   UNL     1       4.758   1.349  -0.036  0.00  0.00    +0.231 C 
ENDROOT
BRANCH   1   2
ATOM      2  O   UNL     1       3.549   2.110  -0.021  0.00  0.00    -0.492 OA
BRANCH   2   5
ATOM      3  C   UNL     1      -0.017   1.384   0.010  0.00  0.00    +0.026 A 
ATOM      4  C   UNL     1       1.170   2.091   0.002  0.00  0.00    +0.047 A 
ATOM      5  C   UNL     1       2.380   1.414  -0.013  0.00  0.00    +0.121 A 
ATOM      6  C   UNL     1       2.400   0.027  -0.021  0.00  0.00    +0.047 A 
ATOM      7  C   UNL     1       1.214  -0.681  -0.013  0.00  0.00    +0.026 A 
ATOM      8  C   UNL     1       0.002  -0.004   0.002  0.00  0.00    +0.025 A 
BRANCH   8   9
ATOM      9  N   UNL     1      -1.200  -0.721   0.010  0.00  0.00    -0.358 N 
ATOM     10  H   UNL     1      -2.047  -0.247   0.021  0.00  0.00    +0.142 HD
ATOM     11  H   UNL     1      -1.186  -1.690   0.005  0.00  0.00    +0.142 HD
ENDBRANCH   8   9
ENDBRANCH   2   5
ENDBRANCH   1   2
BRANCH   1  12
ATOM     12  C   UNL     1       5.958   2.297  -0.043  0.00  0.00    +0.063 C 
BRANCH  12  13
ATOM     13  C   UNL     1       7.253   1.482  -0.060  0.00  0.00    +0.128 C 
BRANCH  13  14
ATOM     14  N   UNL     1       8.402   2.391  -0.067  0.00  0.00    -0.314 N 
ATOM     15  C   UNL     1       8.913   2.817  -1.250  0.00  0.00    +0.104 A 
ATOM     16  C   UNL     1       9.975   3.658  -1.281  0.00  0.00    +0.034 A 
ATOM     17  C   UNL     1      10.556   4.095  -0.083  0.00  0.00    +0.022 A 
ATOM     18  C   UNL     1      10.041   3.665   1.105  0.00  0.00    +0.071 A 
ATOM     19  C   UNL     1       8.935   2.797   1.101  0.00  0.00    +0.251 A 
ATOM     20  O   UNL     1       8.461   2.409   2.156  0.00  0.00    -0.268 OA
ATOM     21 BR   UNL     1      10.673   4.240  -2.940  0.00  0.00    -0.049 Br
ENDBRANCH  13  14
ENDBRANCH  12  13
ENDBRANCH   1  12
TORSDOF 6
