REMARK  Name = ZINC20646075
REMARK  8 active torsions:
REMARK  status: ('A' for Active; 'I' for Inactive)
REMARK    1  A    between atoms: C_1  and  N_2
REMARK    2  A    between atoms: N_5  and  C_8
REMARK    3  A    between atoms: C_8  and  C_9
REMARK    4  A    between atoms: C_9  and  C_10
REMARK    5  A    between atoms: C_10  and  N_11
REMARK    6  A    between atoms: C_12  and  C_14
REMARK    7  A    between atoms: C_17  and  C_20
REMARK    8  A    between atoms: C_20  and  N_21
REMARK                            x       y       z     vdW  Elec       q    Type
REMARK                         _______ _______ _______ _____ _____    ______ ____
ROOT
ATOM      1  C   UNL     1       4.482  -8.201   3.444  0.00  0.00    +0.075 C 
ATOM      2  C   UNL     1       5.880  -7.618   3.228  0.00  0.00    +0.013 C 
ATOM      3  C   UNL     1       6.808  -8.087   4.351  0.00  0.00    +0.006 C 
ATOM      4  C   UNL     1       6.886  -9.615   4.342  0.00  0.00    +0.006 C 
ATOM      5  C   UNL     1       5.488 -10.199   4.558  0.00  0.00    +0.006 C 
ATOM      6  C   UNL     1       4.560  -9.729   3.435  0.00  0.00    +0.013 C 
ENDROOT
BRANCH   1   8
ATOM      7  N   UNL     1       3.347  -6.422   2.154  0.00  0.00    -0.315 N 
ATOM      8  C   UNL     1       3.569  -7.738   2.339  0.00  0.00    +0.216 C 
ATOM      9  O   UNL     1       3.033  -8.551   1.615  0.00  0.00    -0.276 OA
ATOM     10  H   UNL     1       3.776  -5.772   2.733  0.00  0.00    +0.149 HD
BRANCH   7  11
ATOM     11  C   UNL     1       2.459  -5.972   1.079  0.00  0.00    +0.105 C 
BRANCH  11  12
ATOM     12  C   UNL     1       2.381  -4.444   1.088  0.00  0.00    +0.034 C 
BRANCH  12  13
ATOM     13  C   UNL     1       1.453  -3.974  -0.034  0.00  0.00    +0.086 C 
BRANCH  13  18
ATOM     14  C   UNL     1      -0.018   1.465   0.010  0.00  0.00    -0.096 C 
ATOM     15  N   UNL     1       0.002  -0.004   0.002  0.00  0.00    +0.379 N 
ATOM     16  C   UNL     1       0.688  -0.477  -1.207  0.00  0.00    -0.064 C 
ATOM     17  C   UNL     1       0.693  -2.008  -1.226  0.00  0.00    +0.066 C 
ATOM     18  N   UNL     1       1.378  -2.507  -0.025  0.00  0.00    -0.306 NA
ATOM     19  C   UNL     1       0.717  -2.021   1.194  0.00  0.00    +0.066 C 
ATOM     20  C   UNL     1       0.713  -0.490   1.192  0.00  0.00    -0.064 C 
ATOM     21  H   UNL     1      -0.945  -0.353   0.010  0.00  0.00    -0.082 HD
ENDBRANCH  13  18
ENDBRANCH  12  13
ENDBRANCH  11  12
ENDBRANCH   7  11
ENDBRANCH   1   8
BRANCH   4  22
ATOM     22  C   UNL     1       7.813 -10.085   5.465  0.00  0.00    +0.106 C 
BRANCH  22  23
ATOM     23  N   UNL     1       7.983 -11.538   5.382  0.00  0.00    -0.328 N 
ATOM     24  C   UNL     1       8.777 -12.188   6.291  0.00  0.00    +0.131 A 
ATOM     25  C   UNL     1       8.964 -13.645   6.220  0.00  0.00    +0.038 A 
ATOM     26  C   UNL     1       8.349 -14.420   5.237  0.00  0.00    +0.013 A 
ATOM     27  C   UNL     1       8.559 -15.781   5.217  0.00  0.00    +0.001 A 
ATOM     28  C   UNL     1       9.375 -16.382   6.166  0.00  0.00    +0.002 A 
ATOM     29  C   UNL     1       9.989 -15.628   7.144  0.00  0.00    +0.026 A 
ATOM     30  C   UNL     1       9.790 -14.255   7.181  0.00  0.00    +0.052 A 
ATOM     31  N   UNL     1      10.385 -13.457   8.142  0.00  0.00    -0.333 N 
ATOM     32  H   UNL     1      10.959 -13.857   8.814  0.00  0.00    +0.168 HD
ATOM     33  C   UNL     1      10.169 -12.130   8.146  0.00  0.00    +0.179 A 
ATOM     34  S   UNL     1      10.927 -11.183   9.355  0.00  0.00    -0.011 S 
ATOM     35  N   UNL     1       9.398 -11.518   7.249  0.00  0.00    -0.207 NA
ATOM     36  H   UNL     1       7.533 -12.040   4.684  0.00  0.00    +0.147 HD
ENDBRANCH  22  23
ENDBRANCH   4  22
TORSDOF 7
