REMARK  Name = ZINC12218496
REMARK  8 active torsions:
REMARK  status: ('A' for Active; 'I' for Inactive)
REMARK    1  A    between atoms: C_3  and  C_6
REMARK    2  A    between atoms: N_8  and  C_9
REMARK    3  A    between atoms: N_8  and  C_18
REMARK    4  A    between atoms: C_9  and  C_10
REMARK    5  A    between atoms: C_10  and  C_11
REMARK    6  A    between atoms: C_18  and  C_19
REMARK    7  A    between atoms: C_27  and  N_28
REMARK    8  A    between atoms: C_31  and  O_34
REMARK                            x       y       z     vdW  Elec       q    Type
REMARK                         _______ _______ _______ _____ _____    ______ ____
ROOT
ATOM      1  C   UNL     1      -2.766   1.432  -1.301  0.00  0.00    +0.008 A 
ATOM      2  C   UNL     1      -1.677   1.969  -1.921  0.00  0.00    +0.018 A 
ATOM      3  C   UNL     1      -1.826   2.444  -3.239  0.00  0.00    -0.001 A 
ATOM      4  C   UNL     1      -0.746   3.009  -3.936  0.00  0.00    +0.011 A 
ATOM      5  C   UNL     1      -0.926   3.459  -5.208  0.00  0.00    +0.021 A 
ATOM      6  C   UNL     1      -2.170   3.364  -5.831  0.00  0.00    +0.043 A 
ATOM      7  C   UNL     1      -3.239   2.821  -5.184  0.00  0.00    +0.046 A 
ATOM      8  C   UNL     1      -3.091   2.347  -3.869  0.00  0.00    +0.049 A 
ATOM      9  C   UNL     1      -3.990   1.358  -1.980  0.00  0.00    +0.104 A 
ATOM     10 CL   UNL     1      -2.359   3.947  -7.455  0.00  0.00    -0.083 Cl
ATOM     11  N   UNL     1      -4.192   1.804  -3.245  0.00  0.00    -0.343 N 
ATOM     12  H   UNL     1      -5.107   1.741  -3.708  0.00  0.00    +0.167 HD
ENDROOT
BRANCH   9  13
ATOM     13  N   UNL     1      -5.088   0.804  -1.339  0.00  0.00    -0.316 N 
ATOM     14  C   UNL     1      -6.193   1.767  -1.259  0.00  0.00    +0.109 C 
ATOM     15  C   UNL     1      -7.329   1.174  -0.421  0.00  0.00    +0.050 C 
ATOM     16  C   UNL     1      -7.808  -0.128  -1.069  0.00  0.00    +0.118 C 
ATOM     17  C   UNL     1      -6.627  -1.096  -1.185  0.00  0.00    +0.050 C 
ATOM     18  C   UNL     1      -5.512  -0.437  -2.000  0.00  0.00    +0.109 C 
BRANCH  16  19
ATOM     19  O   UNL     1      -8.829  -0.715  -0.261  0.00  0.00    -0.392 OA
ATOM     20  H   UNL     1      -9.609  -0.156  -0.145  0.00  0.00    +0.210 HD
ENDBRANCH  16  19
ENDBRANCH   9  13
BRANCH   1  21
ATOM     21  C   UNL     1      -2.652   0.912   0.109  0.00  0.00    +0.146 C 
BRANCH  21  24
ATOM     22  C   UNL     1      -1.028   2.403   1.147  0.00  0.00    +0.254 C 
ATOM     23  O   UNL     1       0.103   2.656   1.519  0.00  0.00    -0.269 OA
ATOM     24  N   UNL     1      -1.310   1.192   0.625  0.00  0.00    -0.292 N 
BRANCH  22  27
ATOM     25  C   UNL     1      -3.183   5.411   1.846  0.00  0.00    +0.008 A 
ATOM     26  C   UNL     1      -2.039   4.654   1.882  0.00  0.00    +0.021 A 
ATOM     27  C   UNL     1      -2.083   3.414   1.265  0.00  0.00    +0.074 A 
ATOM     28  S   UNL     1      -3.757   3.368   0.652  0.00  0.00    -0.092 S 
ATOM     29  C   UNL     1      -4.284   4.920   1.219  0.00  0.00    +0.046 A 
ENDBRANCH  22  27
BRANCH  24  30
ATOM     30  C   UNL     1      -0.275   0.157   0.576  0.00  0.00    +0.113 C 
BRANCH  30  31
ATOM     31  C   UNL     1      -0.398  -0.747   1.804  0.00  0.00    +0.054 C 
BRANCH  31  32
ATOM     32  C   UNL     1       0.740  -1.735   1.817  0.00  0.00    -0.046 A 
ATOM     33  C   UNL     1       0.635  -2.917   1.109  0.00  0.00    +0.006 A 
ATOM     34  C   UNL     1       1.680  -3.822   1.116  0.00  0.00    +0.038 A 
ATOM     35  C   UNL     1       2.827  -3.549   1.841  0.00  0.00    +0.123 A 
ATOM     36  C   UNL     1       2.928  -2.367   2.555  0.00  0.00    +0.038 A 
ATOM     37  C   UNL     1       1.884  -1.461   2.542  0.00  0.00    +0.006 A 
ATOM     38  F   UNL     1       3.847  -4.435   1.853  0.00  0.00    -0.205 F 
ENDBRANCH  31  32
ENDBRANCH  30  31
ENDBRANCH  24  30
ENDBRANCH  21  24
ENDBRANCH   1  21
TORSDOF 8
