REMARK  Name = ZINC59170385
REMARK  7 active torsions:
REMARK  status: ('A' for Active; 'I' for Inactive)
REMARK    1  A    between atoms: C_1  and  O_2
REMARK    2  A    between atoms: O_2  and  C_3
REMARK    3  A    between atoms: C_8  and  C_24
REMARK    4  A    between atoms: N_10  and  C_11
REMARK    5  A    between atoms: C_14  and  S_17
REMARK    6  A    between atoms: S_17  and  N_20
REMARK    7  A    between atoms: N_26  and  C_27
REMARK                            x       y       z     vdW  Elec       q    Type
REMARK                         _______ _______ _______ _____ _____    ______ ____
ROOT
ATOM      1  C   UNL     1      -0.899  -0.877   0.026  0.00  0.00    +0.124 A 
ATOM      2  C   UNL     1      -1.864  -0.264  -0.772  0.00  0.00    +0.046 A 
ATOM      3  C   UNL     1      -2.998  -0.935  -1.124  0.00  0.00    +0.015 A 
ATOM      4  C   UNL     1      -3.203  -2.248  -0.673  0.00  0.00    +0.018 A 
ATOM      5  C   UNL     1      -4.394  -2.942  -1.002  0.00  0.00    +0.030 A 
ATOM      6  C   UNL     1      -4.642  -4.154  -0.373  0.00  0.00    +0.098 A 
ATOM      7  C   UNL     1      -3.654  -4.616   0.622  0.00  0.00    +0.212 A 
ATOM      8  N   UNL     1      -3.998  -5.431   1.596  0.00  0.00    -0.325 N 
ATOM      9  O   UNL     1      -2.378  -4.169   0.497  0.00  0.00    -0.438 OA
ATOM     10  C   UNL     1      -2.215  -2.880   0.108  0.00  0.00    +0.141 A 
ATOM     11  C   UNL     1      -1.071  -2.184   0.458  0.00  0.00    +0.092 A 
ATOM     12  H   UNL     1      -4.930  -5.663   1.728  0.00  0.00    +0.169 HD
ENDROOT
BRANCH   8  13
ATOM     13  C   UNL     1      -3.040  -5.954   2.421  0.00  0.00    +0.042 A 
ATOM     14  C   UNL     1      -1.853  -6.459   1.886  0.00  0.00    +0.027 A 
ATOM     15  C   UNL     1      -0.891  -6.984   2.724  0.00  0.00    +0.030 A 
ATOM     16  C   UNL     1      -1.101  -7.011   4.091  0.00  0.00    +0.105 A 
ATOM     17  C   UNL     1      -2.274  -6.512   4.628  0.00  0.00    +0.030 A 
ATOM     18  C   UNL     1      -3.242  -5.978   3.803  0.00  0.00    +0.027 A 
BRANCH  16  19
ATOM     19  S   UNL     1       0.133  -7.684   5.154  0.00  0.00    +0.056 S 
ATOM     20  O   UNL     1      -0.532  -8.092   6.342  0.00  0.00    -0.153 OA
ATOM     21  O   UNL     1       0.903  -8.582   4.366  0.00  0.00    -0.153 OA
BRANCH  19  22
ATOM     22  N   UNL     1       1.143  -6.443   5.580  0.00  0.00    -0.204 NA
ATOM     23  H   UNL     1       1.593  -6.457   6.439  0.00  0.00    +0.144 HD
ATOM     24  H   UNL     1       1.285  -5.702   4.970  0.00  0.00    +0.144 HD
ENDBRANCH  19  22
ENDBRANCH  16  19
ENDBRANCH   8  13
BRANCH   6  25
ATOM     25  C   UNL     1      -5.841  -4.948  -0.685  0.00  0.00    +0.253 C 
ATOM     26  O   UNL     1      -6.709  -4.483  -1.399  0.00  0.00    -0.270 OA
ATOM     27  N   UNL     1      -5.978  -6.189  -0.179  0.00  0.00    -0.281 N 
ATOM     28  H   UNL     1      -5.322  -6.533   0.448  0.00  0.00    +0.155 HD
BRANCH  27  29
ATOM     29  C   UNL     1      -7.066  -6.982  -0.558  0.00  0.00    +0.034 A 
ATOM     30  C   UNL     1      -8.288  -6.393  -0.853  0.00  0.00    +0.023 A 
ATOM     31  C   UNL     1      -9.360  -7.179  -1.227  0.00  0.00    +0.002 A 
ATOM     32  C   UNL     1      -9.217  -8.552  -1.309  0.00  0.00    +0.000 A 
ATOM     33  C   UNL     1      -8.002  -9.142  -1.015  0.00  0.00    +0.002 A 
ATOM     34  C   UNL     1      -6.924  -8.361  -0.646  0.00  0.00    +0.023 A 
ENDBRANCH  27  29
ENDBRANCH   6  25
BRANCH   1  36
ATOM     35  C   UNL     1       0.335   1.149  -0.099  0.00  0.00    +0.277 C 
ATOM     36  O   UNL     1       0.218  -0.193   0.378  0.00  0.00    -0.495 OA
ENDBRANCH   1  36
TORSDOF 6
