REMARK  Name = ZINC13191281
REMARK  8 active torsions:
REMARK  status: ('A' for Active; 'I' for Inactive)
REMARK    1  A    between atoms: C_4  and  C_7
REMARK    2  A    between atoms: C_7  and  N_8
REMARK    3  A    between atoms: C_12  and  C_15
REMARK    4  A    between atoms: C_15  and  N_16
REMARK    5  A    between atoms: N_16  and  C_17
REMARK    6  A    between atoms: C_20  and  S_26
REMARK    7  A    between atoms: C_22  and  C_23
REMARK    8  A    between atoms: S_26  and  N_29
REMARK                            x       y       z     vdW  Elec       q    Type
REMARK                         _______ _______ _______ _____ _____    ______ ____
ROOT
ATOM      1  C   UNL     1       9.060  -2.921   4.540  0.00  0.00    +0.042 A 
ATOM      2  C   UNL     1       9.881  -3.372   3.513  0.00  0.00    +0.025 A 
ATOM      3  C   UNL     1      11.113  -3.920   3.803  0.00  0.00    +0.030 A 
ATOM      4  C   UNL     1      11.544  -4.027   5.116  0.00  0.00    +0.106 A 
ATOM      5  C   UNL     1      10.747  -3.587   6.149  0.00  0.00    +0.045 A 
ATOM      6  C   UNL     1       9.496  -3.022   5.872  0.00  0.00    +0.086 A 
ENDROOT
BRANCH   6   7
ATOM      7  C   UNL     1       8.641  -2.545   6.969  0.00  0.00    +0.388 C 
ATOM      8  O   UNL     1       9.066  -2.535   8.117  0.00  0.00    -0.241 OA
ATOM      9  O   UNL     1       7.505  -2.157   6.735  0.00  0.00    -0.241 OA
ENDBRANCH   6   7
BRANCH   4  10
ATOM     10  S   UNL     1      13.121  -4.731   5.467  0.00  0.00    +0.061 S 
ATOM     11  O   UNL     1      13.061  -5.217   6.800  0.00  0.00    -0.153 OA
ATOM     12  O   UNL     1      13.447  -5.566   4.364  0.00  0.00    -0.153 OA
BRANCH  10  13
ATOM     13  N   UNL     1      14.221  -3.493   5.463  0.00  0.00    -0.177 NA
ATOM     14  C   UNL     1      14.909  -3.106   4.224  0.00  0.00    +0.109 C 
ATOM     15  C   UNL     1      14.712  -1.604   3.998  0.00  0.00    +0.017 C 
ATOM     16  C   UNL     1      15.176  -0.840   5.240  0.00  0.00    +0.003 C 
ATOM     17  C   UNL     1      14.334  -1.262   6.446  0.00  0.00    +0.017 C 
ATOM     18  C   UNL     1      14.523  -2.756   6.698  0.00  0.00    +0.109 C 
ENDBRANCH  10  13
ENDBRANCH   4  10
BRANCH   1  19
ATOM     19  N   UNL     1       7.821  -2.369   4.252  0.00  0.00    -0.341 N 
ATOM     20  H   UNL     1       7.217  -2.131   4.972  0.00  0.00    +0.146 HD
BRANCH  19  21
ATOM     21  C   UNL     1       7.425  -2.147   2.859  0.00  0.00    +0.134 C 
BRANCH  21  26
ATOM     22  N   UNL     1       4.230  -0.786   1.331  0.00  0.00    -0.293 NA
ATOM     23  C   UNL     1       3.304  -1.726   1.980  0.00  0.00    +0.113 C 
ATOM     24  C   UNL     1       3.745  -1.951   3.428  0.00  0.00    +0.175 C 
ATOM     25  O   UNL     1       5.094  -2.424   3.443  0.00  0.00    -0.372 OA
ATOM     26  C   UNL     1       6.024  -1.533   2.820  0.00  0.00    +0.149 C 
ATOM     27  C   UNL     1       5.606  -1.304   1.365  0.00  0.00    +0.118 C 
BRANCH  22  28
ATOM     28  C   UNL     1       3.809  -0.499  -0.047  0.00  0.00    +0.119 C 
BRANCH  28  32
ATOM     29  C   UNL     1       0.106   1.630   0.008  0.00  0.00    +0.000 A 
ATOM     30  C   UNL     1       1.302   2.323   0.034  0.00  0.00    +0.000 A 
ATOM     31  C   UNL     1       2.501   1.634   0.017  0.00  0.00    +0.005 A 
ATOM     32  C   UNL     1       2.503   0.252  -0.026  0.00  0.00    -0.033 A 
ATOM     33  C   UNL     1       1.307  -0.440  -0.052  0.00  0.00    +0.005 A 
ATOM     34  C   UNL     1       0.109   0.249  -0.036  0.00  0.00    +0.000 A 
ENDBRANCH  28  32
ENDBRANCH  22  28
ENDBRANCH  21  26
ENDBRANCH  19  21
ENDBRANCH   1  19
TORSDOF 8
