REMARK  Name = ZINC38191676
REMARK  6 active torsions:
REMARK  status: ('A' for Active; 'I' for Inactive)
REMARK    1  A    between atoms: C_2  and  S_24
REMARK    2  A    between atoms: C_4  and  N_21
REMARK    3  A    between atoms: C_5  and  O_20
REMARK    4  A    between atoms: C_6  and  N_7
REMARK    5  A    between atoms: N_7  and  N_8
REMARK    6  A    between atoms: C_11  and  C_17
REMARK                            x       y       z     vdW  Elec       q    Type
REMARK                         _______ _______ _______ _____ _____    ______ ____
ROOT
ATOM      1  C   UNL     1      -0.010   1.301   0.481  0.00  0.00    +0.058 A 
ATOM      2  C   UNL     1       1.181   1.967   0.699  0.00  0.00    +0.124 A 
ATOM      3  C   UNL     1       2.387   1.330   0.466  0.00  0.00    +0.066 A 
ATOM      4  C   UNL     1       2.408   0.024   0.015  0.00  0.00    +0.171 A 
ATOM      5  C   UNL     1       1.220  -0.653  -0.206  0.00  0.00    +0.170 A 
ATOM      6  C   UNL     1       0.003  -0.012   0.028  0.00  0.00    +0.094 A 
ENDROOT
BRANCH   2   7
ATOM      7  S   UNL     1       1.163   3.633   1.274  0.00  0.00    +0.140 S 
ATOM      8  O   UNL     1       2.358   4.274   0.746  0.00  0.00    -0.140 OA
ATOM      9  O   UNL     1      -0.053   4.244   0.760  0.00  0.00    -0.140 OA
ATOM     10  O   UNL     1       1.172   3.578   2.727  0.00  0.00    -0.043 OA
ENDBRANCH   2   7
BRANCH   4  11
ATOM     11  N   UNL     1       3.702  -0.652  -0.233  0.00  0.00    +0.060 N 
ATOM     12  O   UNL     1       4.739  -0.061  -0.040  0.00  0.00    -0.126 OA
ATOM     13  O   UNL     1       3.721  -1.794  -0.628  0.00  0.00    -0.126 OA
ENDBRANCH   4  11
BRANCH   6  14
ATOM     14  N   UNL     1      -1.196  -0.687  -0.192  0.00  0.00    -0.233 N 
ATOM     15  H   UNL     1      -1.186  -1.603  -0.509  0.00  0.00    +0.175 HD
BRANCH  14  16
ATOM     16  N   UNL     1      -2.320  -0.092   0.025  0.00  0.00    -0.179 NA
ATOM     17  C   UNL     1      -3.462  -0.771  -0.068  0.00  0.00    +0.129 C 
ATOM     18  C   UNL     1      -4.685  -0.082  -0.164  0.00  0.00    +0.052 C 
ATOM     19  C   UNL     1      -5.869  -0.796  -0.261  0.00  0.00    +0.112 C 
ATOM     20  C   UNL     1      -5.836  -2.263  -0.263  0.00  0.00    +0.197 C 
ATOM     21  C   UNL     1      -4.608  -2.937  -0.166  0.00  0.00    +0.104 C 
ATOM     22  C   UNL     1      -3.444  -2.236  -0.076  0.00  0.00    +0.209 C 
ATOM     23  O   UNL     1      -2.264  -2.896   0.011  0.00  0.00    -0.285 OA
ATOM     24  O   UNL     1      -6.877  -2.897  -0.347  0.00  0.00    -0.287 OA
BRANCH  19  25
ATOM     25  C   UNL     1      -7.150  -0.088  -0.361  0.00  0.00    +0.390 C 
ATOM     26  O   UNL     1      -7.175   1.136  -0.359  0.00  0.00    -0.240 OA
ATOM     27  O   UNL     1      -8.194  -0.721  -0.447  0.00  0.00    -0.240 OA
ENDBRANCH  19  25
ENDBRANCH  14  16
ENDBRANCH   6  14
BRANCH   5  28
ATOM     28  O   UNL     1       1.240  -1.937  -0.650  0.00  0.00    -0.503 OA
ATOM     29  H   UNL     1       1.255  -2.598   0.056  0.00  0.00    +0.292 HD
ENDBRANCH   5  28
TORSDOF 6
