REMARK  Name = ZINC21320656
REMARK  8 active torsions:
REMARK  status: ('A' for Active; 'I' for Inactive)
REMARK    1  A    between atoms: C_1  and  O_2
REMARK    2  A    between atoms: O_2  and  C_3
REMARK    3  A    between atoms: C_8  and  C_9
REMARK    4  A    between atoms: N_10  and  N_11
REMARK    5  A    between atoms: C_15  and  S_18
REMARK    6  A    between atoms: N_16  and  N_17
REMARK    7  A    between atoms: S_18  and  C_19
REMARK    8  A    between atoms: C_19  and  C_20
REMARK                            x       y       z     vdW  Elec       q    Type
REMARK                         _______ _______ _______ _____ _____    ______ ____
ROOT
ATOM      1  N   UNL     1       1.060   1.670  -2.699  0.00  0.00    -0.204 N 
ATOM      2  C   UNL     1      -0.257   1.797  -2.282  0.00  0.00    +0.254 A 
ATOM      3  N   UNL     1      -1.257   2.229  -3.011  0.00  0.00    -0.109 NA
ATOM      4  N   UNL     1      -2.411   2.210  -2.218  0.00  0.00    -0.119 NA
ATOM      5  C   UNL     1      -2.079   1.760  -1.031  0.00  0.00    +0.210 A 
ATOM      6  N   UNL     1      -0.741   1.490  -1.041  0.00  0.00    -0.211 N 
ATOM      7  H   UNL     1       1.823   1.292  -2.002  0.00  0.00    +0.177 HD
ENDROOT
BRANCH   6   8
ATOM      8  N   UNL     1      -0.012   1.005   0.008  0.00  0.00    -0.294 N 
ATOM      9  H   UNL     1      -0.504   0.791   0.968  0.00  0.00    +0.163 HD
ATOM     10  H   UNL     1       1.068   0.827  -0.108  0.00  0.00    +0.163 HD
ENDBRANCH   6   8
BRANCH   1  12
ATOM     11  C   UNL     1       2.652   1.904  -4.396  0.00  0.00    +0.142 C 
ATOM     12  N   UNL     1       1.419   2.023  -4.006  0.00  0.00    -0.187 NA
BRANCH  11  18
ATOM     13  C   UNL     1       2.061   2.756  -6.662  0.00  0.00    +0.129 A 
ATOM     14  C   UNL     1       2.426   3.103  -7.952  0.00  0.00    +0.047 A 
ATOM     15  C   UNL     1       3.740   2.974  -8.359  0.00  0.00    +0.019 A 
ATOM     16  C   UNL     1       4.702   2.498  -7.483  0.00  0.00    +0.019 A 
ATOM     17  C   UNL     1       4.356   2.154  -6.192  0.00  0.00    +0.028 A 
ATOM     18  C   UNL     1       3.030   2.275  -5.771  0.00  0.00    +0.037 A 
ATOM     19 BR   UNL     1       6.496   2.326  -8.056  0.00  0.00    -0.050 Br
BRANCH  13  21
ATOM     20  C   UNL     1      -0.163   3.381  -7.223  0.00  0.00    +0.277 C 
ATOM     21  O   UNL     1       0.769   2.884  -6.261  0.00  0.00    -0.494 OA
ENDBRANCH  13  21
ENDBRANCH  11  18
ENDBRANCH   1  12
BRANCH   5  22
ATOM     22  S   UNL     1      -3.170   1.543   0.336  0.00  0.00    -0.075 S 
BRANCH  22  23
ATOM     23  C   UNL     1      -4.783   2.076  -0.300  0.00  0.00    +0.173 C 
BRANCH  23  24
ATOM     24  C   UNL     1      -5.820   1.940   0.784  0.00  0.00    +0.229 C 
ATOM     25  O   UNL     1      -5.503   1.523   1.878  0.00  0.00    -0.275 OA
ATOM     26  N   UNL     1      -7.101   2.280   0.538  0.00  0.00    -0.264 N 
ATOM     27  C   UNL     1      -8.058   2.154   1.538  0.00  0.00    +0.164 A 
ATOM     28  N   UNL     1      -7.912   1.720   2.775  0.00  0.00    -0.233 NA
ATOM     29  C   UNL     1      -8.935   1.667   3.606  0.00  0.00    +0.120 A 
ATOM     30  C   UNL     1     -10.152   2.060   3.158  0.00  0.00    +0.068 A 
ATOM     31  S   UNL     1      -9.755   2.519   1.478  0.00  0.00    -0.061 S 
ATOM     32  H   UNL     1      -7.389   2.658  -0.454  0.00  0.00    +0.157 HD
ENDBRANCH  23  24
ENDBRANCH  22  23
ENDBRANCH   5  22
TORSDOF 7
