REMARK  Name = ZINC20906617
REMARK  10 active torsions:
REMARK  status: ('A' for Active; 'I' for Inactive)
REMARK    1  A    between atoms: C_1  and  C_2
REMARK    2  A    between atoms: C_2  and  N_3
REMARK    3  A    between atoms: C_14  and  C_16
REMARK    4  A    between atoms: C_16  and  N_17
REMARK    5  A    between atoms: N_17  and  C_18
REMARK    6  A    between atoms: C_21  and  C_28
REMARK    7  A    between atoms: N_23  and  C_25
REMARK    8  A    between atoms: C_25  and  C_26
REMARK    9  A    between atoms: C_25  and  C_27
REMARK   10  A    between atoms: N_30  and  C_31
REMARK                            x       y       z     vdW  Elec       q    Type
REMARK                         _______ _______ _______ _____ _____    ______ ____
ROOT
ATOM      1  C   UNL     1       3.157   4.567  -0.901  0.00  0.00    -0.046 C 
ENDROOT
BRANCH   1  13
ATOM      2  N   UNL     1       8.111   6.677   0.802  0.00  0.00    -0.340 N 
ATOM      3  C   UNL     1       8.900   5.541   0.812  0.00  0.00    +0.050 A 
ATOM      4  C   UNL     1      10.238   5.332   1.133  0.00  0.00    +0.026 A 
ATOM      5  C   UNL     1      10.777   4.066   1.054  0.00  0.00    +0.002 A 
ATOM      6  C   UNL     1       9.998   2.991   0.655  0.00  0.00    +0.001 A 
ATOM      7  C   UNL     1       8.671   3.178   0.333  0.00  0.00    +0.010 A 
ATOM      8  C   UNL     1       8.114   4.452   0.408  0.00  0.00    +0.008 A 
ATOM      9  C   UNL     1       6.765   4.987   0.141  0.00  0.00    +0.008 A 
ATOM     10  C   UNL     1       6.825   6.364   0.401  0.00  0.00    +0.050 A 
ATOM     11  C   UNL     1       5.682   7.139   0.232  0.00  0.00    +0.026 A 
ATOM     12  C   UNL     1       4.508   6.553  -0.192  0.00  0.00    +0.004 A 
ATOM     13  C   UNL     1       4.450   5.191  -0.444  0.00  0.00    -0.064 A 
ATOM     14  C   UNL     1       5.572   4.407  -0.281  0.00  0.00    +0.012 A 
BRANCH   2  16
ATOM     15  C   UNL     1       8.365   8.245   2.662  0.00  0.00    +0.027 C 
ATOM     16  C   UNL     1       8.573   8.020   1.162  0.00  0.00    +0.119 C 
ENDBRANCH   2  16
ENDBRANCH   1  13
BRANCH   1  17
ATOM     17  N   UNL     1       2.383   4.130   0.268  0.00  0.00    +0.384 N 
ATOM     18  H   UNL     1       2.966   3.391   0.838  0.00  0.00    -0.085 HD
ATOM     19  H   UNL     1       2.165   4.997   0.908  0.00  0.00    -0.085 HD
BRANCH  17  20
ATOM     20  C   UNL     1       1.113   3.514  -0.140  0.00  0.00    -0.055 C 
ATOM     21  C   UNL     1       0.101   3.512   1.028  0.00  0.00    +0.014 C 
ATOM     22  C   UNL     1      -0.615   2.152   0.938  0.00  0.00    +0.142 C 
ATOM     23  N   UNL     1      -0.056   1.444  -0.235  0.00  0.00    -0.291 NA
ATOM     24  C   UNL     1       1.305   2.006  -0.435  0.00  0.00    +0.070 C 
BRANCH  22  25
ATOM     25  C   UNL     1      -2.095   2.361   0.753  0.00  0.00    +0.230 C 
ATOM     26  O   UNL     1      -2.643   1.965  -0.254  0.00  0.00    -0.274 OA
ATOM     27  N   UNL     1      -2.811   2.990   1.706  0.00  0.00    -0.317 N 
ATOM     28  C   UNL     1      -4.251   3.194   1.527  0.00  0.00    +0.128 C 
ATOM     29  H   UNL     1      -2.314   3.349   2.620  0.00  0.00    +0.148 HD
ENDBRANCH  22  25
BRANCH  23  30
ATOM     30  C   UNL     1       0.002  -0.004   0.002  0.00  0.00    +0.051 C 
ATOM     31  C   UNL     1      -1.409  -0.535   0.263  0.00  0.00    +0.024 C 
ATOM     32  C   UNL     1       0.589  -0.699  -1.228  0.00  0.00    +0.024 C 
ENDBRANCH  23  30
ENDBRANCH  17  20
ENDBRANCH   1  17
TORSDOF 6
