REMARK  Name = ZINC12042765
REMARK  10 active torsions:
REMARK  status: ('A' for Active; 'I' for Inactive)
REMARK    1  A    between atoms: C_1  and  C_2
REMARK    2  A    between atoms: C_3  and  C_31
REMARK    3  A    between atoms: C_5  and  N_23
REMARK    4  A    between atoms: C_6  and  C_7
REMARK    5  A    between atoms: C_7  and  C_9
REMARK    6  A    between atoms: C_7  and  N_17
REMARK    7  A    between atoms: C_12  and  S_15
REMARK    8  A    between atoms: S_15  and  C_16
REMARK    9  A    between atoms: N_17  and  C_18
REMARK   10  A    between atoms: C_24  and  C_26
REMARK                            x       y       z     vdW  Elec       q    Type
REMARK                         _______ _______ _______ _____ _____    ______ ____
ROOT
ATOM      1  C   UNL     1      -1.253   5.851   0.129  0.00  0.00    +0.135 C 
ENDROOT
BRANCH   1   7
ATOM      2  C   UNL     1      -2.234   8.177   1.585  0.00  0.00    +0.045 C 
ATOM      3  C   UNL     1      -2.455   6.787   2.125  0.00  0.00    -0.033 A 
ATOM      4  C   UNL     1      -3.119   6.601   3.291  0.00  0.00    -0.008 A 
ATOM      5  S   UNL     1      -3.092   4.824   3.456  0.00  0.00    -0.078 S 
ATOM      6  C   UNL     1      -2.204   4.444   1.955  0.00  0.00    +0.078 A 
ATOM      7  C   UNL     1      -1.990   5.684   1.433  0.00  0.00    +0.009 A 
ATOM      8  C   UNL     1      -3.719   7.630   4.215  0.00  0.00    +0.052 C 
BRANCH   6   9
ATOM      9  N   UNL     1      -1.827   3.199   1.447  0.00  0.00    -0.273 N 
ATOM     10  C   UNL     1      -2.237   2.070   2.058  0.00  0.00    +0.284 C 
ATOM     11  O   UNL     1      -2.997   2.132   3.006  0.00  0.00    -0.266 OA
ATOM     12  H   UNL     1      -1.271   3.147   0.654  0.00  0.00    +0.156 HD
BRANCH  10  13
ATOM     13  C   UNL     1      -1.766   0.766   1.581  0.00  0.00    +0.189 A 
ATOM     14  C   UNL     1      -2.177  -0.453   2.040  0.00  0.00    +0.054 A 
ATOM     15  C   UNL     1      -1.472  -1.420   1.306  0.00  0.00    +0.042 A 
ATOM     16  C   UNL     1      -0.672  -0.757   0.441  0.00  0.00    +0.196 A 
ATOM     17  O   UNL     1      -0.857   0.559   0.606  0.00  0.00    -0.458 OA
ENDBRANCH  10  13
ENDBRANCH   6   9
ENDBRANCH   1   7
BRANCH   1  18
ATOM     18  C   UNL     1      -2.179   5.529  -1.016  0.00  0.00    -0.023 A 
ATOM     19  C   UNL     1      -2.377   4.213  -1.393  0.00  0.00    +0.007 A 
ATOM     20  C   UNL     1      -3.228   3.914  -2.438  0.00  0.00    +0.015 A 
ATOM     21  C   UNL     1      -3.878   4.937  -3.118  0.00  0.00    +0.008 A 
ATOM     22  C   UNL     1      -3.672   6.259  -2.740  0.00  0.00    +0.015 A 
ATOM     23  C   UNL     1      -2.823   6.550  -1.690  0.00  0.00    +0.007 A 
BRANCH  21  24
ATOM     24  S   UNL     1      -4.959   4.561  -4.458  0.00  0.00    -0.129 S 
ATOM     25  C   UNL     1      -4.904   2.751  -4.570  0.00  0.00    +0.090 C 
ENDBRANCH  21  24
ENDBRANCH   1  18
BRANCH   1  26
ATOM     26  N   UNL     1      -0.103   4.944   0.098  0.00  0.00    -0.320 N 
ATOM     27  H   UNL     1      -0.155   4.112  -0.399  0.00  0.00    +0.148 HD
BRANCH  26  28
ATOM     28  C   UNL     1       1.062   5.275   0.779  0.00  0.00    +0.097 A 
ATOM     29  C   UNL     1       1.171   6.517   1.396  0.00  0.00    +0.041 A 
ATOM     30  C   UNL     1       2.334   6.831   2.075  0.00  0.00    +0.005 A 
ATOM     31  C   UNL     1       3.357   5.893   2.106  0.00  0.00    +0.018 A 
ATOM     32  C   UNL     1       3.181   4.679   1.472  0.00  0.00    +0.084 A 
ATOM     33  N   UNL     1       2.050   4.335   0.800  0.00  0.00    -0.350 N 
ATOM     34  H   UNL     1       1.947   3.424   0.338  0.00  0.00    +0.166 HD
ENDBRANCH  26  28
ENDBRANCH   1  26
TORSDOF 7
