REMARK  Name = ZINC54846124
REMARK  5 active torsions:
REMARK  status: ('A' for Active; 'I' for Inactive)
REMARK    1  A    between atoms: C_1  and  C_2
REMARK    2  A    between atoms: C_2  and  C_3
REMARK    3  A    between atoms: C_2  and  C_4
REMARK    4  A    between atoms: C_11  and  C_13
REMARK    5  A    between atoms: C_13  and  N_15
REMARK                            x       y       z     vdW  Elec       q    Type
REMARK                         _______ _______ _______ _____ _____    ______ ____
ROOT
ATOM      1  C   UNL     1      -4.056  -1.364  -0.074  0.00  0.00    +0.260 C 
ATOM      2  O   UNL     1      -4.214  -0.672   0.913  0.00  0.00    -0.272 OA
ENDROOT
BRANCH   1   3
ATOM      3  N   UNL     1      -4.767  -1.128  -1.172  0.00  0.00    -0.145 NA
ATOM      4  C   UNL     1      -5.580  -0.077  -1.225  0.00  0.00    +0.198 A 
ATOM      5  N   UNL     1      -5.677   0.892  -0.277  0.00  0.00    -0.326 N 
ATOM      6  H   UNL     1      -5.167   0.933   0.547  0.00  0.00    +0.169 HD
ATOM      7  C   UNL     1      -6.631   1.815  -0.692  0.00  0.00    +0.065 A 
ATOM      8  C   UNL     1      -7.127   2.982  -0.130  0.00  0.00    +0.028 A 
ATOM      9  C   UNL     1      -8.097   3.707  -0.794  0.00  0.00    +0.002 A 
ATOM     10  C   UNL     1      -8.578   3.274  -2.017  0.00  0.00    +0.002 A 
ATOM     11  C   UNL     1      -8.091   2.113  -2.585  0.00  0.00    +0.028 A 
ATOM     12  C   UNL     1      -7.116   1.377  -1.927  0.00  0.00    +0.065 A 
ATOM     13  N   UNL     1      -6.442   0.201  -2.238  0.00  0.00    -0.326 N 
ATOM     14  H   UNL     1      -6.567  -0.331  -3.040  0.00  0.00    +0.169 HD
ENDBRANCH   1   3
BRANCH   1  22
ATOM     15  C   UNL     1      -1.489  -0.609   0.051  0.00  0.00    +0.219 C 
ATOM     16  O   UNL     1      -2.431   0.151  -0.029  0.00  0.00    -0.275 OA
ATOM     17  N   UNL     1      -1.699  -1.940   0.093  0.00  0.00    -0.290 N 
ATOM     18  C   UNL     1      -0.578  -2.868   0.291  0.00  0.00    +0.108 C 
ATOM     19  C   UNL     1      -0.899  -3.785   1.476  0.00  0.00    +0.019 C 
ATOM     20  C   UNL     1      -2.247  -4.469   1.236  0.00  0.00    +0.004 C 
ATOM     21  C   UNL     1      -3.347  -3.410   1.131  0.00  0.00    +0.032 C 
ATOM     22  C   UNL     1      -3.054  -2.490  -0.052  0.00  0.00    +0.164 C 
BRANCH  15  24
ATOM     23  C   UNL     1      -0.107   1.434  -0.201  0.00  0.00    +0.017 C 
ATOM     24  C   UNL     1      -0.085  -0.066   0.103  0.00  0.00    +0.069 C 
ATOM     25  C   UNL     1       0.499  -0.294   1.499  0.00  0.00    +0.017 C 
ENDBRANCH  15  24
ENDBRANCH   1  22
TORSDOF 3
