REMARK  Name = ZINC06881410
REMARK  12 active torsions:
REMARK  status: ('A' for Active; 'I' for Inactive)
REMARK    1  A    between atoms: C_1  and  C_2
REMARK    2  A    between atoms: C_2  and  C_3
REMARK    3  A    between atoms: C_3  and  N_4
REMARK    4  A    between atoms: C_5  and  N_27
REMARK    5  A    between atoms: C_6  and  C_13
REMARK    6  A    between atoms: C_13  and  C_15
REMARK    7  A    between atoms: C_15  and  N_50
REMARK    8  A    between atoms: C_16  and  N_50
REMARK    9  A    between atoms: C_17  and  C_18
REMARK   10  A    between atoms: C_17  and  N_50
REMARK   11  A    between atoms: N_20  and  C_21
REMARK   12  A    between atoms: C_21  and  C_22
REMARK                            x       y       z     vdW  Elec       q    Type
REMARK                         _______ _______ _______ _____ _____    ______ ____
ROOT
ATOM      1  C   UNL     1      -1.387  -0.527   0.261  0.00  0.00    +0.155 C 
ATOM      2  O   UNL     1      -2.308   0.249   0.419  0.00  0.00    -0.294 OA
ENDROOT
BRANCH   1   5
ATOM      3  N   UNL     1      -3.065  -3.785   0.663  0.00  0.00    -0.281 N 
ATOM      4  C   UNL     1      -2.886  -2.431   0.639  0.00  0.00    +0.116 A 
ATOM      5  C   UNL     1      -1.622  -1.918   0.300  0.00  0.00    +0.118 A 
ATOM      6  C   UNL     1      -0.556  -2.876  -0.019  0.00  0.00    +0.266 A 
ATOM      7  O   UNL     1       0.557  -2.488  -0.325  0.00  0.00    -0.267 OA
ATOM      8  N   UNL     1      -0.833  -4.194   0.039  0.00  0.00    -0.274 N 
ATOM      9  H   UNL     1      -0.115  -4.859  -0.167  0.00  0.00    +0.173 HD
ATOM     10  C   UNL     1      -2.061  -4.626   0.370  0.00  0.00    +0.331 A 
ATOM     11  O   UNL     1      -2.271  -5.823   0.405  0.00  0.00    -0.246 OA
BRANCH   4  12
ATOM     12  N   UNL     1      -3.915  -1.592   0.940  0.00  0.00    -0.344 N 
ATOM     13  H   UNL     1      -4.831  -1.887   0.820  0.00  0.00    +0.144 HD
ATOM     14  H   UNL     1      -3.731  -0.700   1.274  0.00  0.00    +0.144 HD
ENDBRANCH   4  12
BRANCH   3  15
ATOM     15  C   UNL     1      -4.378  -4.329   1.015  0.00  0.00    +0.128 C 
BRANCH  15  17
ATOM     16  C   UNL     1      -6.591  -5.061   0.115  0.00  0.00    +0.005 C 
ATOM     17  C   UNL     1      -5.219  -4.492  -0.253  0.00  0.00    +0.018 C 
ENDBRANCH  15  17
ENDBRANCH   3  15
ENDBRANCH   1   5
BRANCH   1  18
ATOM     18  C   UNL     1       0.006  -0.004   0.025  0.00  0.00    +0.003 C 
BRANCH  18  20
ATOM     19  C   UNL     1      -0.780   1.984  -1.110  0.00  0.00    -0.095 C 
ATOM     20  N   UNL     1      -0.027   1.473   0.054  0.00  0.00    +0.388 N 
ATOM     21  H   UNL     1      -0.496   1.779   0.915  0.00  0.00    -0.081 HD
BRANCH  20  22
ATOM     22  C   UNL     1       1.350   2.010   0.040  0.00  0.00    +0.019 C 
BRANCH  22  23
ATOM     23  C   UNL     1       1.296   3.495   0.292  0.00  0.00    +0.197 C 
ATOM     24  O   UNL     1       0.226   4.045   0.447  0.00  0.00    -0.278 OA
ATOM     25  N   UNL     1       2.436   4.212   0.344  0.00  0.00    -0.310 N 
ATOM     26  H   UNL     1       3.291   3.772   0.220  0.00  0.00    +0.149 HD
BRANCH  25  27
ATOM     27  C   UNL     1       2.382   5.655   0.589  0.00  0.00    +0.178 C 
BRANCH  27  28
ATOM     28  C   UNL     1       3.782   6.215   0.599  0.00  0.00    +0.122 A 
ATOM     29  C   UNL     1       4.448   6.686  -0.470  0.00  0.00    +0.046 A 
ATOM     30  C   UNL     1       5.717   7.107  -0.008  0.00  0.00    +0.041 A 
ATOM     31  C   UNL     1       5.750   6.867   1.315  0.00  0.00    +0.195 A 
ATOM     32  O   UNL     1       4.573   6.332   1.678  0.00  0.00    -0.466 OA
ENDBRANCH  27  28
ENDBRANCH  25  27
ENDBRANCH  22  23
ENDBRANCH  20  22
ENDBRANCH  18  20
ENDBRANCH   1  18
TORSDOF 10
