REMARK  Name = ZINC14528341
REMARK  6 active torsions:
REMARK  status: ('A' for Active; 'I' for Inactive)
REMARK    1  A    between atoms: C_6  and  N_7
REMARK    2  A    between atoms: N_7  and  S_8
REMARK    3  A    between atoms: S_8  and  C_11
REMARK    4  A    between atoms: C_17  and  C_22
REMARK    5  A    between atoms: N_24  and  C_25
REMARK    6  A    between atoms: N_28  and  C_31
REMARK                            x       y       z     vdW  Elec       q    Type
REMARK                         _______ _______ _______ _____ _____    ______ ____
ROOT
ATOM      1  C   UNL     1      -2.827  -2.992   0.014  0.00  0.00    +0.111 A 
ATOM      2  C   UNL     1      -3.472  -3.207   1.225  0.00  0.00    +0.031 A 
ATOM      3  C   UNL     1      -4.788  -3.611   1.258  0.00  0.00    +0.028 A 
ATOM      4  C   UNL     1      -5.482  -3.807   0.066  0.00  0.00    +0.050 A 
ATOM      5  C   UNL     1      -4.826  -3.589  -1.158  0.00  0.00    +0.012 A 
ATOM      6  C   UNL     1      -3.490  -3.173  -1.167  0.00  0.00    +0.039 A 
ATOM      7  C   UNL     1      -5.556  -3.795  -2.418  0.00  0.00    +0.051 A 
ATOM      8  C   UNL     1      -6.860  -4.196  -2.357  0.00  0.00    +0.083 A 
ATOM      9  C   UNL     1      -7.487  -4.407  -1.055  0.00  0.00    +0.250 A 
ATOM     10  N   UNL     1      -6.800  -4.212   0.084  0.00  0.00    -0.322 N 
ATOM     11  O   UNL     1      -8.651  -4.764  -1.000  0.00  0.00    -0.268 OA
ATOM     12  H   UNL     1      -7.240  -4.360   0.936  0.00  0.00    +0.169 HD
ENDROOT
BRANCH   7  13
ATOM     13  C   UNL     1      -4.891  -3.572  -3.724  0.00  0.00    +0.245 C 
ATOM     14  O   UNL     1      -3.768  -3.109  -3.764  0.00  0.00    -0.270 OA
ATOM     15  N   UNL     1      -5.532  -3.883  -4.869  0.00  0.00    -0.309 N 
ATOM     16  H   UNL     1      -6.454  -4.183  -4.842  0.00  0.00    +0.149 HD
BRANCH  15  17
ATOM     17  C   UNL     1      -4.837  -3.767  -6.153  0.00  0.00    +0.070 C 
ATOM     18  C   UNL     1      -4.945  -2.329  -6.666  0.00  0.00    +0.004 C 
ATOM     19  C   UNL     1      -4.286  -2.234  -8.044  0.00  0.00    -0.077 C 
ATOM     20  N   UNL     1      -4.963  -3.141  -8.978  0.00  0.00    +0.382 N 
ATOM     21  C   UNL     1      -4.802  -4.529  -8.530  0.00  0.00    -0.077 C 
ATOM     22  C   UNL     1      -5.481  -4.713  -7.171  0.00  0.00    +0.004 C 
ATOM     23  H   UNL     1      -5.945  -2.913  -9.015  0.00  0.00    -0.081 HD
BRANCH  20  24
ATOM     24  C   UNL     1      -4.378  -2.989 -10.317  0.00  0.00    -0.069 C 
ATOM     25  C   UNL     1      -5.251  -2.355 -11.402  0.00  0.00    -0.017 C 
ATOM     26  C   UNL     1      -4.951  -3.855 -11.441  0.00  0.00    -0.017 C 
ENDBRANCH  20  24
ENDBRANCH  15  17
ENDBRANCH   7  13
BRANCH   1  27
ATOM     27  S   UNL     1      -1.143  -2.475  -0.000  0.00  0.00    +0.092 S 
ATOM     28  O   UNL     1      -0.610  -2.864  -1.259  0.00  0.00    -0.148 OA
ATOM     29  O   UNL     1      -0.577  -2.902   1.232  0.00  0.00    -0.148 OA
BRANCH  27  30
ATOM     30  N   UNL     1      -1.139  -0.820   0.025  0.00  0.00    -0.098 NA
BRANCH  30  36
ATOM     31  C   UNL     1       0.079   1.265   0.040  0.00  0.00    +0.029 A 
ATOM     32  C   UNL     1       1.278   1.951   0.036  0.00  0.00    +0.040 A 
ATOM     33  C   UNL     1       2.474   1.254   0.010  0.00  0.00    +0.124 A 
ATOM     34  C   UNL     1       2.472  -0.130  -0.011  0.00  0.00    +0.040 A 
ATOM     35  C   UNL     1       1.275  -0.820  -0.007  0.00  0.00    +0.029 A 
ATOM     36  C   UNL     1       0.074  -0.124   0.019  0.00  0.00    +0.074 A 
ATOM     37  F   UNL     1       3.646   1.927   0.005  0.00  0.00    -0.205 F 
ENDBRANCH  30  36
ENDBRANCH  27  30
ENDBRANCH   1  27
TORSDOF 6
