REMARK  Name = ZINC02257852
REMARK  5 active torsions:
REMARK  status: ('A' for Active; 'I' for Inactive)
REMARK    1  A    between atoms: C_1  and  C_2
REMARK    2  A    between atoms: C_5  and  C_8
REMARK    3  A    between atoms: C_19  and  C_21
REMARK    4  A    between atoms: C_32  and  S_34
REMARK    5  A    between atoms: S_34  and  C_35
REMARK                            x       y       z     vdW  Elec       q    Type
REMARK                         _______ _______ _______ _____ _____    ______ ____
ROOT
ATOM      1  C   UNL     1       0.056  -4.270  -0.031  0.00  0.00    +0.159 C 
ATOM      2  C   UNL     1       1.498  -4.726   0.013  0.00  0.00    +0.025 C 
ATOM      3  C   UNL     1       1.883  -5.519   1.033  0.00  0.00    +0.058 C 
ATOM      4  C   UNL     1       3.299  -5.966   1.056  0.00  0.00    +0.040 A 
ATOM      5  C   UNL     1       3.871  -6.504   2.201  0.00  0.00    +0.013 A 
ATOM      6  C   UNL     1       5.193  -6.905   2.179  0.00  0.00    +0.001 A 
ATOM      7  C   UNL     1       5.943  -6.770   1.024  0.00  0.00    +0.004 A 
ATOM      8  C   UNL     1       5.380  -6.236  -0.121  0.00  0.00    +0.046 A 
ATOM      9  C   UNL     1       4.057  -5.831  -0.114  0.00  0.00    +0.131 A 
ATOM     10  O   UNL     1       3.477  -5.309  -1.225  0.00  0.00    -0.479 OA
ATOM     11  C   UNL     1       2.480  -4.303  -1.040  0.00  0.00    +0.235 C 
ATOM     12  N   UNL     1       1.015  -5.899   2.002  0.00  0.00    -0.326 N 
ATOM     13  C   UNL     1      -0.253  -5.550   2.041  0.00  0.00    +0.216 C 
ATOM     14  N   UNL     1      -0.798  -4.742   1.067  0.00  0.00    -0.209 N 
ATOM     15  N   UNL     1      -2.143  -4.562   1.398  0.00  0.00    -0.239 N 
ATOM     16  C   UNL     1      -2.352  -5.263   2.557  0.00  0.00    +0.174 C 
ATOM     17  N   UNL     1      -1.232  -5.837   2.918  0.00  0.00    -0.192 NA
ATOM     18  H   UNL     1       1.351  -6.467   2.713  0.00  0.00    +0.169 HD
ATOM     19  H   UNL     1      -2.799  -4.045   0.905  0.00  0.00    +0.172 HD
ENDROOT
BRANCH   1  24
ATOM     20  C   UNL     1      -0.015   1.508  -0.010  0.00  0.00    +0.044 C 
ATOM     21  C   UNL     1       0.004   0.001  -0.015  0.00  0.00    -0.050 A 
ATOM     22  C   UNL     1      -0.142  -0.688  -1.205  0.00  0.00    +0.004 A 
ATOM     23  C   UNL     1      -0.125  -2.070  -1.210  0.00  0.00    +0.006 A 
ATOM     24  C   UNL     1       0.038  -2.764  -0.025  0.00  0.00    -0.021 A 
ATOM     25  C   UNL     1       0.184  -2.075   1.164  0.00  0.00    +0.006 A 
ATOM     26  C   UNL     1       0.172  -0.693   1.169  0.00  0.00    +0.004 A 
ENDBRANCH   1  24
BRANCH  11  27
ATOM     27  C   UNL     1       3.142  -3.017  -0.616  0.00  0.00    +0.015 A 
ATOM     28  C   UNL     1       3.321  -2.741   0.726  0.00  0.00    +0.009 A 
ATOM     29  C   UNL     1       3.928  -1.562   1.115  0.00  0.00    +0.000 A 
ATOM     30  C   UNL     1       4.358  -0.658   0.162  0.00  0.00    +0.001 A 
ATOM     31  C   UNL     1       4.179  -0.932  -1.181  0.00  0.00    +0.020 A 
ATOM     32  C   UNL     1       3.577  -2.115  -1.571  0.00  0.00    +0.048 A 
ATOM     33 CL   UNL     1       3.359  -2.464  -3.258  0.00  0.00    -0.083 Cl
ENDBRANCH  11  27
BRANCH  16  34
ATOM     34  S   UNL     1      -3.883  -5.376   3.421  0.00  0.00    -0.092 S 
ATOM     35  C   UNL     1      -3.503  -6.428   4.850  0.00  0.00    +0.093 C 
ENDBRANCH  16  34
TORSDOF 3
