REMARK  Name = ZINC60036331
REMARK  7 active torsions:
REMARK  status: ('A' for Active; 'I' for Inactive)
REMARK    1  A    between atoms: C_1  and  C_2
REMARK    2  A    between atoms: C_2  and  C_4
REMARK    3  A    between atoms: C_2  and  N_13
REMARK    4  A    between atoms: N_6  and  C_7
REMARK    5  A    between atoms: N_13  and  C_14
REMARK    6  A    between atoms: C_14  and  C_15
REMARK    7  A    between atoms: C_15  and  C_21
REMARK                            x       y       z     vdW  Elec       q    Type
REMARK                         _______ _______ _______ _____ _____    ______ ____
ROOT
ATOM      1  N   UNL     1       0.618  -0.372   1.132  0.00  0.00    +0.387 N 
ATOM      2  H   UNL     1       0.378   0.169   1.949  0.00  0.00    -0.085 HD
ATOM      3  H   UNL     1       0.582  -1.355   1.356  0.00  0.00    -0.085 HD
ENDROOT
BRANCH   1   5
ATOM      4  C   UNL     1      -0.371   1.428  -0.202  0.00  0.00    -0.004 C 
ATOM      5  C   UNL     1      -0.335  -0.080   0.053  0.00  0.00    +0.013 C 
BRANCH   5   6
ATOM      6  C   UNL     1      -1.708  -0.554   0.455  0.00  0.00    +0.203 C 
ATOM      7  O   UNL     1      -1.876  -1.083   1.533  0.00  0.00    -0.277 OA
ATOM      8  N   UNL     1      -2.750  -0.390  -0.385  0.00  0.00    -0.287 N 
ATOM      9  H   UNL     1      -2.630   0.093  -1.218  0.00  0.00    +0.155 HD
BRANCH   8  10
ATOM     10  C   UNL     1      -4.004  -0.916  -0.055  0.00  0.00    +0.033 A 
ATOM     11  C   UNL     1      -4.828  -1.425  -1.049  0.00  0.00    +0.023 A 
ATOM     12  C   UNL     1      -6.066  -1.944  -0.720  0.00  0.00    +0.002 A 
ATOM     13  C   UNL     1      -6.484  -1.956   0.598  0.00  0.00    +0.000 A 
ATOM     14  C   UNL     1      -5.665  -1.448   1.590  0.00  0.00    +0.002 A 
ATOM     15  C   UNL     1      -4.425  -0.934   1.269  0.00  0.00    +0.023 A 
ENDBRANCH   8  10
ENDBRANCH   5   6
ENDBRANCH   1   5
BRANCH   1  16
ATOM     16  C   UNL     1       1.976  -0.020   0.694  0.00  0.00    -0.070 C 
BRANCH  16  17
ATOM     17  C   UNL     1       2.977  -0.388   1.791  0.00  0.00    -0.015 C 
ATOM     18  C   UNL     1       2.554   0.264   3.111  0.00  0.00    +0.038 C 
ATOM     19  C   UNL     1       2.594   1.786   2.954  0.00  0.00    +0.160 C 
ATOM     20  O   UNL     1       3.909   2.190   2.565  0.00  0.00    -0.380 OA
ATOM     21  C   UNL     1       4.339   1.648   1.315  0.00  0.00    +0.160 C 
ATOM     22  C   UNL     1       4.369   0.120   1.405  0.00  0.00    +0.038 C 
BRANCH  17  23
ATOM     23  C   UNL     1       3.015  -1.886   1.956  0.00  0.00    -0.043 A 
ATOM     24  C   UNL     1       2.342  -2.697   1.061  0.00  0.00    +0.005 A 
ATOM     25  C   UNL     1       2.377  -4.071   1.212  0.00  0.00    +0.020 A 
ATOM     26  C   UNL     1       3.085  -4.633   2.259  0.00  0.00    +0.041 A 
ATOM     27  C   UNL     1       3.758  -3.821   3.154  0.00  0.00    +0.020 A 
ATOM     28  C   UNL     1       3.727  -2.448   2.999  0.00  0.00    +0.005 A 
ATOM     29 CL   UNL     1       3.128  -6.358   2.450  0.00  0.00    -0.084 Cl
ENDBRANCH  17  23
ENDBRANCH  16  17
ENDBRANCH   1  16
TORSDOF 6
