REMARK  Name = ZINC60285839
REMARK  6 active torsions:
REMARK  status: ('A' for Active; 'I' for Inactive)
REMARK    1  A    between atoms: C_1  and  C_2
REMARK    2  A    between atoms: C_2  and  O_3
REMARK    3  A    between atoms: O_3  and  C_4
REMARK    4  A    between atoms: C_4  and  C_6
REMARK    5  A    between atoms: C_6  and  C_7
REMARK    6  A    between atoms: C_7  and  C_8
REMARK                            x       y       z     vdW  Elec       q    Type
REMARK                         _______ _______ _______ _____ _____    ______ ____
ROOT
ATOM      1  C   UNL     1       2.212  -4.481   3.619  0.00  0.00    +0.216 C 
ATOM      2  O   UNL     1       2.691  -3.741   4.451  0.00  0.00    -0.276 OA
ATOM      3  N   UNL     1       2.320  -5.817   3.764  0.00  0.00    -0.301 N 
ATOM      4  C   UNL     1       1.750  -6.726   2.760  0.00  0.00    +0.110 C 
ATOM      5  C   UNL     1       0.818  -7.717   3.466  0.00  0.00    +0.054 C 
ATOM      6  C   UNL     1       1.575  -8.404   4.598  0.00  0.00    +0.115 C 
ATOM      7  C   UNL     1       2.068  -7.383   5.618  0.00  0.00    +0.054 C 
ATOM      8  C   UNL     1       3.014  -6.389   4.925  0.00  0.00    +0.110 C 
ATOM      9  C   UNL     1       0.698  -9.437   5.268  0.00  0.00    +0.244 C 
ATOM     10  O   UNL     1      -0.350  -9.246   5.847  0.00  0.00    -0.273 OA
ATOM     11  N   UNL     1       1.327 -10.617   5.086  0.00  0.00    -0.238 N 
ATOM     12  C   UNL     1       2.467 -10.467   4.400  0.00  0.00    +0.307 C 
ATOM     13  O   UNL     1       3.208 -11.386   4.112  0.00  0.00    -0.252 OA
ATOM     14  N   UNL     1       2.700  -9.183   4.065  0.00  0.00    -0.285 N 
ATOM     15  H   UNL     1       0.994 -11.468   5.412  0.00  0.00    +0.159 HD
ATOM     16  H   UNL     1       3.461  -8.841   3.570  0.00  0.00    +0.151 HD
ENDROOT
BRANCH   1  17
ATOM     17  C   UNL     1       1.496  -3.909   2.423  0.00  0.00    +0.107 C 
BRANCH  17  18
ATOM     18  C   UNL     1       1.516  -2.381   2.500  0.00  0.00    +0.130 C 
BRANCH  18  19
ATOM     19  C   UNL     1       0.801  -1.808   1.304  0.00  0.00    +0.308 C 
ATOM     20  O   UNL     1       0.324  -2.546   0.475  0.00  0.00    -0.251 OA
BRANCH  19  21
ATOM     21  O   UNL     1       0.693  -0.477   1.160  0.00  0.00    -0.465 OA
BRANCH  21  23
ATOM     22  C   UNL     1      -0.019   1.526   0.010  0.00  0.00    +0.048 C 
ATOM     23  C   UNL     1       0.002  -0.004   0.002  0.00  0.00    +0.229 C 
ENDBRANCH  21  23
ENDBRANCH  19  21
ENDBRANCH  18  19
ENDBRANCH  17  18
ENDBRANCH   1  17
TORSDOF 5
