REMARK  Name = ZINC35703195
REMARK  13 active torsions:
REMARK  status: ('A' for Active; 'I' for Inactive)
REMARK    1  A    between atoms: C_1  and  C_2
REMARK    2  A    between atoms: C_2  and  C_3
REMARK    3  A    between atoms: C_2  and  C_4
REMARK    4  A    between atoms: C_2  and  C_5
REMARK    5  A    between atoms: C_5  and  C_6
REMARK    6  A    between atoms: C_6  and  C_7
REMARK    7  A    between atoms: C_6  and  C_8
REMARK    8  A    between atoms: C_6  and  N_9
REMARK    9  A    between atoms: N_9  and  C_10
REMARK   10  A    between atoms: C_11  and  C_19
REMARK   11  A    between atoms: C_22  and  O_25
REMARK   12  A    between atoms: O_25  and  S_26
REMARK   13  A    between atoms: S_26  and  C_29
REMARK                            x       y       z     vdW  Elec       q    Type
REMARK                         _______ _______ _______ _____ _____    ______ ____
ROOT
ATOM      1  C   UNL     1       4.950   0.376  -3.399  0.00  0.00    +0.129 A 
ATOM      2  C   UNL     1       5.847   0.371  -4.446  0.00  0.00    +0.087 A 
ATOM      3  N   UNL     1       6.991   0.936  -4.018  0.00  0.00    -0.338 N 
ATOM      4  C   UNL     1       6.853   1.296  -2.752  0.00  0.00    +0.117 A 
ATOM      5  N   UNL     1       5.583   0.962  -2.338  0.00  0.00    -0.289 N 
ATOM      6  C   UNL     1       5.179   1.233  -1.058  0.00  0.00    +0.094 A 
ATOM      7  C   UNL     1       6.016   1.832  -0.187  0.00  0.00    +0.018 A 
ATOM      8  C   UNL     1       7.318   2.188  -0.582  0.00  0.00    +0.005 A 
ATOM      9  C   UNL     1       7.737   1.919  -1.847  0.00  0.00    +0.045 A 
ATOM     10  H   UNL     1       7.790   1.060  -4.553  0.00  0.00    +0.167 HD
ENDROOT
BRANCH   2  11
ATOM     11  C   UNL     1       5.596  -0.165  -5.805  0.00  0.00    +0.002 A 
ATOM     12  C   UNL     1       4.967  -1.399  -5.965  0.00  0.00    +0.014 A 
ATOM     13  C   UNL     1       4.735  -1.894  -7.231  0.00  0.00    +0.049 A 
ATOM     14  C   UNL     1       5.126  -1.165  -8.345  0.00  0.00    +0.157 A 
ATOM     15  C   UNL     1       5.753   0.064  -8.190  0.00  0.00    +0.049 A 
ATOM     16  C   UNL     1       5.983   0.567  -6.927  0.00  0.00    +0.014 A 
BRANCH  14  17
ATOM     17  O   UNL     1       4.895  -1.656  -9.592  0.00  0.00    -0.342 OA
BRANCH  17  18
ATOM     18  S   UNL     1       3.553  -1.246 -10.180  0.00  0.00    +0.151 S 
ATOM     19  O   UNL     1       3.384  -2.000 -11.372  0.00  0.00    -0.131 OA
ATOM     20  O   UNL     1       2.614  -1.286  -9.114  0.00  0.00    -0.131 OA
BRANCH  18  21
ATOM     21  C   UNL     1       3.691   0.442 -10.667  0.00  0.00    +0.128 A 
ATOM     22  C   UNL     1       3.380   1.447  -9.771  0.00  0.00    +0.030 A 
ATOM     23  C   UNL     1       3.488   2.772 -10.153  0.00  0.00    +0.002 A 
ATOM     24  C   UNL     1       3.908   3.090 -11.431  0.00  0.00    +0.000 A 
ATOM     25  C   UNL     1       4.220   2.084 -12.327  0.00  0.00    +0.002 A 
ATOM     26  C   UNL     1       4.115   0.760 -11.944  0.00  0.00    +0.030 A 
ENDBRANCH  18  21
ENDBRANCH  17  18
ENDBRANCH  14  17
ENDBRANCH   2  11
BRANCH   1  27
ATOM     27  N   UNL     1       3.644  -0.117  -3.420  0.00  0.00    -0.323 N 
ATOM     28  H   UNL     1       3.291  -0.521  -4.228  0.00  0.00    +0.148 HD
BRANCH  27  29
ATOM     29  C   UNL     1       2.807  -0.025  -2.221  0.00  0.00    +0.028 C 
ATOM     30  C   UNL     1       2.671   1.442  -1.806  0.00  0.00    +0.031 C 
ATOM     31  C   UNL     1       3.455  -0.819  -1.085  0.00  0.00    +0.031 C 
BRANCH  29  32
ATOM     32  C   UNL     1       1.422  -0.601  -2.521  0.00  0.00    +0.031 C 
BRANCH  32  34
ATOM     33  C   UNL     1       1.545  -1.149  -4.955  0.00  0.00    +0.010 C 
ATOM     34  C   UNL     1       0.983  -0.170  -3.922  0.00  0.00    -0.036 C 
ATOM     35  C   UNL     1       1.510   1.236  -4.212  0.00  0.00    +0.010 C 
ATOM     36  C   UNL     1      -0.545  -0.168  -3.999  0.00  0.00    +0.010 C 
ENDBRANCH  32  34
ENDBRANCH  29  32
ENDBRANCH  27  29
ENDBRANCH   1  27
TORSDOF 8
