REMARK  Name = ZINC12192579
REMARK  12 active torsions:
REMARK  status: ('A' for Active; 'I' for Inactive)
REMARK    1  A    between atoms: C_1  and  O_2
REMARK    2  A    between atoms: O_2  and  C_3
REMARK    3  A    between atoms: C_6  and  C_22
REMARK    4  A    between atoms: C_7  and  O_9
REMARK    5  A    between atoms: O_9  and  C_10
REMARK    6  A    between atoms: C_10  and  C_11
REMARK    7  A    between atoms: C_11  and  C_13
REMARK    8  A    between atoms: C_11  and  O_21
REMARK    9  A    between atoms: C_13  and  N_58
REMARK   10  A    between atoms: C_22  and  N_60
REMARK   11  A    between atoms: C_23  and  C_24
REMARK   12  A    between atoms: C_23  and  N_60
REMARK                            x       y       z     vdW  Elec       q    Type
REMARK                         _______ _______ _______ _____ _____    ______ ____
ROOT
ATOM      1  C   UNL     1      -1.240   3.137   0.031  0.00  0.00    +0.124 A 
ATOM      2  C   UNL     1      -1.219   1.749   0.017  0.00  0.00    +0.046 A 
ATOM      3  C   UNL     1      -0.013   1.076   0.008  0.00  0.00    +0.009 A 
ATOM      4  C   UNL     1       1.175   1.782   0.000  0.00  0.00    -0.022 A 
ATOM      5  C   UNL     1       1.159   3.169   0.009  0.00  0.00    +0.125 A 
ATOM      6  C   UNL     1      -0.050   3.847   0.024  0.00  0.00    +0.091 A 
ENDROOT
BRANCH   1   8
ATOM      7  C   UNL     1      -3.614   3.002   0.052  0.00  0.00    +0.277 C 
ATOM      8  O   UNL     1      -2.427   3.799   0.045  0.00  0.00    -0.495 OA
ENDBRANCH   1   8
BRANCH   5   9
ATOM      9  O   UNL     1       2.328   3.863   0.002  0.00  0.00    -0.489 OA
BRANCH   9  10
ATOM     10  C   UNL     1       2.236   5.289   0.011  0.00  0.00    +0.258 C 
BRANCH  10  11
ATOM     11  C   UNL     1       3.642   5.891   0.002  0.00  0.00    +0.135 C 
BRANCH  11  12
ATOM     12  O   UNL     1       4.293   5.562  -1.227  0.00  0.00    -0.390 OA
ATOM     13  H   UNL     1       3.837   5.890  -2.014  0.00  0.00    +0.210 HD
ENDBRANCH  11  12
BRANCH  11  14
ATOM     14  C   UNL     1       3.547   7.412   0.137  0.00  0.00    -0.044 C 
BRANCH  14  22
ATOM     15  C   UNL     1       5.712   7.407  -0.944  0.00  0.00    -0.079 C 
ATOM     16  C   UNL     1       7.000   8.211  -1.121  0.00  0.00    -0.019 C 
ATOM     17  C   UNL     1       7.982   7.851  -0.002  0.00  0.00    -0.002 C 
ATOM     18  C   UNL     1       7.512   8.510   1.298  0.00  0.00    -0.000 C 
ATOM     19  C   UNL     1       7.081   9.948   1.009  0.00  0.00    -0.002 C 
ATOM     20  C   UNL     1       5.572  10.081   1.211  0.00  0.00    -0.019 C 
ATOM     21  C   UNL     1       4.843   9.455   0.017  0.00  0.00    -0.079 C 
ATOM     22  N   UNL     1       4.910   7.983   0.154  0.00  0.00    +0.381 N 
ATOM     23  H   UNL     1       5.357   7.752   1.050  0.00  0.00    -0.082 HD
ENDBRANCH  14  22
ENDBRANCH  11  14
ENDBRANCH  10  11
ENDBRANCH   9  10
ENDBRANCH   5   9
BRANCH   4  24
ATOM     24  C   UNL     1       2.490   1.044  -0.016  0.00  0.00    -0.043 C 
BRANCH  24  25
ATOM     25  N   UNL     1       3.042   1.011   1.351  0.00  0.00    +0.384 N 
ATOM     26  H   UNL     1       2.381   0.531   1.972  0.00  0.00    -0.085 HD
ATOM     27  H   UNL     1       3.187   1.973   1.681  0.00  0.00    -0.085 HD
BRANCH  25  28
ATOM     28  C   UNL     1       4.331   0.294   1.365  0.00  0.00    -0.055 C 
BRANCH  28  29
ATOM     29  C   UNL     1       4.872   0.277   2.772  0.00  0.00    -0.054 C 
ATOM     30  C   UNL     1       5.181  -0.863   3.340  0.00  0.00    +0.002 C 
ENDBRANCH  28  29
ENDBRANCH  25  28
ENDBRANCH  24  25
ENDBRANCH   4  24
TORSDOF 11
