REMARK  Name = ZINC41666179
REMARK  6 active torsions:
REMARK  status: ('A' for Active; 'I' for Inactive)
REMARK    1  A    between atoms: C_1  and  C_2
REMARK    2  A    between atoms: N_8  and  C_9
REMARK    3  A    between atoms: C_9  and  C_10
REMARK    4  A    between atoms: C_10  and  N_11
REMARK    5  A    between atoms: C_12  and  C_14
REMARK    6  A    between atoms: N_16  and  C_17
REMARK                            x       y       z     vdW  Elec       q    Type
REMARK                         _______ _______ _______ _____ _____    ______ ____
ROOT
ATOM      1  C   UNL     1       6.295   0.605   3.629  0.00  0.00    +0.303 C 
ATOM      2  O   UNL     1       6.684   1.287   2.703  0.00  0.00    -0.265 OA
ATOM      3  N   UNL     1       7.100   0.382   4.687  0.00  0.00    -0.276 N 
ATOM      4  H   UNL     1       6.762  -0.095   5.461  0.00  0.00    +0.155 HD
ENDROOT
BRANCH   3   5
ATOM      5  C   UNL     1       8.421   0.838   4.668  0.00  0.00    +0.056 A 
ATOM      6  C   UNL     1       9.068   1.041   3.455  0.00  0.00    +0.072 A 
ATOM      7  C   UNL     1      10.375   1.492   3.439  0.00  0.00    +0.144 A 
ATOM      8  C   UNL     1      11.040   1.742   4.639  0.00  0.00    +0.077 A 
ATOM      9  C   UNL     1      10.394   1.539   5.847  0.00  0.00    +0.048 A 
ATOM     10  C   UNL     1       9.085   1.094   5.862  0.00  0.00    +0.064 A 
ATOM     11 CL   UNL     1       8.271   0.847   7.376  0.00  0.00    -0.082 Cl
ATOM     12  N   UNL     1      12.367   2.198   4.605  0.00  0.00    -0.280 N 
ATOM     13  C   UNL     1      12.864   2.683   3.446  0.00  0.00    +0.255 C 
ATOM     14  O   UNL     1      14.017   3.054   3.386  0.00  0.00    -0.272 OA
ATOM     15  C   UNL     1      11.979   2.760   2.228  0.00  0.00    +0.325 C 
ATOM     16  O   UNL     1      11.023   1.697   2.260  0.00  0.00    -0.481 OA
ATOM     17  H   UNL     1      12.919   2.166   5.402  0.00  0.00    +0.155 HD
ENDBRANCH   3   5
BRANCH   1  19
ATOM     18  N   UNL     1       4.119   0.235   2.538  0.00  0.00    -0.309 N 
ATOM     19  C   UNL     1       4.924   0.013   3.596  0.00  0.00    +0.299 C 
ATOM     20  O   UNL     1       4.535  -0.669   4.521  0.00  0.00    -0.265 OA
ATOM     21  H   UNL     1       4.430   0.780   1.798  0.00  0.00    +0.149 HD
BRANCH  18  22
ATOM     22  C   UNL     1       2.775  -0.346   2.506  0.00  0.00    +0.086 C 
BRANCH  22  23
ATOM     23  C   UNL     1       2.076   0.058   1.206  0.00  0.00    -0.059 C 
BRANCH  23  30
ATOM     24  C   UNL     1      -0.016   1.489  -0.003  0.00  0.00    -0.013 C 
ATOM     25  C   UNL     1       0.016  -0.041  -0.016  0.00  0.00    -0.072 C 
ATOM     26  C   UNL     1      -1.416  -0.580  -0.011  0.00  0.00    -0.016 C 
ATOM     27  C   UNL     1      -1.379  -2.111  -0.025  0.00  0.00    -0.003 C 
ATOM     28  C   UNL     1      -0.570  -2.603   1.179  0.00  0.00    -0.019 C 
ATOM     29  C   UNL     1       0.831  -1.988   1.130  0.00  0.00    -0.078 C 
ATOM     30  N   UNL     1       0.728  -0.525   1.173  0.00  0.00    +0.382 N 
ATOM     31  H   UNL     1       0.224  -0.248   2.002  0.00  0.00    -0.081 HD
ENDBRANCH  23  30
ENDBRANCH  22  23
ENDBRANCH  18  22
ENDBRANCH   1  19
TORSDOF 5
