REMARK  Name = ZINC66514909
REMARK  9 active torsions:
REMARK  status: ('A' for Active; 'I' for Inactive)
REMARK    1  A    between atoms: C_1  and  C_2
REMARK    2  A    between atoms: C_2  and  C_3
REMARK    3  A    between atoms: C_3  and  N_4
REMARK    4  A    between atoms: C_10  and  N_13
REMARK    5  A    between atoms: C_14  and  C_16
REMARK    6  A    between atoms: C_16  and  C_17
REMARK    7  A    between atoms: C_17  and  C_19
REMARK    8  A    between atoms: C_17  and  N_24
REMARK    9  A    between atoms: C_25  and  C_27
REMARK                            x       y       z     vdW  Elec       q    Type
REMARK                         _______ _______ _______ _____ _____    ______ ____
ROOT
ATOM      1  N   UNL     1      -4.776  -4.915   0.175  0.00  0.00    -0.285 N 
ATOM      2  C   UNL     1      -5.316  -6.092   0.547  0.00  0.00    +0.219 C 
ATOM      3  O   UNL     1      -4.797  -7.133   0.205  0.00  0.00    -0.275 OA
ATOM      4  H   UNL     1      -5.143  -4.084   0.513  0.00  0.00    +0.155 HD
ENDROOT
BRANCH   1  11
ATOM      5  N   UNL     1      -1.413  -2.004  -0.019  0.00  0.00    +0.385 N 
ATOM      6  C   UNL     1      -0.968  -2.509  -1.337  0.00  0.00    -0.042 C 
ATOM      7  C   UNL     1      -1.734  -3.793  -1.563  0.00  0.00    -0.061 A 
ATOM      8  C   UNL     1      -1.526  -4.848  -2.432  0.00  0.00    +0.002 A 
ATOM      9  C   UNL     1      -2.393  -5.925  -2.437  0.00  0.00    +0.002 A 
ATOM     10  C   UNL     1      -3.471  -5.950  -1.574  0.00  0.00    +0.023 A 
ATOM     11  C   UNL     1      -3.684  -4.893  -0.700  0.00  0.00    +0.035 A 
ATOM     12  C   UNL     1      -2.812  -3.813  -0.696  0.00  0.00    -0.041 A 
ATOM     13  C   UNL     1      -2.785  -2.542   0.123  0.00  0.00    -0.040 C 
ATOM     14  H   UNL     1      -0.818  -2.356   0.716  0.00  0.00    -0.081 HD
BRANCH   5  15
ATOM     15  C   UNL     1      -1.432  -0.535  -0.009  0.00  0.00    -0.078 C 
BRANCH  15  17
ATOM     16  C   UNL     1      -0.016   1.523  -0.020  0.00  0.00    +0.002 C 
ATOM     17  C   UNL     1       0.003  -0.007  -0.030  0.00  0.00    -0.022 C 
ENDBRANCH  15  17
ENDBRANCH   5  15
ENDBRANCH   1  11
BRANCH   2  18
ATOM     18  C   UNL     1      -6.567  -6.114   1.388  0.00  0.00    +0.123 C 
BRANCH  18  19
ATOM     19  C   UNL     1      -6.968  -7.564   1.668  0.00  0.00    +0.118 C 
BRANCH  19  20
ATOM     20  C   UNL     1      -8.283  -7.588   2.404  0.00  0.00    +0.010 A 
ATOM     21  C   UNL     1      -9.527  -7.825   1.920  0.00  0.00    +0.013 A 
ATOM     22  C   UNL     1     -10.601  -7.797   2.790  0.00  0.00    +0.008 A 
ATOM     23  C   UNL     1     -10.378  -7.533   4.101  0.00  0.00    +0.045 A 
ATOM     24  S   UNL     1      -8.606  -7.320   4.139  0.00  0.00    -0.100 S 
ENDBRANCH  19  20
BRANCH  19  25
ATOM     25  N   UNL     1      -5.937  -8.205   2.489  0.00  0.00    -0.308 N 
ATOM     26  C   UNL     1      -5.785  -9.544   2.453  0.00  0.00    +0.210 C 
ATOM     27  O   UNL     1      -6.500 -10.217   1.742  0.00  0.00    -0.276 OA
ATOM     28  C   UNL     1      -4.725 -10.204   3.297  0.00  0.00    +0.109 C 
ATOM     29  H   UNL     1      -5.365  -7.667   3.057  0.00  0.00    +0.149 HD
ENDBRANCH  19  25
ENDBRANCH  18  19
ENDBRANCH   2  18
TORSDOF 7
