REMARK  Name = ZINC04318061
REMARK  7 active torsions:
REMARK  status: ('A' for Active; 'I' for Inactive)
REMARK    1  A    between atoms: C_1  and  C_2
REMARK    2  A    between atoms: C_2  and  N_48
REMARK    3  A    between atoms: N_12  and  C_13
REMARK    4  A    between atoms: C_13  and  C_14
REMARK    5  A    between atoms: C_14  and  C_16
REMARK    6  A    between atoms: C_14  and  O_17
REMARK    7  A    between atoms: N_24  and  C_25
REMARK                            x       y       z     vdW  Elec       q    Type
REMARK                         _______ _______ _______ _____ _____    ______ ____
ROOT
ATOM      1  C   UNL     1       0.686  -0.054   1.362  0.00  0.00    -0.060 C 
ATOM      2  C   UNL     1      -0.363   0.467   0.377  0.00  0.00    +0.089 C 
ATOM      3  N   UNL     1       0.240   1.499  -0.477  0.00  0.00    -0.304 N 
ATOM      4  C   UNL     1       1.384   0.957  -1.225  0.00  0.00    +0.089 C 
ATOM      5  C   UNL     1       2.433   0.436  -0.240  0.00  0.00    -0.060 C 
ATOM      6  C   UNL     1      -0.694   2.042  -1.329  0.00  0.00    +0.201 A 
ATOM      7  N   UNL     1      -1.329   1.387  -2.280  0.00  0.00    -0.196 NA
ATOM      8  C   UNL     1      -2.166   2.207  -2.917  0.00  0.00    +0.170 A 
ATOM      9  C   UNL     1      -2.044   3.465  -2.336  0.00  0.00    +0.153 A 
ATOM     10  N   UNL     1      -1.101   3.339  -1.325  0.00  0.00    -0.304 N 
ATOM     11  C   UNL     1      -2.822   4.527  -2.830  0.00  0.00    +0.280 A 
ATOM     12  O   UNL     1      -2.732   5.638  -2.336  0.00  0.00    -0.265 OA
ATOM     13  N   UNL     1      -3.668   4.304  -3.856  0.00  0.00    -0.273 N 
ATOM     14  H   UNL     1      -4.223   5.058  -4.210  0.00  0.00    +0.173 HD
ATOM     15  C   UNL     1      -3.778   3.085  -4.411  0.00  0.00    +0.331 A 
ATOM     16  O   UNL     1      -4.551   2.921  -5.335  0.00  0.00    -0.246 OA
ATOM     17  N   UNL     1      -3.053   2.040  -3.969  0.00  0.00    -0.280 N 
ATOM     18  C   UNL     1      -3.201   0.727  -4.600  0.00  0.00    +0.155 C 
ATOM     19  N   UNL     1       1.820  -0.616   0.597  0.00  0.00    +0.382 N 
ATOM     20  H   UNL     1       1.472  -1.367  -0.011  0.00  0.00    -0.082 HD
ENDROOT
BRANCH  19  22
ATOM     21  C   UNL     1       3.872  -1.945   0.712  0.00  0.00    -0.017 C 
ATOM     22  C   UNL     1       2.827  -1.176   1.524  0.00  0.00    -0.082 C 
ENDBRANCH  19  22
BRANCH  10  23
ATOM     23  C   UNL     1      -0.634   4.399  -0.428  0.00  0.00    +0.156 C 
BRANCH  23  24
ATOM     24  C   UNL     1       0.653   5.010  -0.986  0.00  0.00    +0.131 C 
ATOM     25  C   UNL     1       1.211   6.024   0.014  0.00  0.00    +0.039 C 
BRANCH  24  26
ATOM     26  O   UNL     1       0.371   5.666  -2.223  0.00  0.00    -0.390 OA
ATOM     27  H   UNL     1      -0.276   6.381  -2.151  0.00  0.00    +0.210 HD
ENDBRANCH  24  26
ENDBRANCH  23  24
ENDBRANCH  10  23
TORSDOF 4
