REMARK  Name = ZINC13387867
REMARK  7 active torsions:
REMARK  status: ('A' for Active; 'I' for Inactive)
REMARK    1  A    between atoms: C_1  and  C_2
REMARK    2  A    between atoms: C_2  and  C_4
REMARK    3  A    between atoms: C_2  and  O_35
REMARK    4  A    between atoms: C_7  and  N_10
REMARK    5  A    between atoms: C_11  and  C_13
REMARK    6  A    between atoms: C_19  and  C_28
REMARK    7  A    between atoms: C_22  and  C_24
REMARK                            x       y       z     vdW  Elec       q    Type
REMARK                         _______ _______ _______ _____ _____    ______ ____
ROOT
ATOM      1  C   UNL     1       4.707  -2.864   5.662  0.00  0.00    +0.091 C 
ATOM      2  C   UNL     1       6.038  -3.217   5.751  0.00  0.00    +0.104 C 
ATOM      3  N   UNL     1       6.284  -3.728   6.984  0.00  0.00    -0.269 N 
ATOM      4  N   UNL     1       5.113  -3.739   7.733  0.00  0.00    -0.226 N 
ATOM      5  C   UNL     1       4.102  -3.185   6.961  0.00  0.00    +0.126 C 
ATOM      6  N   UNL     1       2.880  -3.026   7.378  0.00  0.00    -0.364 N 
ATOM      7  C   UNL     1       2.542  -3.405   8.756  0.00  0.00    +0.113 C 
ATOM      8  C   UNL     1       3.399  -4.588   9.212  0.00  0.00    +0.062 C 
ATOM      9  C   UNL     1       4.886  -4.231   9.097  0.00  0.00    +0.201 C 
ATOM     10  H   UNL     1       7.148  -4.038   7.297  0.00  0.00    +0.170 HD
ATOM     11  H   UNL     1       2.201  -2.662   6.788  0.00  0.00    +0.161 HD
ENDROOT
BRANCH   7  12
ATOM     12  C   UNL     1       2.789  -2.232   9.669  0.00  0.00    -0.025 A 
ATOM     13  C   UNL     1       3.898  -1.430   9.478  0.00  0.00    +0.008 A 
ATOM     14  C   UNL     1       4.125  -0.353  10.315  0.00  0.00    +0.038 A 
ATOM     15  C   UNL     1       3.241  -0.079  11.345  0.00  0.00    +0.123 A 
ATOM     16  C   UNL     1       2.131  -0.884  11.535  0.00  0.00    +0.038 A 
ATOM     17  C   UNL     1       1.903  -1.956  10.694  0.00  0.00    +0.008 A 
ATOM     18  F   UNL     1       3.462   0.973  12.163  0.00  0.00    -0.205 F 
ENDBRANCH   7  12
BRANCH   1  20
ATOM     19  N   UNL     1       2.771  -1.814   4.618  0.00  0.00    -0.281 N 
ATOM     20  C   UNL     1       4.031  -2.276   4.501  0.00  0.00    +0.253 C 
ATOM     21  O   UNL     1       4.608  -2.206   3.432  0.00  0.00    -0.270 OA
ATOM     22  H   UNL     1       2.355  -1.753   5.493  0.00  0.00    +0.155 HD
BRANCH  19  26
ATOM     23  C   UNL     1       0.658  -0.643   1.224  0.00  0.00    -0.019 A 
ATOM     24  C   UNL     1      -0.008  -1.236   2.281  0.00  0.00    +0.008 A 
ATOM     25  C   UNL     1       0.689  -1.625   3.408  0.00  0.00    +0.023 A 
ATOM     26  C   UNL     1       2.061  -1.421   3.478  0.00  0.00    +0.034 A 
ATOM     27  C   UNL     1       2.727  -0.826   2.415  0.00  0.00    +0.023 A 
ATOM     28  C   UNL     1       2.025  -0.443   1.289  0.00  0.00    +0.008 A 
BRANCH  23  30
ATOM     29  C   UNL     1      -0.689   1.179   0.216  0.00  0.00    +0.043 C 
ATOM     30  C   UNL     1      -0.106  -0.219  -0.003  0.00  0.00    +0.141 C 
BRANCH  30  31
ATOM     31  O   UNL     1      -1.168  -1.145  -0.247  0.00  0.00    -0.387 OA
ATOM     32  H   UNL     1      -1.805  -1.211   0.477  0.00  0.00    +0.210 HD
ENDBRANCH  30  31
ENDBRANCH  23  30
ENDBRANCH  19  26
ENDBRANCH   1  20
BRANCH   9  33
ATOM     33  C   UNL     1       5.751  -5.466   9.356  0.00  0.00    +0.410 C 
ATOM     34  F   UNL     1       7.101  -5.130   9.207  0.00  0.00    -0.169 F 
ATOM     35  F   UNL     1       5.527  -5.927  10.658  0.00  0.00    -0.169 F 
ATOM     36  F   UNL     1       5.416  -6.471   8.442  0.00  0.00    -0.169 F 
ENDBRANCH   9  33
TORSDOF 6
