REMARK  Name = ZINC42691439
REMARK  8 active torsions:
REMARK  status: ('A' for Active; 'I' for Inactive)
REMARK    1  A    between atoms: C_1  and  C_2
REMARK    2  A    between atoms: C_2  and  C_3
REMARK    3  A    between atoms: C_2  and  C_4
REMARK    4  A    between atoms: C_4  and  N_5
REMARK    5  A    between atoms: N_5  and  C_6
REMARK    6  A    between atoms: N_5  and  C_10
REMARK    7  A    between atoms: C_6  and  C_7
REMARK    8  A    between atoms: C_19  and  N_20
REMARK                            x       y       z     vdW  Elec       q    Type
REMARK                         _______ _______ _______ _____ _____    ______ ____
ROOT
ATOM      1  C   UNL     1      -1.552  -3.614  -1.048  0.00  0.00    +0.062 A 
ATOM      2  C   UNL     1      -0.335  -4.079  -1.596  0.00  0.00    +0.022 A 
ATOM      3  C   UNL     1       0.813  -4.224  -0.804  0.00  0.00    +0.027 A 
ATOM      4  C   UNL     1       1.968  -4.676  -1.368  0.00  0.00    +0.019 A 
ATOM      5  C   UNL     1       2.023  -4.996  -2.724  0.00  0.00    +0.017 A 
ATOM      6  C   UNL     1       0.928  -4.866  -3.520  0.00  0.00    +0.027 A 
ATOM      7  C   UNL     1      -0.282  -4.403  -2.974  0.00  0.00    +0.048 A 
ATOM      8  N   UNL     1      -1.373  -4.268  -3.736  0.00  0.00    -0.359 N 
ATOM      9  C   UNL     1      -2.511  -3.837  -3.243  0.00  0.00    +0.107 A 
ATOM     10  C   UNL     1      -2.647  -3.503  -1.897  0.00  0.00    +0.063 A 
ATOM     11 BR   UNL     1       3.516  -4.871  -0.299  0.00  0.00    -0.050 Br
ATOM     12  H   UNL     1      -1.322  -4.494  -4.678  0.00  0.00    +0.165 HD
ENDROOT
BRANCH  10  13
ATOM     13  N   UNL     1      -3.880  -3.052  -1.403  0.00  0.00    -0.355 N 
ATOM     14  H   UNL     1      -3.914  -2.528  -0.588  0.00  0.00    +0.142 HD
ATOM     15  H   UNL     1      -4.699  -3.265  -1.877  0.00  0.00    +0.142 HD
ENDBRANCH  10  13
BRANCH   1  16
ATOM     16  N   UNL     1      -1.652  -3.283   0.300  0.00  0.00    -0.319 N 
BRANCH  16  17
ATOM     17  C   UNL     1      -1.551  -1.884   0.720  0.00  0.00    +0.108 C 
BRANCH  17  19
ATOM     18  C   UNL     1       0.035  -0.050   1.326  0.00  0.00    +0.009 C 
ATOM     19  C   UNL     1      -0.088  -1.542   1.008  0.00  0.00    +0.000 C 
ATOM     20  C   UNL     1       0.401  -2.360   2.205  0.00  0.00    +0.009 C 
ENDBRANCH  17  19
ENDBRANCH  16  17
BRANCH  16  21
ATOM     21  C   UNL     1      -1.858  -4.335   1.299  0.00  0.00    +0.200 C 
BRANCH  21  22
ATOM     22  C   UNL     1      -3.335  -4.527   1.528  0.00  0.00    +0.228 C 
ATOM     23  O   UNL     1      -4.132  -3.775   1.010  0.00  0.00    -0.274 OA
ATOM     24  N   UNL     1      -3.770  -5.536   2.309  0.00  0.00    -0.328 N 
ATOM     25  H   UNL     1      -3.132  -6.138   2.724  0.00  0.00    +0.145 HD
ATOM     26  H   UNL     1      -4.720  -5.660   2.457  0.00  0.00    +0.145 HD
ENDBRANCH  21  22
ENDBRANCH  16  21
ENDBRANCH   1  16
TORSDOF 6
