REMARK  Name = ZINC20808467
REMARK  13 active torsions:
REMARK  status: ('A' for Active; 'I' for Inactive)
REMARK    1  A    between atoms: C_1  and  C_2
REMARK    2  A    between atoms: C_6  and  N_9
REMARK    3  A    between atoms: C_7  and  C_8
REMARK    4  A    between atoms: C_10  and  C_12
REMARK    5  A    between atoms: C_12  and  N_13
REMARK    6  A    between atoms: N_16  and  C_19
REMARK    7  A    between atoms: C_19  and  C_20
REMARK    8  A    between atoms: N_22  and  C_23
REMARK    9  A    between atoms: C_23  and  C_24
REMARK   10  A    between atoms: N_26  and  C_27
REMARK   11  A    between atoms: C_28  and  C_35
REMARK   12  A    between atoms: C_30  and  C_34
REMARK   13  A    between atoms: C_32  and  C_33
REMARK                            x       y       z     vdW  Elec       q    Type
REMARK                         _______ _______ _______ _____ _____    ______ ____
ROOT
ATOM      1  N   UNL     1      -0.234   8.051  -2.058  0.00  0.00    -0.298 NA
ATOM      2  C   UNL     1      -1.201   7.114  -2.649  0.00  0.00    +0.066 C 
ATOM      3  C   UNL     1      -2.606   7.716  -2.568  0.00  0.00    -0.063 C 
ATOM      4  N   UNL     1      -2.625   9.004  -3.275  0.00  0.00    +0.387 N 
ATOM      5  C   UNL     1      -1.659   9.941  -2.685  0.00  0.00    -0.063 C 
ATOM      6  C   UNL     1      -0.254   9.339  -2.765  0.00  0.00    +0.066 C 
ATOM      7  H   UNL     1      -2.329   8.824  -4.319  0.00  0.00    -0.081 HD
ENDROOT
BRANCH   1   8
ATOM      8  C   UNL     1       1.117   7.476  -2.049  0.00  0.00    +0.180 C 
BRANCH   8  10
ATOM      9  N   UNL     1       2.299   5.603  -0.946  0.00  0.00    -0.284 N 
ATOM     10  C   UNL     1       1.153   6.293  -1.116  0.00  0.00    +0.231 C 
ATOM     11  O   UNL     1       0.152   5.961  -0.518  0.00  0.00    -0.274 OA
ATOM     12  H   UNL     1       3.224   5.946  -1.432  0.00  0.00    +0.155 HD
BRANCH   9  18
ATOM     13  C   UNL     1       4.819   2.310   1.695  0.00  0.00    +0.044 C 
ATOM     14  C   UNL     1       3.518   2.833   1.141  0.00  0.00    -0.046 A 
ATOM     15  C   UNL     1       2.335   2.173   1.419  0.00  0.00    +0.004 A 
ATOM     16  C   UNL     1       1.140   2.650   0.912  0.00  0.00    +0.002 A 
ATOM     17  C   UNL     1       1.125   3.787   0.128  0.00  0.00    +0.023 A 
ATOM     18  C   UNL     1       2.311   4.451  -0.152  0.00  0.00    +0.037 A 
ATOM     19  C   UNL     1       3.510   3.970   0.358  0.00  0.00    -0.026 A 
ATOM     20  C   UNL     1       4.800   4.689   0.058  0.00  0.00    +0.046 C 
ENDBRANCH   9  18
ENDBRANCH   8  10
ENDBRANCH   1   8
BRANCH   4  21
ATOM     21  C   UNL     1      -3.977   9.579  -3.285  0.00  0.00    +0.019 C 
BRANCH  21  22
ATOM     22  C   UNL     1      -4.888   8.707  -4.110  0.00  0.00    +0.197 C 
ATOM     23  O   UNL     1      -4.453   7.705  -4.638  0.00  0.00    -0.278 OA
ATOM     24  N   UNL     1      -6.185   9.040  -4.261  0.00  0.00    -0.308 N 
ATOM     25  H   UNL     1      -6.579   9.949  -3.783  0.00  0.00    +0.149 HD
BRANCH  24  26
ATOM     26  C   UNL     1      -7.070   8.193  -5.064  0.00  0.00    +0.200 C 
BRANCH  26  27
ATOM     27  C   UNL     1      -8.457   8.782  -5.074  0.00  0.00    +0.234 C 
ATOM     28  O   UNL     1      -8.683   9.810  -4.470  0.00  0.00    -0.274 OA
ATOM     29  N   UNL     1      -9.445   8.168  -5.753  0.00  0.00    -0.284 N 
ATOM     30  H   UNL     1      -9.265   7.189  -6.221  0.00  0.00    +0.155 HD
BRANCH  29  31
ATOM     31  C   UNL     1     -10.701   8.776  -5.864  0.00  0.00    +0.039 A 
ATOM     32  C   UNL     1     -11.408   9.124  -4.721  0.00  0.00    -0.029 A 
ATOM     33  C   UNL     1     -12.645   9.728  -4.833  0.00  0.00    +0.008 A 
ATOM     34  C   UNL     1     -13.184   9.976  -6.082  0.00  0.00    -0.050 A 
ATOM     35  C   UNL     1     -12.485   9.626  -7.222  0.00  0.00    +0.008 A 
ATOM     36  C   UNL     1     -11.245   9.027  -7.117  0.00  0.00    -0.029 A 
ATOM     37  C   UNL     1     -10.483   8.645  -8.360  0.00  0.00    +0.045 C 
ATOM     38  C   UNL     1     -14.537  10.630  -6.201  0.00  0.00    +0.044 C 
ATOM     39  C   UNL     1     -10.824   8.849  -3.359  0.00  0.00    +0.045 C 
ENDBRANCH  29  31
ENDBRANCH  26  27
ENDBRANCH  24  26
ENDBRANCH  21  22
ENDBRANCH   4  21
TORSDOF 8
