REMARK  Name = ZINC48182263
REMARK  14 active torsions:
REMARK  status: ('A' for Active; 'I' for Inactive)
REMARK    1  A    between atoms: C_1  and  C_2
REMARK    2  A    between atoms: C_4  and  C_25
REMARK    3  A    between atoms: C_7  and  N_8
REMARK    4  A    between atoms: N_11  and  C_12
REMARK    5  A    between atoms: C_12  and  C_13
REMARK    6  A    between atoms: C_13  and  C_15
REMARK    7  A    between atoms: C_13  and  N_18
REMARK    8  A    between atoms: C_15  and  C_16
REMARK    9  A    between atoms: C_15  and  C_17
REMARK   10  A    between atoms: N_18  and  C_19
REMARK   11  A    between atoms: N_18  and  C_22
REMARK   12  A    between atoms: C_19  and  C_20
REMARK   13  A    between atoms: C_22  and  C_23
REMARK   14  A    between atoms: N_27  and  C_28
REMARK                            x       y       z     vdW  Elec       q    Type
REMARK                         _______ _______ _______ _____ _____    ______ ____
ROOT
ATOM      1  N   UNL     1       0.566  -1.541   2.983  0.00  0.00    -0.269 N 
ATOM      2  C   UNL     1       0.129  -1.730   4.244  0.00  0.00    +0.304 C 
ATOM      3  O   UNL     1      -0.284  -2.820   4.587  0.00  0.00    -0.253 OA
ATOM      4  N   UNL     1       0.150  -0.710   5.124  0.00  0.00    -0.301 N 
ATOM      5  H   UNL     1       0.960  -0.692   2.728  0.00  0.00    +0.156 HD
ATOM      6  H   UNL     1       0.480   0.161   4.851  0.00  0.00    +0.150 HD
ENDROOT
BRANCH   1  13
ATOM      7  C   UNL     1       0.041  -0.825   0.284  0.00  0.00    +0.045 C 
ATOM      8  C   UNL     1       0.196  -2.261   0.712  0.00  0.00    -0.028 A 
ATOM      9  C   UNL     1       0.088  -3.271  -0.218  0.00  0.00    +0.018 A 
ATOM     10  C   UNL     1       0.232  -4.603   0.179  0.00  0.00    +0.037 A 
ATOM     11  C   UNL     1       0.484  -4.906   1.520  0.00  0.00    +0.015 A 
ATOM     12  C   UNL     1       0.591  -3.892   2.445  0.00  0.00    +0.024 A 
ATOM     13  C   UNL     1       0.453  -2.566   2.045  0.00  0.00    +0.038 A 
BRANCH  10  14
ATOM     14  C   UNL     1       0.117  -5.688  -0.815  0.00  0.00    +0.244 C 
ATOM     15  O   UNL     1      -0.103  -5.423  -1.981  0.00  0.00    -0.270 OA
ATOM     16  N   UNL     1       0.256  -6.972  -0.430  0.00  0.00    -0.314 N 
ATOM     17  C   UNL     1       0.141  -8.049  -1.417  0.00  0.00    +0.128 C 
ATOM     18  H   UNL     1       0.431  -7.183   0.500  0.00  0.00    +0.149 HD
ENDBRANCH  10  14
ENDBRANCH   1  13
BRANCH   4  19
ATOM     19  C   UNL     1      -0.325  -0.915   6.495  0.00  0.00    +0.091 C 
BRANCH  19  20
ATOM     20  C   UNL     1      -0.371   0.429   7.225  0.00  0.00    -0.048 C 
BRANCH  20  21
ATOM     21  C   UNL     1      -0.575   0.189   8.723  0.00  0.00    -0.029 C 
ATOM     22  C   UNL     1       0.643  -0.541   9.293  0.00  0.00    +0.005 C 
ATOM     23  C   UNL     1      -0.745   1.531   9.436  0.00  0.00    +0.005 C 
ENDBRANCH  20  21
BRANCH  20  24
ATOM     24  N   UNL     1      -1.483   1.233   6.702  0.00  0.00    +0.387 N 
ATOM     25  H   UNL     1      -1.564   2.084   7.238  0.00  0.00    -0.080 HD
BRANCH  24  26
ATOM     26  C   UNL     1      -1.229   1.563   5.294  0.00  0.00    -0.051 C 
BRANCH  26  27
ATOM     27  C   UNL     1      -2.135   2.691   4.870  0.00  0.00    -0.053 C 
ATOM     28  C   UNL     1      -1.624   3.798   4.391  0.00  0.00    +0.002 C 
ENDBRANCH  26  27
ENDBRANCH  24  26
BRANCH  24  29
ATOM     29  C   UNL     1      -2.733   0.468   6.808  0.00  0.00    -0.051 C 
BRANCH  29  30
ATOM     30  C   UNL     1      -3.898   1.359   6.465  0.00  0.00    -0.053 C 
ATOM     31  C   UNL     1      -4.738   1.007   5.524  0.00  0.00    +0.002 C 
ENDBRANCH  29  30
ENDBRANCH  24  29
ENDBRANCH  20  24
ENDBRANCH  19  20
ENDBRANCH   4  19
TORSDOF 10
