REMARK  Name = ZINC39789499
REMARK  6 active torsions:
REMARK  status: ('A' for Active; 'I' for Inactive)
REMARK    1  A    between atoms: C_1  and  C_2
REMARK    2  A    between atoms: N_4  and  C_21
REMARK    3  A    between atoms: C_5  and  S_11
REMARK    4  A    between atoms: C_7  and  C_9
REMARK    5  A    between atoms: C_9  and  N_10
REMARK    6  A    between atoms: S_11  and  C_12
REMARK                            x       y       z     vdW  Elec       q    Type
REMARK                         _______ _______ _______ _____ _____    ______ ____
ROOT
ATOM      1  C   UNL     1      -0.315   1.462  -0.388  0.00  0.00    +0.062 C 
ATOM      2  C   UNL     1      -0.156  -0.024  -0.191  0.00  0.00    +0.038 C 
ATOM      3  N   UNL     1       0.012  -0.871  -1.123  0.00  0.00    -0.188 NA
ATOM      4  N   UNL     1       0.134  -2.189  -0.689  0.00  0.00    -0.211 N 
ATOM      5  C   UNL     1       0.028  -2.216   0.779  0.00  0.00    +0.169 C 
ATOM      6  C   UNL     1      -0.167  -0.730   1.146  0.00  0.00    +0.050 C 
ENDROOT
BRANCH   4   7
ATOM      7  C   UNL     1       0.325  -3.302  -1.511  0.00  0.00    +0.053 A 
ATOM      8  C   UNL     1       0.515  -4.558  -0.950  0.00  0.00    +0.025 A 
ATOM      9  C   UNL     1       0.704  -5.656  -1.766  0.00  0.00    +0.002 A 
ATOM     10  C   UNL     1       0.704  -5.506  -3.141  0.00  0.00    +0.000 A 
ATOM     11  C   UNL     1       0.514  -4.257  -3.703  0.00  0.00    +0.002 A 
ATOM     12  C   UNL     1       0.319  -3.155  -2.893  0.00  0.00    +0.025 A 
ENDBRANCH   4   7
BRANCH   6  13
ATOM     13  C   UNL     1       0.985  -0.236   2.024  0.00  0.00    -0.074 C 
BRANCH  13  14
ATOM     14  N   UNL     1       0.762   1.173   2.375  0.00  0.00    +0.379 N 
ATOM     15  H   UNL     1      -0.107   1.261   2.879  0.00  0.00    -0.090 HD
ATOM     16  H   UNL     1       1.521   1.499   2.954  0.00  0.00    -0.090 HD
ATOM     17  H   UNL     1       0.720   1.727   1.533  0.00  0.00    -0.090 HD
ENDBRANCH  13  14
ENDBRANCH   6  13
BRANCH   5  18
ATOM     18  S   UNL     1       1.552  -2.862   1.520  0.00  0.00    -0.063 S 
BRANCH  18  19
ATOM     19  C   UNL     1       1.063  -3.356   3.139  0.00  0.00    +0.169 A 
ATOM     20  N   UNL     1      -0.166  -3.336   3.593  0.00  0.00    -0.222 NA
ATOM     21  C   UNL     1      -0.185  -3.781   4.877  0.00  0.00    +0.090 A 
ATOM     22  C   UNL     1      -1.204  -3.961   5.815  0.00  0.00    +0.030 A 
ATOM     23  C   UNL     1      -0.902  -4.442   7.069  0.00  0.00    +0.002 A 
ATOM     24  C   UNL     1       0.406  -4.751   7.409  0.00  0.00    +0.002 A 
ATOM     25  C   UNL     1       1.425  -4.579   6.493  0.00  0.00    +0.028 A 
ATOM     26  C   UNL     1       1.139  -4.095   5.226  0.00  0.00    +0.067 A 
ATOM     27  N   UNL     1       1.908  -3.822   4.106  0.00  0.00    -0.333 N 
ATOM     28  H   UNL     1       2.868  -3.938   4.025  0.00  0.00    +0.168 HD
ENDBRANCH  18  19
ENDBRANCH   5  18
TORSDOF 5
