REMARK  Name = ZINC11914291
REMARK  12 active torsions:
REMARK  status: ('A' for Active; 'I' for Inactive)
REMARK    1  A    between atoms: C_1  and  N_2
REMARK    2  A    between atoms: N_2  and  C_3
REMARK    3  A    between atoms: N_2  and  C_4
REMARK    4  A    between atoms: C_4  and  C_5
REMARK    5  A    between atoms: C_5  and  C_6
REMARK    6  A    between atoms: C_6  and  N_7
REMARK    7  A    between atoms: C_8  and  C_19
REMARK    8  A    between atoms: N_12  and  C_13
REMARK    9  A    between atoms: C_22  and  S_25
REMARK   10  A    between atoms: S_25  and  N_28
REMARK   11  A    between atoms: N_28  and  C_29
REMARK   12  A    between atoms: N_28  and  C_30
REMARK                            x       y       z     vdW  Elec       q    Type
REMARK                         _______ _______ _______ _____ _____    ______ ____
ROOT
ATOM      1  N   UNL     1      -1.373  -2.035  -0.126  0.00  0.00    -0.321 N 
ATOM      2  C   UNL     1      -2.641  -2.502   0.086  0.00  0.00    +0.058 A 
ATOM      3  C   UNL     1      -3.623  -1.640   0.420  0.00  0.00    +0.075 A 
ATOM      4  S   UNL     1      -2.755  -0.080   0.455  0.00  0.00    -0.059 S 
ATOM      5  C   UNL     1      -1.136  -0.687   0.009  0.00  0.00    +0.152 A 
ATOM      6  N   UNL     1      -0.008  -0.019  -0.144  0.00  0.00    -0.336 N 
ATOM      7  H   UNL     1       0.899  -0.542  -0.483  0.00  0.00    +0.168 HD
ENDROOT
BRANCH   6   8
ATOM      8  C   UNL     1       0.034   1.321   0.119  0.00  0.00    +0.041 A 
ATOM      9  C   UNL     1      -0.211   2.245  -0.900  0.00  0.00    +0.025 A 
ATOM     10  C   UNL     1      -0.172   3.596  -0.626  0.00  0.00    +0.002 A 
ATOM     11  C   UNL     1       0.118   4.038   0.652  0.00  0.00    +0.000 A 
ATOM     12  C   UNL     1       0.367   3.130   1.666  0.00  0.00    +0.002 A 
ATOM     13  C   UNL     1       0.327   1.775   1.408  0.00  0.00    +0.025 A 
ENDBRANCH   6   8
BRANCH   2  14
ATOM     14  C   UNL     1      -2.934  -3.945  -0.051  0.00  0.00    -0.001 A 
ATOM     15  C   UNL     1      -4.107  -4.366  -0.679  0.00  0.00    +0.012 A 
ATOM     16  C   UNL     1      -4.372  -5.714  -0.809  0.00  0.00    +0.029 A 
ATOM     17  C   UNL     1      -3.483  -6.648  -0.307  0.00  0.00    +0.105 A 
ATOM     18  C   UNL     1      -2.321  -6.237   0.322  0.00  0.00    +0.029 A 
ATOM     19  C   UNL     1      -2.042  -4.893   0.453  0.00  0.00    +0.012 A 
BRANCH  17  20
ATOM     20  S   UNL     1      -3.832  -8.367  -0.469  0.00  0.00    +0.060 S 
ATOM     21  O   UNL     1      -4.713  -8.500  -1.577  0.00  0.00    -0.153 OA
ATOM     22  O   UNL     1      -2.584  -9.043  -0.403  0.00  0.00    -0.153 OA
BRANCH  20  23
ATOM     23  N   UNL     1      -4.688  -8.822   0.873  0.00  0.00    -0.183 NA
ATOM     24  C   UNL     1      -6.151  -8.746   0.870  0.00  0.00    +0.131 C 
ATOM     25  C   UNL     1      -3.982  -9.300   2.065  0.00  0.00    +0.131 C 
ENDBRANCH  20  23
ENDBRANCH  17  20
ENDBRANCH   2  14
BRANCH   1  26
ATOM     26  C   UNL     1      -0.289  -2.951  -0.489  0.00  0.00    +0.122 C 
BRANCH  26  27
ATOM     27  C   UNL     1       0.649  -2.263  -1.483  0.00  0.00    +0.003 C 
BRANCH  27  28
ATOM     28  C   UNL     1       1.781  -3.220  -1.862  0.00  0.00    -0.078 C 
BRANCH  28  30
ATOM     29  C   UNL     1       3.377  -1.429  -2.187  0.00  0.00    -0.097 C 
ATOM     30  N   UNL     1       2.682  -2.560  -2.816  0.00  0.00    +0.376 N 
ATOM     31  C   UNL     1       3.641  -3.517  -3.384  0.00  0.00    -0.097 C 
ATOM     32  H   UNL     1       2.070  -2.165  -3.640  0.00  0.00    -0.083 HD
ENDBRANCH  28  30
ENDBRANCH  27  28
ENDBRANCH  26  27
ENDBRANCH   1  26
TORSDOF 8
