REMARK  Name = ZINC40561479
REMARK  11 active torsions:
REMARK  status: ('A' for Active; 'I' for Inactive)
REMARK    1  A    between atoms: C_1  and  N_2
REMARK    2  A    between atoms: N_2  and  C_3
REMARK    3  A    between atoms: N_2  and  C_4
REMARK    4  A    between atoms: C_4  and  C_5
REMARK    5  A    between atoms: C_5  and  N_6
REMARK    6  A    between atoms: C_7  and  C_24
REMARK    7  A    between atoms: C_15  and  O_22
REMARK    8  A    between atoms: O_22  and  C_23
REMARK    9  A    between atoms: C_27  and  O_30
REMARK   10  A    between atoms: O_30  and  C_31
REMARK   11  A    between atoms: C_31  and  C_32
REMARK                            x       y       z     vdW  Elec       q    Type
REMARK                         _______ _______ _______ _____ _____    ______ ____
ROOT
ATOM      1  N   UNL     1      -3.452  -0.617  -1.276  0.00  0.00    -0.285 N 
ATOM      2  C   UNL     1      -3.894  -1.929  -1.777  0.00  0.00    +0.144 C 
ATOM      3  C   UNL     1      -5.370  -1.976  -1.549  0.00  0.00    +0.072 A 
ATOM      4  C   UNL     1      -6.361  -3.015  -1.849  0.00  0.00    +0.199 A 
ATOM      5  O   UNL     1      -6.060  -4.140  -2.208  0.00  0.00    -0.287 OA
ATOM      6  C   UNL     1      -7.763  -2.567  -1.673  0.00  0.00    +0.065 A 
ATOM      7  C   UNL     1      -8.820  -3.369  -2.107  0.00  0.00    +0.019 A 
ATOM      8  C   UNL     1     -10.107  -2.943  -1.944  0.00  0.00    +0.046 A 
ATOM      9  C   UNL     1     -10.366  -1.710  -1.347  0.00  0.00    +0.124 A 
ATOM     10  C   UNL     1      -9.330  -0.905  -0.911  0.00  0.00    +0.092 A 
ATOM     11  C   UNL     1      -8.011  -1.323  -1.065  0.00  0.00    +0.143 A 
ATOM     12  O   UNL     1      -7.013  -0.524  -0.623  0.00  0.00    -0.449 OA
ATOM     13  C   UNL     1      -5.738  -0.798  -0.965  0.00  0.00    +0.199 A 
ATOM     14  C   UNL     1      -4.534   0.034  -0.800  0.00  0.00    +0.283 C 
ATOM     15  O   UNL     1      -4.517   1.145  -0.310  0.00  0.00    -0.267 OA
ENDROOT
BRANCH   2  16
ATOM     16  C   UNL     1      -3.214  -3.034  -1.011  0.00  0.00    -0.022 A 
ATOM     17  C   UNL     1      -3.037  -2.920   0.356  0.00  0.00    +0.009 A 
ATOM     18  C   UNL     1      -2.413  -3.931   1.060  0.00  0.00    +0.046 A 
ATOM     19  C   UNL     1      -1.964  -5.062   0.395  0.00  0.00    +0.121 A 
ATOM     20  C   UNL     1      -2.142  -5.175  -0.976  0.00  0.00    +0.046 A 
ATOM     21  C   UNL     1      -2.771  -4.163  -1.675  0.00  0.00    +0.009 A 
BRANCH  19  22
ATOM     22  O   UNL     1      -1.349  -6.059   1.086  0.00  0.00    -0.487 OA
BRANCH  22  23
ATOM     23  C   UNL     1      -0.912  -7.194   0.336  0.00  0.00    +0.264 C 
BRANCH  23  24
ATOM     24  C   UNL     1      -0.259  -8.187   1.262  0.00  0.00    -0.010 A 
ATOM     25  C   UNL     1       1.099  -8.111   1.510  0.00  0.00    +0.008 A 
ATOM     26  C   UNL     1       1.699  -9.021   2.360  0.00  0.00    +0.020 A 
ATOM     27  C   UNL     1       0.940 -10.008   2.962  0.00  0.00    +0.041 A 
ATOM     28  C   UNL     1      -0.419 -10.084   2.714  0.00  0.00    +0.020 A 
ATOM     29  C   UNL     1      -1.018  -9.170   1.869  0.00  0.00    +0.008 A 
ATOM     30 CL   UNL     1       1.693 -11.152   4.029  0.00  0.00    -0.084 Cl
ENDBRANCH  23  24
ENDBRANCH  22  23
ENDBRANCH  19  22
ENDBRANCH   2  16
BRANCH   9  31
ATOM     31  O   UNL     1     -11.649  -1.295  -1.194  0.00  0.00    -0.495 OA
ATOM     32  C   UNL     1     -12.675  -2.171  -1.665  0.00  0.00    +0.277 C 
ENDBRANCH   9  31
BRANCH   1  33
ATOM     33  C   UNL     1      -2.078  -0.110  -1.286  0.00  0.00    +0.090 C 
BRANCH  33  34
ATOM     34  C   UNL     1      -1.376  -0.512   0.012  0.00  0.00    -0.060 C 
BRANCH  34  36
ATOM     35  C   UNL     1      -0.018   1.465   0.010  0.00  0.00    -0.097 C 
ATOM     36  N   UNL     1       0.002  -0.004   0.002  0.00  0.00    +0.377 N 
ATOM     37  C   UNL     1       0.713  -0.491   1.192  0.00  0.00    -0.097 C 
ATOM     38  H   UNL     1       0.474  -0.330  -0.828  0.00  0.00    -0.083 HD
ENDBRANCH  34  36
ENDBRANCH  33  34
ENDBRANCH   1  33
TORSDOF 8
