REMARK  Name = ZINC64550851
REMARK  4 active torsions:
REMARK  status: ('A' for Active; 'I' for Inactive)
REMARK    1  A    between atoms: C_3  and  C_6
REMARK    2  A    between atoms: C_6  and  N_7
REMARK    3  A    between atoms: C_11  and  C_13
REMARK    4  A    between atoms: C_13  and  N_14
REMARK                            x       y       z     vdW  Elec       q    Type
REMARK                         _______ _______ _______ _____ _____    ______ ____
ROOT
ATOM      1  N   UNL     1       4.235   2.004   1.357  0.00  0.00    +0.383 N 
ATOM      2  C   UNL     1       4.291   0.689   2.007  0.00  0.00    -0.078 C 
ATOM      3  C   UNL     1       4.707   0.857   3.470  0.00  0.00    -0.018 C 
ATOM      4  C   UNL     1       6.087   1.518   3.531  0.00  0.00    +0.001 C 
ATOM      5  C   UNL     1       6.036   2.854   2.785  0.00  0.00    -0.011 C 
ATOM      6  C   UNL     1       5.571   2.612   1.347  0.00  0.00    -0.073 C 
ATOM      7  H   UNL     1       3.599   2.601   1.864  0.00  0.00    -0.081 HD
ENDROOT
BRANCH   1   8
ATOM      8  C   UNL     1       3.761   1.845  -0.024  0.00  0.00    -0.036 C 
BRANCH   8  11
ATOM      9  C   UNL     1      -0.016   1.351   0.009  0.00  0.00    +0.008 A 
ATOM     10  C   UNL     1       1.183   2.038   0.002  0.00  0.00    +0.009 A 
ATOM     11  C   UNL     1       2.343   1.336  -0.013  0.00  0.00    -0.027 A 
ATOM     12  S   UNL     1       1.754  -0.349  -0.017  0.00  0.00    -0.103 S 
ATOM     13  C   UNL     1       0.002  -0.004   0.002  0.00  0.00    +0.045 A 
ENDBRANCH   8  11
ENDBRANCH   1   8
BRANCH   5  14
ATOM     14  C   UNL     1       7.429   3.486   2.772  0.00  0.00    +0.104 C 
BRANCH  14  15
ATOM     15  N   UNL     1       7.826   3.822   4.141  0.00  0.00    -0.329 N 
ATOM     16  C   UNL     1       9.058   4.409   4.381  0.00  0.00    +0.125 A 
ATOM     17  C   UNL     1       9.926   4.690   3.325  0.00  0.00    +0.083 A 
ATOM     18  C   UNL     1      11.145   5.276   3.612  0.00  0.00    +0.136 A 
ATOM     19  N   UNL     1      11.451   5.553   4.873  0.00  0.00    -0.203 NA
ATOM     20  C   UNL     1      10.606   5.275   5.854  0.00  0.00    +0.216 A 
ATOM     21  N   UNL     1       9.428   4.718   5.620  0.00  0.00    -0.200 NA
ATOM     22  N   UNL     1      10.963   5.578   7.157  0.00  0.00    -0.327 N 
ATOM     23 CL   UNL     1      12.263   5.647   2.336  0.00  0.00    -0.062 Cl
ATOM     24  H   UNL     1       7.226   3.633   4.880  0.00  0.00    +0.147 HD
ATOM     25  H   UNL     1      11.822   5.989   7.341  0.00  0.00    +0.145 HD
ATOM     26  H   UNL     1      10.353   5.379   7.885  0.00  0.00    +0.145 HD
ENDBRANCH  14  15
ENDBRANCH   5  14
TORSDOF 4
