REMARK  Name = ZINC67518263
REMARK  4 active torsions:
REMARK  status: ('A' for Active; 'I' for Inactive)
REMARK    1  A    between atoms: C_1  and  C_2
REMARK    2  A    between atoms: C_15  and  C_17
REMARK    3  A    between atoms: N_23  and  S_24
REMARK    4  A    between atoms: S_24  and  C_27
REMARK                            x       y       z     vdW  Elec       q    Type
REMARK                         _______ _______ _______ _____ _____    ______ ____
ROOT
ATOM      1  C   UNL     1      -0.303   1.453  -1.160  0.00  0.00    +0.007 C 
ATOM      2  C   UNL     1      -0.241  -0.067  -0.996  0.00  0.00    -0.014 C 
ATOM      3  C   UNL     1      -1.655  -0.615  -0.800  0.00  0.00    +0.005 C 
ATOM      4  C   UNL     1      -1.602  -2.135  -0.614  0.00  0.00    +0.023 C 
ATOM      5  C   UNL     1      -0.747  -2.457   0.610  0.00  0.00    +0.079 C 
ATOM      6  C   UNL     1       0.674  -1.930   0.381  0.00  0.00    +0.010 C 
ATOM      7  C   UNL     1       0.622  -0.412   0.222  0.00  0.00    +0.008 C 
ATOM      8  C   UNL     1       1.548  -2.312   1.574  0.00  0.00    +0.007 C 
ATOM      9  C   UNL     1       1.616  -3.839   1.681  0.00  0.00    +0.019 C 
ATOM     10  C   UNL     1       0.209  -4.404   1.894  0.00  0.00    +0.108 C 
ATOM     11  N   UNL     1      -0.681  -3.906   0.826  0.00  0.00    -0.297 N 
ATOM     12  C   UNL     1      -1.413  -4.752   0.074  0.00  0.00    +0.235 C 
ATOM     13  O   UNL     1      -2.205  -4.315  -0.733  0.00  0.00    -0.274 OA
ENDROOT
BRANCH  12  14
ATOM     14  C   UNL     1      -1.248  -6.241   0.238  0.00  0.00    +0.165 C 
ATOM     15  C   UNL     1      -0.685  -6.840  -1.054  0.00  0.00    +0.030 C 
ATOM     16  C   UNL     1      -0.651  -8.366  -0.932  0.00  0.00    +0.003 C 
ATOM     17  C   UNL     1      -2.073  -8.895  -0.734  0.00  0.00    +0.017 C 
ATOM     18  C   UNL     1      -2.652  -8.319   0.562  0.00  0.00    +0.110 C 
ATOM     19  N   UNL     1      -2.554  -6.854   0.517  0.00  0.00    -0.170 NA
BRANCH  19  20
ATOM     20  S   UNL     1      -3.892  -5.910   0.770  0.00  0.00    +0.030 S 
ATOM     21  O   UNL     1      -4.782  -6.734   1.511  0.00  0.00    -0.158 OA
ATOM     22  O   UNL     1      -3.386  -4.705   1.327  0.00  0.00    -0.158 OA
ATOM     23  C   UNL     1      -4.563  -5.599  -0.887  0.00  0.00    +0.215 C 
ENDBRANCH  19  20
ENDBRANCH  12  14
TORSDOF 2
