REMARK  Name = ZINC37261878
REMARK  8 active torsions:
REMARK  status: ('A' for Active; 'I' for Inactive)
REMARK    1  A    between atoms: C_1  and  C_2
REMARK    2  A    between atoms: C_2  and  C_3
REMARK    3  A    between atoms: C_3  and  C_5
REMARK    4  A    between atoms: C_3  and  N_12
REMARK    5  A    between atoms: N_12  and  C_13
REMARK    6  A    between atoms: C_13  and  C_14
REMARK    7  A    between atoms: C_14  and  S_15
REMARK    8  A    between atoms: S_15  and  N_18
REMARK                            x       y       z     vdW  Elec       q    Type
REMARK                         _______ _______ _______ _____ _____    ______ ____
ROOT
ATOM      1  N   UNL     1       2.219  -0.000   1.042  0.00  0.00    +0.385 N 
ATOM      2  H   UNL     1       2.514  -0.457   0.192  0.00  0.00    -0.085 HD
ATOM      3  H   UNL     1       2.339   0.997   0.946  0.00  0.00    -0.085 HD
ENDROOT
BRANCH   1   4
ATOM      4  C   UNL     1       0.804  -0.301   1.294  0.00  0.00    -0.041 C 
BRANCH   4   5
ATOM      5  C   UNL     1       0.603  -1.795   1.306  0.00  0.00    -0.060 A 
ATOM      6  C   UNL     1       1.271  -2.590   0.394  0.00  0.00    +0.002 A 
ATOM      7  C   UNL     1       1.087  -3.960   0.404  0.00  0.00    +0.001 A 
ATOM      8  C   UNL     1       0.234  -4.535   1.327  0.00  0.00    +0.015 A 
ATOM      9  C   UNL     1      -0.435  -3.741   2.240  0.00  0.00    +0.018 A 
ATOM     10  C   UNL     1      -0.246  -2.370   2.233  0.00  0.00    +0.017 A 
ATOM     11 BR   UNL     1      -1.602  -4.528   3.503  0.00  0.00    -0.050 Br
ENDBRANCH   4   5
BRANCH   4  13
ATOM     12  C   UNL     1       0.048   1.845   0.262  0.00  0.00    +0.002 C 
ATOM     13  C   UNL     1      -0.054   0.320   0.190  0.00  0.00    -0.015 C 
ENDBRANCH   4  13
ENDBRANCH   1   4
BRANCH   1  14
ATOM     14  C   UNL     1       3.031  -0.485   2.166  0.00  0.00    -0.057 C 
BRANCH  14  15
ATOM     15  C   UNL     1       4.487  -0.059   1.965  0.00  0.00    +0.166 C 
BRANCH  15  16
ATOM     16  S   UNL     1       5.489  -0.658   3.353  0.00  0.00    +0.025 S 
ATOM     17  O   UNL     1       5.126   0.021   4.548  0.00  0.00    -0.158 OA
ATOM     18  O   UNL     1       5.570  -2.076   3.322  0.00  0.00    -0.158 OA
BRANCH  16  19
ATOM     19  N   UNL     1       7.027  -0.140   3.023  0.00  0.00    -0.208 NA
ATOM     20  H   UNL     1       7.638   0.060   3.749  0.00  0.00    +0.144 HD
ATOM     21  H   UNL     1       7.316  -0.035   2.103  0.00  0.00    +0.144 HD
ENDBRANCH  16  19
ENDBRANCH  15  16
ENDBRANCH  14  15
ENDBRANCH   1  14
TORSDOF 7
