REMARK  Name = ZINC66988243
REMARK  11 active torsions:
REMARK  status: ('A' for Active; 'I' for Inactive)
REMARK    1  A    between atoms: C_1  and  C_2
REMARK    2  A    between atoms: C_2  and  N_3
REMARK    3  A    between atoms: N_3  and  C_4
REMARK    4  A    between atoms: N_3  and  C_5
REMARK    5  A    between atoms: C_5  and  C_6
REMARK    6  A    between atoms: C_6  and  N_7
REMARK    7  A    between atoms: N_10  and  N_11
REMARK    8  A    between atoms: C_12  and  C_14
REMARK    9  A    between atoms: C_17  and  N_20
REMARK   10  A    between atoms: C_21  and  C_26
REMARK   11  A    between atoms: C_24  and  C_25
REMARK                            x       y       z     vdW  Elec       q    Type
REMARK                         _______ _______ _______ _____ _____    ______ ____
ROOT
ATOM      1  N   UNL     1       1.973  -6.593  -2.172  0.00  0.00    -0.229 N 
ATOM      2  C   UNL     1       2.089  -7.935  -2.126  0.00  0.00    +0.260 C 
ATOM      3  O   UNL     1       2.711  -8.521  -2.991  0.00  0.00    -0.269 OA
ATOM      4  H   UNL     1       1.477  -6.125  -1.482  0.00  0.00    +0.173 HD
ENDROOT
BRANCH   1   8
ATOM      5  N   UNL     1       1.765  -3.881  -2.303  0.00  0.00    -0.300 N 
ATOM      6  C   UNL     1       2.455  -4.531  -3.261  0.00  0.00    +0.316 C 
ATOM      7  O   UNL     1       2.972  -3.907  -4.167  0.00  0.00    -0.251 OA
ATOM      8  N   UNL     1       2.570  -5.873  -3.215  0.00  0.00    -0.218 N 
ATOM      9  H   UNL     1       1.352  -4.379  -1.580  0.00  0.00    +0.150 HD
ATOM     10  H   UNL     1       3.066  -6.341  -3.905  0.00  0.00    +0.174 HD
BRANCH   5  11
ATOM     11  C   UNL     1       1.640  -2.422  -2.352  0.00  0.00    +0.087 C 
BRANCH  11  12
ATOM     12  C   UNL     1       0.816  -1.941  -1.157  0.00  0.00    -0.060 C 
BRANCH  12  13
ATOM     13  N   UNL     1       0.690  -0.478  -1.207  0.00  0.00    +0.379 N 
ATOM     14  C   UNL     1      -0.086  -0.093  -2.394  0.00  0.00    -0.096 C 
ATOM     15  H   UNL     1       1.608  -0.063  -1.256  0.00  0.00    -0.082 HD
BRANCH  13  17
ATOM     16  C   UNL     1      -0.019   1.526   0.010  0.00  0.00    -0.017 C 
ATOM     17  C   UNL     1       0.002  -0.004   0.002  0.00  0.00    -0.083 C 
ENDBRANCH  13  17
ENDBRANCH  12  13
ENDBRANCH  11  12
ENDBRANCH   5  11
ENDBRANCH   1   8
BRANCH   2  18
ATOM     18  C   UNL     1       1.460  -8.693  -1.026  0.00  0.00    +0.038 A 
ATOM     19  C   UNL     1       0.740  -8.021  -0.035  0.00  0.00    +0.015 A 
ATOM     20  C   UNL     1       0.155  -8.731   0.990  0.00  0.00    +0.027 A 
ATOM     21  C   UNL     1       0.279 -10.116   1.038  0.00  0.00    +0.047 A 
ATOM     22  C   UNL     1       0.996 -10.787   0.053  0.00  0.00    +0.027 A 
ATOM     23  C   UNL     1       1.579 -10.084  -0.977  0.00  0.00    +0.015 A 
BRANCH  21  24
ATOM     24  N   UNL     1      -0.316 -10.833   2.079  0.00  0.00    -0.318 N 
ATOM     25  C   UNL     1       0.016 -10.743   3.402  0.00  0.00    +0.021 A 
ATOM     26  C   UNL     1      -0.777 -11.586   4.093  0.00  0.00    +0.023 A 
ATOM     27  C   UNL     1      -1.631 -12.220   3.168  0.00  0.00    +0.023 A 
ATOM     28  C   UNL     1      -1.332 -11.737   1.945  0.00  0.00    +0.021 A 
ATOM     29  C   UNL     1      -2.000 -12.130   0.653  0.00  0.00    +0.064 C 
ATOM     30  C   UNL     1       1.086  -9.856   3.985  0.00  0.00    +0.064 C 
ENDBRANCH  21  24
ENDBRANCH   2  18
TORSDOF 7
