REMARK  Name = ZINC53303747
REMARK  11 active torsions:
REMARK  status: ('A' for Active; 'I' for Inactive)
REMARK    1  A    between atoms: C_1  and  C_2
REMARK    2  A    between atoms: C_5  and  C_30
REMARK    3  A    between atoms: N_8  and  C_10
REMARK    4  A    between atoms: C_10  and  C_11
REMARK    5  A    between atoms: C_10  and  C_12
REMARK    6  A    between atoms: C_10  and  C_13
REMARK    7  A    between atoms: C_13  and  N_14
REMARK    8  A    between atoms: C_15  and  C_17
REMARK    9  A    between atoms: C_17  and  C_19
REMARK   10  A    between atoms: C_17  and  N_20
REMARK   11  A    between atoms: C_21  and  C_23
REMARK                            x       y       z     vdW  Elec       q    Type
REMARK                         _______ _______ _______ _____ _____    ______ ____
ROOT
ATOM      1  N   UNL     1       3.474  -2.390   0.904  0.00  0.00    -0.315 N 
ATOM      2  C   UNL     1       4.768  -2.196   0.578  0.00  0.00    +0.233 C 
ATOM      3  O   UNL     1       5.533  -1.722   1.391  0.00  0.00    -0.274 OA
ATOM      4  H   UNL     1       2.862  -2.769   0.254  0.00  0.00    +0.149 HD
ENDROOT
BRANCH   2   5
ATOM      5  C   UNL     1       5.263  -2.568  -0.796  0.00  0.00    +0.156 C 
ATOM      6  C   UNL     1       4.493  -1.769  -1.849  0.00  0.00    +0.038 C 
BRANCH   5   7
ATOM      7  N   UNL     1       6.692  -2.262  -0.899  0.00  0.00    -0.300 N 
ATOM      8  C   UNL     1       7.462  -2.929  -1.782  0.00  0.00    +0.246 C 
ATOM      9  O   UNL     1       6.970  -3.785  -2.491  0.00  0.00    -0.270 OA
ATOM     10  H   UNL     1       7.084  -1.579  -0.333  0.00  0.00    +0.150 HD
BRANCH   8  11
ATOM     11  C   UNL     1       8.903  -2.621  -1.886  0.00  0.00    +0.055 A 
ATOM     12  C   UNL     1       9.472  -1.643  -1.069  0.00  0.00    +0.014 A 
ATOM     13  C   UNL     1      10.818  -1.360  -1.171  0.00  0.00    +0.001 A 
ATOM     14  C   UNL     1      11.605  -2.043  -2.082  0.00  0.00    +0.001 A 
ATOM     15  C   UNL     1      11.049  -3.013  -2.895  0.00  0.00    +0.021 A 
ATOM     16  C   UNL     1       9.704  -3.311  -2.800  0.00  0.00    +0.053 A 
ATOM     17 CL   UNL     1       9.009  -4.534  -3.816  0.00  0.00    -0.083 Cl
ENDBRANCH   8  11
ENDBRANCH   5   7
ENDBRANCH   2   5
BRANCH   1  18
ATOM     18  C   UNL     1       2.993  -2.028   2.239  0.00  0.00    +0.092 C 
BRANCH  18  19
ATOM     19  C   UNL     1       1.478  -2.227   2.306  0.00  0.00    -0.055 C 
ATOM     20  C   UNL     1       0.963  -1.768   3.672  0.00  0.00    -0.008 C 
ATOM     21  C   UNL     1       1.148  -3.708   2.108  0.00  0.00    -0.008 C 
BRANCH  19  27
ATOM     22  C   UNL     1       0.931   2.275   0.461  0.00  0.00    +0.005 C 
ATOM     23  C   UNL     1       0.574   0.799   0.278  0.00  0.00    -0.031 C 
ATOM     24  C   UNL     1      -0.949   0.636   0.288  0.00  0.00    +0.003 C 
ATOM     25  C   UNL     1      -1.294  -0.852   0.182  0.00  0.00    -0.031 C 
ATOM     26  C   UNL     1      -0.623  -1.609   1.330  0.00  0.00    -0.075 C 
ATOM     27  N   UNL     1       0.833  -1.436   1.250  0.00  0.00    +0.384 N 
ATOM     28  C   UNL     1       1.177  -0.019   1.421  0.00  0.00    -0.075 C 
ATOM     29  C   UNL     1      -0.792  -1.400  -1.155  0.00  0.00    +0.005 C 
ATOM     30  H   UNL     1       1.159  -1.753   0.349  0.00  0.00    -0.081 HD
ENDBRANCH  19  27
ENDBRANCH  18  19
ENDBRANCH   1  18
TORSDOF 6
