REMARK  Name = ZINC09951780
REMARK  11 active torsions:
REMARK  status: ('A' for Active; 'I' for Inactive)
REMARK    1  A    between atoms: C_1  and  C_2
REMARK    2  A    between atoms: C_2  and  C_3
REMARK    3  A    between atoms: C_3  and  C_4
REMARK    4  A    between atoms: C_4  and  N_5
REMARK    5  A    between atoms: C_6  and  N_35
REMARK    6  A    between atoms: C_7  and  N_14
REMARK    7  A    between atoms: N_14  and  C_15
REMARK    8  A    between atoms: C_20  and  C_22
REMARK    9  A    between atoms: C_22  and  N_71
REMARK   10  A    between atoms: C_23  and  N_71
REMARK   11  A    between atoms: C_24  and  N_71
REMARK                            x       y       z     vdW  Elec       q    Type
REMARK                         _______ _______ _______ _____ _____    ______ ____
ROOT
ATOM      1  N   UNL     1       0.040  -0.003   0.002  0.00  0.00    -0.263 N 
ATOM      2  C   UNL     1      -1.009  -0.853   0.002  0.00  0.00    +0.204 C 
ATOM      3  O   UNL     1      -2.090  -0.482  -0.405  0.00  0.00    -0.277 OA
ENDROOT
BRANCH   1   6
ATOM      4  N   UNL     1       3.152  -0.501   1.891  0.00  0.00    -0.280 N 
ATOM      5  C   UNL     1       1.905  -0.031   1.549  0.00  0.00    +0.127 A 
ATOM      6  C   UNL     1       1.320  -0.463   0.377  0.00  0.00    +0.140 A 
ATOM      7  C   UNL     1       2.025  -1.365  -0.442  0.00  0.00    +0.277 A 
ATOM      8  O   UNL     1       1.534  -1.758  -1.487  0.00  0.00    -0.266 OA
ATOM      9  N   UNL     1       3.246  -1.790  -0.065  0.00  0.00    -0.273 N 
ATOM     10  H   UNL     1       3.748  -2.431  -0.646  0.00  0.00    +0.173 HD
ATOM     11  C   UNL     1       3.798  -1.363   1.085  0.00  0.00    +0.331 A 
ATOM     12  O   UNL     1       4.902  -1.763   1.402  0.00  0.00    -0.246 OA
BRANCH   5  13
ATOM     13  N   UNL     1       1.247   0.854   2.370  0.00  0.00    -0.343 N 
ATOM     14  H   UNL     1       0.391   1.222   2.099  0.00  0.00    +0.144 HD
ATOM     15  H   UNL     1       1.639   1.111   3.219  0.00  0.00    +0.144 HD
ENDBRANCH   5  13
BRANCH   4  16
ATOM     16  C   UNL     1       3.782  -0.056   3.136  0.00  0.00    +0.128 C 
BRANCH  16  17
ATOM     17  C   UNL     1       4.604   1.207   2.869  0.00  0.00    +0.021 C 
BRANCH  17  19
ATOM     18  C   UNL     1       6.084   2.934   3.902  0.00  0.00    +0.004 C 
ATOM     19  C   UNL     1       5.262   1.672   4.169  0.00  0.00    -0.002 C 
ENDBRANCH  17  19
ENDBRANCH  16  17
ENDBRANCH   4  16
ENDBRANCH   1   6
BRANCH   1  20
ATOM     20  C   UNL     1      -0.151   1.396  -0.388  0.00  0.00    +0.082 C 
ATOM     21  C   UNL     1      -1.228   2.050   0.503  0.00  0.00    +0.023 C 
ATOM     22  C   UNL     1      -1.995   2.992  -0.460  0.00  0.00    +0.002 C 
ATOM     23  C   UNL     1      -2.043   2.173  -1.774  0.00  0.00    +0.002 C 
ATOM     24  C   UNL     1      -0.669   1.474  -1.835  0.00  0.00    +0.023 C 
ENDBRANCH   1  20
BRANCH   2  25
ATOM     25  C   UNL     1      -0.837  -2.262   0.508  0.00  0.00    +0.020 C 
BRANCH  25  27
ATOM     26  C   UNL     1      -3.050  -2.461   1.469  0.00  0.00    -0.095 C 
ATOM     27  N   UNL     1      -2.136  -2.960   0.420  0.00  0.00    +0.388 N 
ATOM     28  H   UNL     1      -2.553  -2.775  -0.500  0.00  0.00    -0.081 HD
BRANCH  27  29
ATOM     29  C   UNL     1      -1.939  -4.417   0.573  0.00  0.00    -0.037 C 
ATOM     30  C   UNL     1      -1.452  -4.740   1.984  0.00  0.00    -0.010 C 
ATOM     31  C   UNL     1      -1.472  -6.262   2.167  0.00  0.00    +0.003 C 
ATOM     32  C   UNL     1      -2.928  -6.721   2.216  0.00  0.00    +0.035 C 
ATOM     33  C   UNL     1      -3.696  -6.175   1.042  0.00  0.00    -0.046 A 
ATOM     34  C   UNL     1      -3.245  -5.111   0.291  0.00  0.00    -0.058 A 
ATOM     35  C   UNL     1      -4.009  -4.647  -0.771  0.00  0.00    +0.002 A 
ATOM     36  C   UNL     1      -5.213  -5.244  -1.084  0.00  0.00    +0.000 A 
ATOM     37  C   UNL     1      -5.663  -6.314  -0.334  0.00  0.00    +0.000 A 
ATOM     38  C   UNL     1      -4.907  -6.776   0.724  0.00  0.00    +0.004 A 
ENDBRANCH  27  29
ENDBRANCH  25  27
ENDBRANCH   2  25
TORSDOF 9
