REMARK  Name = ZINC62183543
REMARK  4 active torsions:
REMARK  status: ('A' for Active; 'I' for Inactive)
REMARK    1  A    between atoms: C_1  and  C_2
REMARK    2  A    between atoms: N_11  and  S_13
REMARK    3  A    between atoms: S_13  and  C_16
REMARK    4  A    between atoms: N_25  and  C_26
REMARK                            x       y       z     vdW  Elec       q    Type
REMARK                         _______ _______ _______ _____ _____    ______ ____
ROOT
ATOM      1  S   UNL     1       0.332  -2.817   2.616  0.00  0.00    +0.075 S 
ATOM      2  O   UNL     1      -0.278  -1.891   3.504  0.00  0.00    -0.150 OA
ATOM      3  O   UNL     1      -0.307  -4.021   2.213  0.00  0.00    -0.150 OA
ENDROOT
BRANCH   1  13
ATOM      4  C   UNL     1      -0.016   1.527   0.012  0.00  0.00    +0.009 C 
ATOM      5  C   UNL     1       0.003  -0.003   0.003  0.00  0.00    +0.009 C 
ATOM      6  C   UNL     1       0.723  -0.499  -1.251  0.00  0.00    +0.042 C 
ATOM      7  C   UNL     1       0.945  -1.987  -1.178  0.00  0.00    -0.024 A 
ATOM      8  C   UNL     1       1.174  -2.688  -2.350  0.00  0.00    +0.005 A 
ATOM      9  C   UNL     1       1.384  -4.053  -2.316  0.00  0.00    +0.000 A 
ATOM     10  C   UNL     1       1.366  -4.729  -1.109  0.00  0.00    +0.002 A 
ATOM     11  C   UNL     1       1.138  -4.037   0.064  0.00  0.00    +0.025 A 
ATOM     12  C   UNL     1       0.924  -2.663   0.031  0.00  0.00    +0.054 A 
ATOM     13  N   UNL     1       0.686  -1.983   1.230  0.00  0.00    -0.202 N 
ATOM     14  C   UNL     1       0.751  -0.515   1.241  0.00  0.00    +0.135 C 
ENDBRANCH   1  13
BRANCH   1  15
ATOM     15  C   UNL     1       1.866  -3.283   3.349  0.00  0.00    +0.109 A 
ATOM     16  C   UNL     1       2.458  -4.487   3.013  0.00  0.00    +0.030 A 
ATOM     17  C   UNL     1       3.658  -4.857   3.583  0.00  0.00    +0.026 A 
ATOM     18  C   UNL     1       4.284  -4.018   4.503  0.00  0.00    +0.040 A 
ATOM     19  C   UNL     1       3.679  -2.812   4.832  0.00  0.00    -0.015 A 
ATOM     20  C   UNL     1       2.484  -2.442   4.258  0.00  0.00    +0.034 A 
ATOM     21  C   UNL     1       4.587  -2.141   5.837  0.00  0.00    +0.133 C 
ATOM     22  C   UNL     1       5.733  -3.116   6.006  0.00  0.00    +0.224 C 
ATOM     23  O   UNL     1       6.697  -2.977   6.728  0.00  0.00    -0.275 OA
ATOM     24  N   UNL     1       5.480  -4.166   5.206  0.00  0.00    -0.274 N 
ATOM     25  C   UNL     1       6.360  -5.331   5.084  0.00  0.00    +0.138 C 
ENDBRANCH   1  15
TORSDOF 2
