REMARK  Name = ZINC20483390
REMARK  8 active torsions:
REMARK  status: ('A' for Active; 'I' for Inactive)
REMARK    1  A    between atoms: C_1  and  C_2
REMARK    2  A    between atoms: C_2  and  C_4
REMARK    3  A    between atoms: C_2  and  O_13
REMARK    4  A    between atoms: N_6  and  C_7
REMARK    5  A    between atoms: C_7  and  C_8
REMARK    6  A    between atoms: O_13  and  C_14
REMARK    7  A    between atoms: C_19  and  C_20
REMARK    8  A    between atoms: C_20  and  N_21
REMARK                            x       y       z     vdW  Elec       q    Type
REMARK                         _______ _______ _______ _____ _____    ______ ____
ROOT
ATOM      1  O   UNL     1      -2.707   2.686   0.607  0.00  0.00    -0.480 OA
ENDROOT
BRANCH   1   2
ATOM      2  C   UNL     1      -3.053   1.514   0.013  0.00  0.00    +0.123 A 
ATOM      3  C   UNL     1      -4.290   0.941   0.274  0.00  0.00    +0.047 A 
ATOM      4  C   UNL     1      -4.637  -0.254  -0.325  0.00  0.00    +0.019 A 
ATOM      5  C   UNL     1      -3.756  -0.877  -1.190  0.00  0.00    +0.018 A 
ATOM      6  C   UNL     1      -2.525  -0.305  -1.457  0.00  0.00    +0.020 A 
ATOM      7  C   UNL     1      -2.173   0.890  -0.859  0.00  0.00    -0.022 A 
ATOM      8 BR   UNL     1      -4.234  -2.513  -2.009  0.00  0.00    -0.050 Br
BRANCH   7   9
ATOM      9  C   UNL     1      -0.832   1.513  -1.150  0.00  0.00    -0.047 C 
BRANCH   9  10
ATOM     10  N   UNL     1       0.095   1.214  -0.051  0.00  0.00    +0.381 N 
ATOM     11  H   UNL     1       1.074   1.669  -0.263  0.00  0.00    -0.090 HD
ATOM     12  H   UNL     1       0.210   0.125   0.046  0.00  0.00    -0.090 HD
ATOM     13  H   UNL     1      -0.304   1.626   0.888  0.00  0.00    -0.090 HD
ENDBRANCH   9  10
ENDBRANCH   7   9
ENDBRANCH   1   2
BRANCH   1  15
ATOM     14  C   UNL     1      -3.701   2.752   2.808  0.00  0.00    +0.062 C 
ATOM     15  C   UNL     1      -3.708   3.335   1.394  0.00  0.00    +0.255 C 
BRANCH  15  16
ATOM     16  C   UNL     1      -3.416   4.812   1.458  0.00  0.00    +0.254 C 
ATOM     17  O   UNL     1      -2.447   5.265   0.886  0.00  0.00    -0.272 OA
ATOM     18  N   UNL     1      -4.233   5.631   2.151  0.00  0.00    -0.305 N 
ATOM     19  H   UNL     1      -5.112   5.220   2.670  0.00  0.00    +0.149 HD
BRANCH  18  20
ATOM     20  C   UNL     1      -3.950   7.067   2.213  0.00  0.00    +0.178 C 
BRANCH  20  21
ATOM     21  C   UNL     1      -5.005   7.751   3.043  0.00  0.00    +0.122 A 
ATOM     22  C   UNL     1      -4.953   7.951   4.373  0.00  0.00    +0.046 A 
ATOM     23  C   UNL     1      -6.143   8.624   4.732  0.00  0.00    +0.041 A 
ATOM     24  C   UNL     1      -6.851   8.796   3.601  0.00  0.00    +0.195 A 
ATOM     25  O   UNL     1      -6.154   8.271   2.581  0.00  0.00    -0.466 OA
ENDBRANCH  20  21
ENDBRANCH  18  20
ENDBRANCH  15  16
ENDBRANCH   1  15
TORSDOF 7
