REMARK  Name = ZINC63065598
REMARK  7 active torsions:
REMARK  status: ('A' for Active; 'I' for Inactive)
REMARK    1  A    between atoms: C_1  and  C_2
REMARK    2  A    between atoms: C_2  and  C_4
REMARK    3  A    between atoms: C_2  and  N_16
REMARK    4  A    between atoms: N_6  and  C_7
REMARK    5  A    between atoms: C_8  and  N_15
REMARK    6  A    between atoms: C_20  and  C_21
REMARK    7  A    between atoms: C_20  and  C_22
REMARK                            x       y       z     vdW  Elec       q    Type
REMARK                         _______ _______ _______ _____ _____    ______ ____
ROOT
ATOM      1  C   UNL     1       1.084  -0.439   0.662  0.00  0.00    +0.204 C 
ATOM      2  O   UNL     1       0.889  -1.345   1.444  0.00  0.00    -0.277 OA
ATOM      3  N   UNL     1       1.954   0.543   0.970  0.00  0.00    -0.284 N 
ATOM      4  H   UNL     1       2.146   1.241   0.325  0.00  0.00    +0.155 HD
ENDROOT
BRANCH   3   5
ATOM      5  C   UNL     1       2.581   0.555   2.224  0.00  0.00    +0.073 A 
ATOM      6  C   UNL     1       3.942   0.844   2.322  0.00  0.00    +0.049 A 
ATOM      7  C   UNL     1       4.557   0.856   3.565  0.00  0.00    +0.044 A 
ATOM      8  C   UNL     1       3.821   0.581   4.704  0.00  0.00    +0.044 A 
ATOM      9  C   UNL     1       2.471   0.295   4.607  0.00  0.00    +0.042 A 
ATOM     10  C   UNL     1       1.849   0.287   3.371  0.00  0.00    +0.065 A 
ATOM     11 CL   UNL     1       0.153  -0.066   3.255  0.00  0.00    -0.082 Cl
ATOM     12 CL   UNL     1       4.593   0.596   6.259  0.00  0.00    -0.083 Cl
BRANCH   6  13
ATOM     13  N   UNL     1       4.685   1.121   1.170  0.00  0.00    -0.356 N 
ATOM     14  H   UNL     1       4.253   1.112   0.301  0.00  0.00    +0.142 HD
ATOM     15  H   UNL     1       5.631   1.321   1.239  0.00  0.00    +0.142 HD
ENDBRANCH   6  13
ENDBRANCH   3   5
BRANCH   1  17
ATOM     16  C   UNL     1      -0.484   0.866  -0.749  0.00  0.00    -0.004 C 
ATOM     17  C   UNL     1       0.352  -0.412  -0.656  0.00  0.00    +0.017 C 
BRANCH  17  18
ATOM     18  N   UNL     1      -0.530  -1.583  -0.750  0.00  0.00    +0.391 N 
ATOM     19  C   UNL     1      -1.409  -1.640   0.437  0.00  0.00    -0.077 C 
ATOM     20  C   UNL     1      -1.557  -3.151   0.747  0.00  0.00    -0.020 C 
ATOM     21  C   UNL     1      -0.138  -3.680   0.412  0.00  0.00    -0.014 C 
ATOM     22  C   UNL     1       0.281  -2.813  -0.794  0.00  0.00    -0.070 C 
ATOM     23  C   UNL     1       0.011  -3.569  -2.097  0.00  0.00    -0.010 C 
ATOM     24  C   UNL     1       1.766  -2.461  -0.692  0.00  0.00    -0.010 C 
ATOM     25  H   UNL     1      -1.093  -1.518  -1.585  0.00  0.00    -0.080 HD
ENDBRANCH  17  18
ENDBRANCH   1  17
TORSDOF 4
