REMARK  Name = ZINC18103145
REMARK  9 active torsions:
REMARK  status: ('A' for Active; 'I' for Inactive)
REMARK    1  A    between atoms: C_1  and  C_2
REMARK    2  A    between atoms: C_6  and  O_9
REMARK    3  A    between atoms: C_7  and  C_8
REMARK    4  A    between atoms: O_9  and  C_10
REMARK    5  A    between atoms: C_10  and  C_12
REMARK    6  A    between atoms: C_10  and  C_13
REMARK    7  A    between atoms: N_15  and  N_16
REMARK    8  A    between atoms: C_17  and  C_19
REMARK    9  A    between atoms: N_29  and  C_32
REMARK                            x       y       z     vdW  Elec       q    Type
REMARK                         _______ _______ _______ _____ _____    ______ ____
ROOT
ATOM      1  N   UNL     1       3.811   0.907  -0.600  0.00  0.00    -0.230 N 
ATOM      2  C   UNL     1       4.478   1.267  -1.714  0.00  0.00    +0.260 C 
ATOM      3  O   UNL     1       3.900   1.307  -2.783  0.00  0.00    -0.269 OA
ATOM      4  H   UNL     1       4.272   0.875   0.253  0.00  0.00    +0.173 HD
ENDROOT
BRANCH   2   5
ATOM      5  C   UNL     1       5.915   1.614  -1.637  0.00  0.00    +0.040 A 
ATOM      6  C   UNL     1       6.575   1.573  -0.405  0.00  0.00    +0.014 A 
ATOM      7  C   UNL     1       7.913   1.890  -0.324  0.00  0.00    +0.016 A 
ATOM      8  C   UNL     1       8.606   2.262  -1.474  0.00  0.00    +0.063 A 
ATOM      9  C   UNL     1       7.946   2.311  -2.714  0.00  0.00    +0.054 A 
ATOM     10  C   UNL     1       6.601   1.986  -2.791  0.00  0.00    +0.039 A 
ATOM     11  N   UNL     1       8.666   2.685  -3.839  0.00  0.00    -0.334 N 
ATOM     12  H   UNL     1       8.224   2.723  -4.702  0.00  0.00    +0.168 HD
ATOM     13  C   UNL     1       9.970   2.997  -3.747  0.00  0.00    +0.166 A 
ATOM     14  S   UNL     1      10.807   3.452  -5.169  0.00  0.00    -0.012 S 
ATOM     15  N   UNL     1      10.645   2.965  -2.587  0.00  0.00    -0.256 N 
ATOM     16  C   UNL     1      10.039   2.614  -1.433  0.00  0.00    +0.267 A 
ATOM     17  O   UNL     1      10.658   2.588  -0.386  0.00  0.00    -0.267 OA
BRANCH  15  18
ATOM     18  C   UNL     1      12.005   3.304  -2.574  0.00  0.00    +0.052 A 
ATOM     19  C   UNL     1      12.394   4.609  -2.307  0.00  0.00    +0.026 A 
ATOM     20  C   UNL     1      13.735   4.939  -2.289  0.00  0.00    +0.002 A 
ATOM     21  C   UNL     1      14.689   3.972  -2.549  0.00  0.00    +0.000 A 
ATOM     22  C   UNL     1      14.304   2.672  -2.821  0.00  0.00    +0.002 A 
ATOM     23  C   UNL     1      12.965   2.335  -2.834  0.00  0.00    +0.026 A 
ENDBRANCH  15  18
ENDBRANCH   2   5
BRANCH   1  26
ATOM     24  C   UNL     1       1.783   0.219   0.441  0.00  0.00    +0.270 C 
ATOM     25  O   UNL     1       2.360   0.179   1.507  0.00  0.00    -0.270 OA
ATOM     26  N   UNL     1       2.450   0.579  -0.673  0.00  0.00    -0.231 N 
ATOM     27  H   UNL     1       1.989   0.610  -1.526  0.00  0.00    +0.173 HD
BRANCH  24  28
ATOM     28  C   UNL     1       0.321  -0.135   0.363  0.00  0.00    +0.257 C 
ATOM     29  C   UNL     1       0.146  -1.400  -0.481  0.00  0.00    +0.062 C 
BRANCH  28  30
ATOM     30  O   UNL     1      -0.185  -0.366   1.679  0.00  0.00    -0.480 OA
BRANCH  30  36
ATOM     31  C   UNL     1      -3.974  -0.129   4.747  0.00  0.00    +0.044 C 
ATOM     32  C   UNL     1      -3.385   0.016   3.367  0.00  0.00    -0.044 A 
ATOM     33  C   UNL     1      -4.188   0.408   2.311  0.00  0.00    +0.004 A 
ATOM     34  C   UNL     1      -3.651   0.541   1.044  0.00  0.00    +0.004 A 
ATOM     35  C   UNL     1      -2.309   0.289   0.831  0.00  0.00    +0.046 A 
ATOM     36  C   UNL     1      -1.504  -0.111   1.887  0.00  0.00    +0.125 A 
ATOM     37  C   UNL     1      -2.045  -0.244   3.158  0.00  0.00    -0.006 A 
ATOM     38  C   UNL     1      -1.171  -0.672   4.309  0.00  0.00    +0.048 C 
ENDBRANCH  30  36
ENDBRANCH  28  30
ENDBRANCH  24  28
ENDBRANCH   1  26
TORSDOF 6
