REMARK  Name = ZINC21795435
REMARK  9 active torsions:
REMARK  status: ('A' for Active; 'I' for Inactive)
REMARK    1  A    between atoms: C_1  and  C_2
REMARK    2  A    between atoms: C_6  and  N_9
REMARK    3  A    between atoms: C_7  and  C_8
REMARK    4  A    between atoms: N_12  and  C_13
REMARK    5  A    between atoms: C_16  and  N_19
REMARK    6  A    between atoms: C_22  and  N_27
REMARK    7  A    between atoms: C_24  and  C_26
REMARK    8  A    between atoms: N_27  and  C_28
REMARK    9  A    between atoms: N_27  and  C_29
REMARK                            x       y       z     vdW  Elec       q    Type
REMARK                         _______ _______ _______ _____ _____    ______ ____
ROOT
ATOM      1  C   UNL     1      -0.955   3.312  -0.641  0.00  0.00    +0.035 A 
ATOM      2  C   UNL     1       0.022   4.295  -0.558  0.00  0.00    +0.025 A 
ATOM      3  C   UNL     1      -0.337   5.628  -0.570  0.00  0.00    +0.025 A 
ATOM      4  C   UNL     1      -1.676   5.985  -0.654  0.00  0.00    +0.032 A 
ATOM      5  C   UNL     1      -2.654   5.002  -0.731  0.00  0.00    +0.025 A 
ATOM      6  C   UNL     1      -2.294   3.669  -0.724  0.00  0.00    +0.025 A 
ENDROOT
BRANCH   4   7
ATOM      7  N   UNL     1      -2.041   7.337  -0.661  0.00  0.00    -0.301 N 
ATOM      8  C   UNL     1      -1.357   8.244   0.135  0.00  0.00    +0.105 A 
ATOM      9  C   UNL     1      -0.423   7.801   1.067  0.00  0.00    +0.085 A 
ATOM     10  C   UNL     1       0.240   8.751   1.838  0.00  0.00    +0.126 A 
ATOM     11  N   UNL     1      -0.050  10.040   1.665  0.00  0.00    -0.219 NA
ATOM     12  C   UNL     1      -0.945  10.419   0.776  0.00  0.00    +0.107 A 
ATOM     13  N   UNL     1      -1.590   9.550   0.023  0.00  0.00    -0.332 N 
ATOM     14  C   UNL     1      -1.240  11.888   0.614  0.00  0.00    +0.086 C 
ATOM     15  H   UNL     1      -2.870   7.680  -1.298  0.00  0.00    +0.154 HD
ATOM     16  H   UNL     1      -2.328   9.918  -0.705  0.00  0.00    +0.168 HD
BRANCH  10  17
ATOM     17  N   UNL     1       1.183   8.362   2.776  0.00  0.00    -0.321 N 
ATOM     18  C   UNL     1       1.573   6.954   2.882  0.00  0.00    +0.130 C 
ATOM     19  C   UNL     1       1.790   9.359   3.662  0.00  0.00    +0.130 C 
ENDBRANCH  10  17
ENDBRANCH   4   7
BRANCH   1  23
ATOM     20  N   UNL     1       0.856   0.254  -1.307  0.00  0.00    -0.269 N 
ATOM     21  C   UNL     1       0.543   1.563  -1.248  0.00  0.00    +0.308 C 
ATOM     22  O   UNL     1       1.280   2.388  -1.755  0.00  0.00    -0.252 OA
ATOM     23  N   UNL     1      -0.590   1.959  -0.634  0.00  0.00    -0.269 N 
ATOM     24  H   UNL     1       0.242  -0.483  -0.768  0.00  0.00    +0.156 HD
ATOM     25  H   UNL     1      -1.227   1.219  -0.128  0.00  0.00    +0.156 HD
BRANCH  20  31
ATOM     26  C   UNL     1       4.252  -3.168  -2.273  0.00  0.00    +0.044 C 
ATOM     27  C   UNL     1       3.629  -1.823  -2.541  0.00  0.00    -0.046 A 
ATOM     28  C   UNL     1       4.152  -1.003  -3.525  0.00  0.00    +0.004 A 
ATOM     29  C   UNL     1       3.583   0.233  -3.773  0.00  0.00    +0.002 A 
ATOM     30  C   UNL     1       2.491   0.652  -3.040  0.00  0.00    +0.023 A 
ATOM     31  C   UNL     1       1.963  -0.168  -2.052  0.00  0.00    +0.038 A 
ATOM     32  C   UNL     1       2.540  -1.407  -1.801  0.00  0.00    -0.026 A 
ATOM     33  C   UNL     1       1.974  -2.298  -0.725  0.00  0.00    +0.046 C 
ENDBRANCH  20  31
ENDBRANCH   1  23
TORSDOF 4
