REMARK  Name = ZINC63491395
REMARK  8 active torsions:
REMARK  status: ('A' for Active; 'I' for Inactive)
REMARK    1  A    between atoms: C_1  and  C_2
REMARK    2  A    between atoms: C_2  and  C_3
REMARK    3  A    between atoms: C_2  and  C_4
REMARK    4  A    between atoms: C_4  and  C_6
REMARK    5  A    between atoms: C_4  and  N_21
REMARK    6  A    between atoms: N_8  and  C_9
REMARK    7  A    between atoms: C_9  and  C_10
REMARK    8  A    between atoms: C_10  and  C_11
REMARK                            x       y       z     vdW  Elec       q    Type
REMARK                         _______ _______ _______ _____ _____    ______ ____
ROOT
ATOM      1  C   UNL     1      -1.236  -0.419   0.145  0.00  0.00    +0.183 C 
ENDROOT
BRANCH   1   2
ATOM      2  N   UNL     1      -1.912  -1.718   0.105  0.00  0.00    -0.205 N 
ATOM      3  C   UNL     1      -2.673  -2.033  -0.968  0.00  0.00    +0.264 C 
ATOM      4  O   UNL     1      -2.729  -1.301  -1.938  0.00  0.00    -0.269 OA
ATOM      5  C   UNL     1      -3.433  -3.297  -0.920  0.00  0.00    +0.060 A 
ATOM      6  C   UNL     1      -4.050  -3.852  -2.034  0.00  0.00    +0.015 A 
ATOM      7  C   UNL     1      -4.744  -5.038  -1.900  0.00  0.00    +0.001 A 
ATOM      8  C   UNL     1      -4.827  -5.671  -0.670  0.00  0.00    +0.002 A 
ATOM      9  C   UNL     1      -4.216  -5.129   0.446  0.00  0.00    +0.025 A 
ATOM     10  C   UNL     1      -3.516  -3.944   0.329  0.00  0.00    +0.055 A 
ATOM     11  N   UNL     1      -2.867  -3.339   1.399  0.00  0.00    -0.264 N 
ATOM     12  N   UNL     1      -1.754  -2.579   1.147  0.00  0.00    -0.157 NA
ATOM     13  H   UNL     1      -3.194  -3.454   2.304  0.00  0.00    +0.168 HD
ATOM     14  H   UNL     1      -0.938  -3.159   1.017  0.00  0.00    +0.168 HD
ENDBRANCH   1   2
BRANCH   1  15
ATOM     15  C   UNL     1      -1.706   0.356   1.349  0.00  0.00    +0.235 C 
ATOM     16  O   UNL     1      -2.288  -0.214   2.247  0.00  0.00    -0.274 OA
ATOM     17  N   UNL     1      -1.480   1.682   1.427  0.00  0.00    -0.313 N 
ATOM     18  H   UNL     1      -1.060   2.147   0.686  0.00  0.00    +0.149 HD
BRANCH  17  19
ATOM     19  C   UNL     1      -1.866   2.421   2.631  0.00  0.00    +0.108 C 
BRANCH  19  20
ATOM     20  C   UNL     1      -1.501   3.897   2.463  0.00  0.00    +0.052 C 
BRANCH  20  21
ATOM     21  C   UNL     1      -1.899   4.658   3.701  0.00  0.00    -0.040 C 
ATOM     22  C   UNL     1      -1.111   4.961   4.758  0.00  0.00    +0.002 A 
ATOM     23  C   UNL     1       0.299   4.684   5.057  0.00  0.00    +0.048 A 
ATOM     24  C   UNL     1       0.821   5.127   6.226  0.00  0.00    +0.124 A 
ATOM     25  C   UNL     1       0.049   5.842   7.154  0.00  0.00    +0.040 A 
ATOM     26  C   UNL     1      -1.253   6.134   6.948  0.00  0.00    +0.029 A 
ATOM     27  C   UNL     1      -1.903   5.717   5.754  0.00  0.00    +0.043 A 
ATOM     28  N   UNL     1      -3.133   5.875   5.330  0.00  0.00    -0.380 N 
ATOM     29  C   UNL     1      -3.259   5.242   4.012  0.00  0.00    +0.144 C 
ATOM     30  F   UNL     1       2.119   4.873   6.505  0.00  0.00    -0.205 F 
ATOM     31  H   UNL     1      -3.841   6.336   5.806  0.00  0.00    +0.160 HD
ENDBRANCH  20  21
ENDBRANCH  19  20
ENDBRANCH  17  19
ENDBRANCH   1  15
BRANCH   1  33
ATOM     32  C   UNL     1       0.737  -1.515  -0.928  0.00  0.00    +0.009 C 
ATOM     33  C   UNL     1       0.276  -0.634   0.235  0.00  0.00    +0.014 C 
ATOM     34  C   UNL     1       0.988   0.718   0.163  0.00  0.00    +0.009 C 
ENDBRANCH   1  33
TORSDOF 6
