REMARK  Name = ZINC39685860
REMARK  13 active torsions:
REMARK  status: ('A' for Active; 'I' for Inactive)
REMARK    1  A    between atoms: C_1  and  C_2
REMARK    2  A    between atoms: C_4  and  C_11
REMARK    3  A    between atoms: C_5  and  C_7
REMARK    4  A    between atoms: C_15  and  C_24
REMARK    5  A    between atoms: N_26  and  C_27
REMARK    6  A    between atoms: C_27  and  C_29
REMARK    7  A    between atoms: C_27  and  C_32
REMARK    8  A    between atoms: C_29  and  C_30
REMARK    9  A    between atoms: C_29  and  C_31
REMARK   10  A    between atoms: N_34  and  C_35
REMARK   11  A    between atoms: C_35  and  C_36
REMARK   12  A    between atoms: C_35  and  C_37
REMARK   13  A    between atoms: C_35  and  C_38
REMARK                            x       y       z     vdW  Elec       q    Type
REMARK                         _______ _______ _______ _____ _____    ______ ____
ROOT
ATOM      1  C   UNL     1      -2.296  -4.745   2.003  0.00  0.00    +0.250 C 
ATOM      2  O   UNL     1      -2.042  -5.832   2.483  0.00  0.00    -0.270 OA
ATOM      3  N   UNL     1      -3.576  -4.334   1.905  0.00  0.00    -0.296 N 
ATOM      4  C   UNL     1      -4.087  -3.097   1.268  0.00  0.00    +0.121 C 
ATOM      5  C   UNL     1      -5.386  -3.533   0.555  0.00  0.00    +0.100 C 
ATOM      6  C   UNL     1      -5.844  -4.792   1.310  0.00  0.00    -0.004 C 
ATOM      7  C   UNL     1      -4.792  -5.020   2.405  0.00  0.00    +0.115 C 
ATOM      8  C   UNL     1      -7.217  -4.563   1.935  0.00  0.00    -0.010 C 
ATOM      9  C   UNL     1      -7.677  -5.848   2.631  0.00  0.00    -0.082 C 
ATOM     10  N   UNL     1      -7.739  -6.941   1.653  0.00  0.00    +0.379 N 
ATOM     11  C   UNL     1      -6.397  -7.216   1.125  0.00  0.00    -0.082 C 
ATOM     12  C   UNL     1      -5.883  -5.990   0.365  0.00  0.00    -0.010 C 
ATOM     13  H   UNL     1      -8.100  -7.770   2.100  0.00  0.00    -0.086 HD
ATOM     14  H   UNL     1      -8.350  -6.677   0.895  0.00  0.00    -0.086 HD
ENDROOT
BRANCH   1  18
ATOM     15  C   UNL     1       0.544  -0.653   0.898  0.00  0.00    +0.086 C 
ATOM     16  C   UNL     1       0.032  -2.062   1.050  0.00  0.00    +0.103 A 
ATOM     17  C   UNL     1      -1.141  -2.408   1.602  0.00  0.00    +0.058 A 
ATOM     18  C   UNL     1      -1.205  -3.875   1.528  0.00  0.00    +0.087 A 
ATOM     19  C   UNL     1      -0.043  -4.264   0.929  0.00  0.00    +0.220 A 
ATOM     20  O   UNL     1       0.673  -3.171   0.649  0.00  0.00    -0.455 OA
BRANCH  19  21
ATOM     21  C   UNL     1       0.362  -5.684   0.628  0.00  0.00    +0.451 C 
ATOM     22  F   UNL     1      -0.094  -6.038  -0.647  0.00  0.00    -0.163 F 
ATOM     23  F   UNL     1       1.756  -5.790   0.670  0.00  0.00    -0.163 F 
ATOM     24  F   UNL     1      -0.201  -6.541   1.579  0.00  0.00    -0.163 F 
ENDBRANCH  19  21
ENDBRANCH   1  18
BRANCH   5  25
ATOM     25  C   UNL     1      -6.429  -2.450   0.656  0.00  0.00    +0.219 C 
ATOM     26  O   UNL     1      -6.422  -1.687   1.599  0.00  0.00    -0.275 OA
ATOM     27  N   UNL     1      -7.369  -2.328  -0.302  0.00  0.00    -0.303 N 
ATOM     28  H   UNL     1      -7.374  -2.938  -1.057  0.00  0.00    +0.149 HD
BRANCH  27  29
ATOM     29  C   UNL     1      -8.382  -1.275  -0.205  0.00  0.00    +0.161 C 
BRANCH  29  30
ATOM     30  C   UNL     1      -9.611  -1.687  -0.974  0.00  0.00    +0.234 C 
ATOM     31  O   UNL     1      -9.522  -2.501  -1.868  0.00  0.00    -0.274 OA
ATOM     32  N   UNL     1     -10.809  -1.151  -0.667  0.00  0.00    -0.309 N 
ATOM     33  H   UNL     1     -10.869  -0.442  -0.008  0.00  0.00    +0.149 HD
BRANCH  32  34
ATOM     34  C   UNL     1     -12.021  -1.640  -1.329  0.00  0.00    +0.026 C 
ATOM     35  C   UNL     1     -12.197  -3.131  -1.035  0.00  0.00    +0.031 C 
ATOM     36  C   UNL     1     -13.235  -0.870  -0.804  0.00  0.00    +0.031 C 
ATOM     37  C   UNL     1     -11.898  -1.429  -2.840  0.00  0.00    +0.031 C 
ENDBRANCH  32  34
ENDBRANCH  29  30
BRANCH  29  38
ATOM     38  C   UNL     1      -7.826   0.024  -0.791  0.00  0.00    +0.012 C 
ATOM     39  C   UNL     1      -6.661   0.515   0.070  0.00  0.00    +0.009 C 
ATOM     40  C   UNL     1      -7.334  -0.230  -2.217  0.00  0.00    +0.009 C 
ENDBRANCH  29  38
ENDBRANCH  27  29
ENDBRANCH   5  25
TORSDOF 7
