REMARK  Name = ZINC20533355
REMARK  8 active torsions:
REMARK  status: ('A' for Active; 'I' for Inactive)
REMARK    1  A    between atoms: C_1  and  C_2
REMARK    2  A    between atoms: C_2  and  N_3
REMARK    3  A    between atoms: N_6  and  C_9
REMARK    4  A    between atoms: C_9  and  C_10
REMARK    5  A    between atoms: N_14  and  C_15
REMARK    6  A    between atoms: C_15  and  C_16
REMARK    7  A    between atoms: N_21  and  C_26
REMARK    8  A    between atoms: N_24  and  C_25
REMARK                            x       y       z     vdW  Elec       q    Type
REMARK                         _______ _______ _______ _____ _____    ______ ____
ROOT
ATOM      1  C   UNL     1      -0.998   1.369  -3.588  0.00  0.00    +0.127 A 
ATOM      2  N   UNL     1      -1.947   0.591  -4.043  0.00  0.00    -0.213 NA
ATOM      3  C   UNL     1      -2.542   1.168  -5.089  0.00  0.00    +0.168 A 
ATOM      4  C   UNL     1      -1.910   2.386  -5.303  0.00  0.00    +0.152 A 
ATOM      5  N   UNL     1      -0.932   2.489  -4.334  0.00  0.00    -0.312 N 
ATOM      6  C   UNL     1      -2.343   3.209  -6.365  0.00  0.00    +0.282 A 
ATOM      7  O   UNL     1      -1.804   4.282  -6.572  0.00  0.00    -0.265 OA
ATOM      8  N   UNL     1      -3.360   2.794  -7.147  0.00  0.00    -0.262 N 
ATOM      9  C   UNL     1      -3.963   1.612  -6.929  0.00  0.00    +0.333 A 
ATOM     10  O   UNL     1      -4.877   1.270  -7.655  0.00  0.00    -0.246 OA
ATOM     11  N   UNL     1      -3.581   0.797  -5.928  0.00  0.00    -0.280 N 
ATOM     12  C   UNL     1      -4.264  -0.483  -5.725  0.00  0.00    +0.155 C 
ATOM     13  C   UNL     1      -3.814   3.643  -8.252  0.00  0.00    +0.157 C 
ENDROOT
BRANCH   1  14
ATOM     14  C   UNL     1      -0.109   1.057  -2.412  0.00  0.00    +0.158 C 
BRANCH  14  18
ATOM     15  N   UNL     1      -0.783   3.048   1.252  0.00  0.00    +0.381 N 
ATOM     16  C   UNL     1      -0.730   1.580   1.267  0.00  0.00    -0.063 C 
ATOM     17  C   UNL     1      -0.013   1.086   0.008  0.00  0.00    +0.066 C 
ATOM     18  N   UNL     1      -0.724   1.573  -1.182  0.00  0.00    -0.299 NA
ATOM     19  C   UNL     1      -0.777   3.042  -1.196  0.00  0.00    +0.066 C 
ATOM     20  C   UNL     1      -1.495   3.536   0.062  0.00  0.00    -0.063 C 
ATOM     21  H   UNL     1       0.249   3.425   1.208  0.00  0.00    -0.082 HD
BRANCH  15  23
ATOM     22  C   UNL     1      -0.798   2.848   3.693  0.00  0.00    -0.017 C 
ATOM     23  C   UNL     1      -1.399   3.565   2.482  0.00  0.00    -0.082 C 
ENDBRANCH  15  23
ENDBRANCH  14  18
ENDBRANCH   1  14
BRANCH   5  24
ATOM     24  C   UNL     1       0.001   3.604  -4.152  0.00  0.00    +0.219 C 
BRANCH  24  25
ATOM     25  C   UNL     1       1.249   3.351  -4.959  0.00  0.00    +0.230 C 
ATOM     26  O   UNL     1       1.348   2.340  -5.621  0.00  0.00    -0.274 OA
ATOM     27  N   UNL     1       2.253   4.250  -4.946  0.00  0.00    -0.328 N 
ATOM     28  H   UNL     1       3.164   4.066  -5.535  0.00  0.00    +0.145 HD
ATOM     29  H   UNL     1       2.163   5.167  -4.345  0.00  0.00    +0.145 HD
ENDBRANCH  24  25
ENDBRANCH   5  24
TORSDOF 5
