REMARK  Name = ZINC57308347
REMARK  11 active torsions:
REMARK  status: ('A' for Active; 'I' for Inactive)
REMARK    1  A    between atoms: C_1  and  C_2
REMARK    2  A    between atoms: C_2  and  N_3
REMARK    3  A    between atoms: N_3  and  C_4
REMARK    4  A    between atoms: N_3  and  C_6
REMARK    5  A    between atoms: C_4  and  C_5
REMARK    6  A    between atoms: C_6  and  C_8
REMARK    7  A    between atoms: C_6  and  C_9
REMARK    8  A    between atoms: C_9  and  N_10
REMARK    9  A    between atoms: C_11  and  C_13
REMARK   10  A    between atoms: C_15  and  C_21
REMARK   11  A    between atoms: C_18  and  O_19
REMARK                            x       y       z     vdW  Elec       q    Type
REMARK                         _______ _______ _______ _____ _____    ______ ____
ROOT
ATOM      1  N   UNL     1       1.570  -1.370   3.901  0.00  0.00    -0.313 N 
ATOM      2  C   UNL     1       2.295  -1.294   5.034  0.00  0.00    +0.248 C 
ATOM      3  O   UNL     1       3.460  -1.643   5.035  0.00  0.00    -0.270 OA
ATOM      4  H   UNL     1       0.640  -1.092   3.900  0.00  0.00    +0.149 HD
ENDROOT
BRANCH   2   5
ATOM      5  C   UNL     1       1.676  -0.786   6.273  0.00  0.00    +0.079 A 
ATOM      6  C   UNL     1       0.336  -0.389   6.278  0.00  0.00    +0.020 A 
ATOM      7  C   UNL     1      -0.237   0.084   7.438  0.00  0.00    -0.048 A 
ATOM      8  C   UNL     1       0.509   0.169   8.602  0.00  0.00    +0.022 A 
ATOM      9  C   UNL     1       1.835  -0.220   8.612  0.00  0.00    +0.060 A 
ATOM     10  C   UNL     1       2.426  -0.704   7.454  0.00  0.00    +0.143 A 
ATOM     11 BR   UNL     1       2.843  -0.099  10.208  0.00  0.00    -0.046 Br
ATOM     12  C   UNL     1      -1.682   0.512   7.441  0.00  0.00    +0.044 C 
BRANCH  10  13
ATOM     13  O   UNL     1       3.726  -1.092   7.463  0.00  0.00    -0.505 OA
ATOM     14  H   UNL     1       4.349  -0.383   7.252  0.00  0.00    +0.292 HD
ENDBRANCH  10  13
ENDBRANCH   2   5
BRANCH   1  15
ATOM     15  C   UNL     1       2.184  -1.874   2.670  0.00  0.00    +0.089 C 
BRANCH  15  16
ATOM     16  C   UNL     1       1.195  -1.735   1.512  0.00  0.00    -0.054 C 
ATOM     17  C   UNL     1       1.882  -2.134   0.204  0.00  0.00    -0.012 C 
BRANCH  16  18
ATOM     18  N   UNL     1       0.741  -0.341   1.421  0.00  0.00    +0.382 N 
ATOM     19  H   UNL     1       0.373  -0.048   2.314  0.00  0.00    -0.081 HD
BRANCH  18  21
ATOM     20  C   UNL     1       1.436   1.985   1.101  0.00  0.00    -0.017 C 
ATOM     21  C   UNL     1       1.872   0.520   1.051  0.00  0.00    -0.082 C 
ENDBRANCH  18  21
BRANCH  18  22
ATOM     22  C   UNL     1      -0.310  -0.234   0.400  0.00  0.00    -0.082 C 
ATOM     23  C   UNL     1      -1.545  -1.014   0.856  0.00  0.00    -0.017 C 
ENDBRANCH  18  22
ENDBRANCH  16  18
ENDBRANCH  15  16
ENDBRANCH   1  15
TORSDOF 7
