REMARK  Name = ZINC35365987
REMARK  6 active torsions:
REMARK  status: ('A' for Active; 'I' for Inactive)
REMARK    1  A    between atoms: C_1  and  C_2
REMARK    2  A    between atoms: C_2  and  C_4
REMARK    3  A    between atoms: C_2  and  N_10
REMARK    4  A    between atoms: C_15  and  C_32
REMARK    5  A    between atoms: C_32  and  C_33
REMARK    6  A    between atoms: C_33  and  C_34
REMARK                            x       y       z     vdW  Elec       q    Type
REMARK                         _______ _______ _______ _____ _____    ______ ____
ROOT
ATOM      1  N   UNL     1      -1.393  -0.437   0.118  0.00  0.00    -0.234 N 
ATOM      2  C   UNL     1      -2.242   0.002   1.094  0.00  0.00    +0.228 C 
ATOM      3  O   UNL     1      -2.099   0.972   1.807  0.00  0.00    -0.275 OA
ATOM      4  C   UNL     1      -3.392  -0.968   1.100  0.00  0.00    +0.107 C 
ATOM      5  C   UNL     1      -4.824  -0.430   1.220  0.00  0.00    +0.068 C 
ATOM      6  N   UNL     1      -5.607  -1.386   0.369  0.00  0.00    -0.295 NA
ATOM      7  C   UNL     1      -4.674  -1.927  -0.667  0.00  0.00    +0.136 C 
ATOM      8  C   UNL     1      -3.400  -1.218  -0.462  0.00  0.00    +0.122 C 
ATOM      9  C   UNL     1      -1.988  -1.323  -0.745  0.00  0.00    +0.229 C 
ATOM     10  O   UNL     1      -1.448  -2.038  -1.562  0.00  0.00    -0.275 OA
ATOM     11  C   UNL     1      -4.558  -3.421  -0.506  0.00  0.00    +0.003 A 
ATOM     12  C   UNL     1      -4.085  -4.226   0.506  0.00  0.00    +0.008 A 
ATOM     13  C   UNL     1      -4.105  -5.602   0.362  0.00  0.00    +0.000 A 
ATOM     14  C   UNL     1      -4.603  -6.165  -0.798  0.00  0.00    +0.002 A 
ATOM     15  C   UNL     1      -5.080  -5.362  -1.813  0.00  0.00    +0.023 A 
ATOM     16  C   UNL     1      -5.062  -3.976  -1.677  0.00  0.00    +0.039 A 
ATOM     17  N   UNL     1      -5.481  -2.969  -2.547  0.00  0.00    -0.283 N 
ATOM     18  C   UNL     1      -5.290  -1.740  -2.033  0.00  0.00    +0.243 C 
ATOM     19  O   UNL     1      -5.561  -0.685  -2.565  0.00  0.00    -0.273 OA
ATOM     20  H   UNL     1      -5.998  -2.130   0.927  0.00  0.00    +0.123 HD
ATOM     21  H   UNL     1      -5.866  -3.135  -3.422  0.00  0.00    +0.155 HD
ENDROOT
BRANCH   1  23
ATOM     22  C   UNL     1       0.047   1.494  -0.304  0.00  0.00    +0.033 C 
ATOM     23  C   UNL     1       0.002  -0.004   0.002  0.00  0.00    +0.111 C 
BRANCH  23  24
ATOM     24  C   UNL     1       0.722  -0.274   1.298  0.00  0.00    -0.027 A 
ATOM     25  C   UNL     1       0.394  -1.386   2.052  0.00  0.00    +0.005 A 
ATOM     26  C   UNL     1       1.054  -1.633   3.241  0.00  0.00    +0.000 A 
ATOM     27  C   UNL     1       2.042  -0.770   3.676  0.00  0.00    +0.000 A 
ATOM     28  C   UNL     1       2.371   0.341   2.922  0.00  0.00    +0.000 A 
ATOM     29  C   UNL     1       1.713   0.587   1.730  0.00  0.00    +0.005 A 
ENDBRANCH  23  24
ENDBRANCH   1  23
BRANCH   5  30
ATOM     30  C   UNL     1      -5.301  -0.474   2.673  0.00  0.00    +0.028 C 
BRANCH  30  31
ATOM     31  C   UNL     1      -6.679   0.181   2.777  0.00  0.00    +0.097 C 
BRANCH  31  32
ATOM     32  C   UNL     1      -7.149   0.138   4.209  0.00  0.00    +0.211 C 
ATOM     33  O   UNL     1      -6.450  -0.368   5.061  0.00  0.00    -0.276 OA
ATOM     34  N   UNL     1      -8.345   0.661   4.542  0.00  0.00    -0.329 N 
ATOM     35  H   UNL     1      -8.904   1.065   3.860  0.00  0.00    +0.145 HD
ATOM     36  H   UNL     1      -8.648   0.632   5.463  0.00  0.00    +0.145 HD
ENDBRANCH  31  32
ENDBRANCH  30  31
ENDBRANCH   5  30
TORSDOF 5
