REMARK  Name = ZINC35870100
REMARK  11 active torsions:
REMARK  status: ('A' for Active; 'I' for Inactive)
REMARK    1  A    between atoms: C_1  and  C_2
REMARK    2  A    between atoms: C_2  and  C_3
REMARK    3  A    between atoms: C_2  and  N_4
REMARK    4  A    between atoms: C_5  and  C_7
REMARK    5  A    between atoms: C_7  and  N_8
REMARK    6  A    between atoms: C_19  and  C_24
REMARK    7  A    between atoms: N_26  and  C_27
REMARK    8  A    between atoms: C_27  and  C_28
REMARK    9  A    between atoms: C_28  and  N_29
REMARK   10  A    between atoms: N_29  and  C_30
REMARK   11  A    between atoms: N_29  and  C_31
REMARK                            x       y       z     vdW  Elec       q    Type
REMARK                         _______ _______ _______ _____ _____    ______ ____
ROOT
ATOM      1  N   UNL     1      -0.152  -1.201   4.710  0.00  0.00    +0.388 N 
ATOM      2  C   UNL     1      -0.596   0.155   5.065  0.00  0.00    -0.059 C 
ATOM      3  C   UNL     1      -1.723   0.043   6.089  0.00  0.00    +0.087 C 
ATOM      4  N   UNL     1      -1.311  -0.797   7.216  0.00  0.00    -0.329 N 
ATOM      5  C   UNL     1      -1.848  -0.495   8.478  0.00  0.00    +0.033 A 
ATOM      6  C   UNL     1      -2.764   0.548   8.580  0.00  0.00    +0.023 A 
ATOM      7  C   UNL     1      -3.313   0.866   9.806  0.00  0.00    +0.002 A 
ATOM      8  C   UNL     1      -2.953   0.149  10.932  0.00  0.00    +0.000 A 
ATOM      9  C   UNL     1      -2.042  -0.885  10.833  0.00  0.00    +0.005 A 
ATOM     10  C   UNL     1      -1.486  -1.207   9.607  0.00  0.00    -0.026 A 
ATOM     11  C   UNL     1      -0.484  -2.329   9.525  0.00  0.00    +0.051 C 
ATOM     12  C   UNL     1       0.436  -2.102   8.326  0.00  0.00    +0.098 C 
ATOM     13  C   UNL     1      -0.408  -1.927   7.059  0.00  0.00    +0.069 C 
ATOM     14  C   UNL     1       0.521  -1.796   5.863  0.00  0.00    -0.055 C 
ATOM     15  H   UNL     1      -0.951  -1.764   4.457  0.00  0.00    -0.081 HD
ENDROOT
BRANCH  12  16
ATOM     16  C   UNL     1       1.261  -0.861   8.555  0.00  0.00    +0.218 C 
ATOM     17  O   UNL     1       1.182   0.070   7.782  0.00  0.00    -0.275 OA
ATOM     18  N   UNL     1       2.086  -0.787   9.618  0.00  0.00    -0.317 N 
ATOM     19  H   UNL     1       2.149  -1.532  10.236  0.00  0.00    +0.149 HD
BRANCH  18  20
ATOM     20  C   UNL     1       2.888   0.418   9.840  0.00  0.00    +0.085 C 
BRANCH  20  21
ATOM     21  C   UNL     1       3.731   0.244  11.105  0.00  0.00    -0.061 C 
BRANCH  21  22
ATOM     22  N   UNL     1       4.535   1.453  11.328  0.00  0.00    +0.377 N 
ATOM     23  C   UNL     1       5.253   1.335  12.604  0.00  0.00    -0.097 C 
ATOM     24  C   UNL     1       5.503   1.607  10.233  0.00  0.00    -0.097 C 
ATOM     25  H   UNL     1       3.929   2.260  11.356  0.00  0.00    -0.083 HD
ENDBRANCH  21  22
ENDBRANCH  20  21
ENDBRANCH  18  20
ENDBRANCH  12  16
BRANCH   1  26
ATOM     26  C   UNL     1       0.780  -1.133   3.576  0.00  0.00    +0.019 C 
BRANCH  26  28
ATOM     27  N   UNL     1       0.711  -0.489   1.189  0.00  0.00    -0.315 N 
ATOM     28  C   UNL     1       0.051  -0.633   2.355  0.00  0.00    +0.197 C 
ATOM     29  O   UNL     1      -1.129  -0.361   2.423  0.00  0.00    -0.278 OA
ATOM     30  H   UNL     1       1.654  -0.707   1.135  0.00  0.00    +0.149 HD
BRANCH  27  32
ATOM     31  C   UNL     1      -0.019   1.526   0.010  0.00  0.00    +0.027 C 
ATOM     32  C   UNL     1       0.002  -0.004   0.002  0.00  0.00    +0.067 C 
ATOM     33  C   UNL     1       0.718  -0.497  -1.257  0.00  0.00    +0.027 C 
ENDBRANCH  27  32
ENDBRANCH  26  28
ENDBRANCH   1  26
TORSDOF 7
