REMARK  Name = ZINC16913525
REMARK  7 active torsions:
REMARK  status: ('A' for Active; 'I' for Inactive)
REMARK    1  A    between atoms: C_1  and  N_62
REMARK    2  A    between atoms: C_2  and  N_62
REMARK    3  A    between atoms: C_3  and  C_4
REMARK    4  A    between atoms: C_3  and  N_62
REMARK    5  A    between atoms: C_4  and  C_5
REMARK    6  A    between atoms: C_5  and  N_6
REMARK    7  A    between atoms: C_20  and  C_22
REMARK                            x       y       z     vdW  Elec       q    Type
REMARK                         _______ _______ _______ _____ _____    ______ ____
ROOT
ATOM      1  N   UNL     1      -3.705   7.578  -0.022  0.00  0.00    -0.246 N 
ATOM      2  C   UNL     1      -4.868   8.324  -0.113  0.00  0.00    +0.168 A 
ATOM      3  N   UNL     1      -5.011   9.629  -0.123  0.00  0.00    -0.224 NA
ATOM      4  C   UNL     1      -6.219  10.227  -0.217  0.00  0.00    +0.084 A 
ATOM      5  C   UNL     1      -6.507  11.611  -0.237  0.00  0.00    +0.078 A 
ATOM      6  C   UNL     1      -7.803  12.065  -0.337  0.00  0.00    +0.164 A 
ATOM      7  C   UNL     1      -8.870  11.171  -0.425  0.00  0.00    +0.163 A 
ATOM      8  C   UNL     1      -8.620   9.808  -0.408  0.00  0.00    +0.066 A 
ATOM      9  C   UNL     1      -7.327   9.355  -0.306  0.00  0.00    +0.044 A 
ATOM     10  S   UNL     1      -6.556   7.755  -0.255  0.00  0.00    -0.052 S 
ATOM     11  O   UNL     1     -10.152  11.614  -0.531  0.00  0.00    -0.485 OA
ATOM     12  C   UNL     1     -10.392  12.979  -0.171  0.00  0.00    +0.270 C 
ATOM     13  C   UNL     1      -9.307  13.844  -0.826  0.00  0.00    +0.270 C 
ATOM     14  O   UNL     1      -8.032  13.410  -0.344  0.00  0.00    -0.485 OA
ATOM     15  C   UNL     1      -2.512   8.198   0.073  0.00  0.00    +0.259 C 
ATOM     16  O   UNL     1      -2.463   9.409   0.181  0.00  0.00    -0.269 OA
ENDROOT
BRANCH  15  17
ATOM     17  C   UNL     1      -1.270   7.411   0.046  0.00  0.00    +0.122 A 
ATOM     18  C   UNL     1      -1.003   6.541  -1.004  0.00  0.00    +0.032 A 
ATOM     19  C   UNL     1       0.198   5.807  -0.986  0.00  0.00    +0.026 A 
ATOM     20  C   UNL     1       0.520   4.878  -2.072  0.00  0.00    -0.007 A 
ATOM     21  C   UNL     1      -0.346   4.687  -3.152  0.00  0.00    +0.009 A 
ATOM     22  C   UNL     1      -0.004   3.815  -4.145  0.00  0.00    +0.001 A 
ATOM     23  C   UNL     1       1.190   3.104  -4.091  0.00  0.00    +0.001 A 
ATOM     24  C   UNL     1       2.056   3.268  -3.051  0.00  0.00    +0.008 A 
ATOM     25  C   UNL     1       1.738   4.161  -2.015  0.00  0.00    -0.017 A 
ATOM     26  C   UNL     1       2.608   4.356  -0.924  0.00  0.00    +0.012 A 
ATOM     27  C   UNL     1       2.297   5.220   0.074  0.00  0.00    +0.047 A 
ATOM     28  C   UNL     1       1.107   5.956   0.071  0.00  0.00    +0.140 A 
ATOM     29  O   UNL     1       0.844   6.803   1.089  0.00  0.00    -0.422 OA
ATOM     30  C   UNL     1      -0.286   7.529   1.126  0.00  0.00    +0.350 A 
ATOM     31  O   UNL     1      -0.492   8.284   2.058  0.00  0.00    -0.244 OA
ENDBRANCH  15  17
BRANCH   1  32
ATOM     32  C   UNL     1      -3.771   6.114  -0.029  0.00  0.00    +0.114 C 
BRANCH  32  33
ATOM     33  C   UNL     1      -4.031   5.609   1.392  0.00  0.00    +0.001 C 
BRANCH  33  34
ATOM     34  C   UNL     1      -4.224   4.091   1.366  0.00  0.00    -0.078 C 
BRANCH  34  37
ATOM     35  C   UNL     1      -5.909   4.134   3.104  0.00  0.00    -0.097 C 
ATOM     36  C   UNL     1      -4.553   2.155   2.781  0.00  0.00    -0.097 C 
ATOM     37  N   UNL     1      -4.571   3.631   2.727  0.00  0.00    +0.376 N 
ATOM     38  H   UNL     1      -3.878   3.998   3.390  0.00  0.00    -0.083 HD
ENDBRANCH  34  37
ENDBRANCH  33  34
ENDBRANCH  32  33
ENDBRANCH   1  32
TORSDOF 5
