REMARK  Name = ZINC32961644
REMARK  5 active torsions:
REMARK  status: ('A' for Active; 'I' for Inactive)
REMARK    1  A    between atoms: N_10  and  C_13
REMARK    2  A    between atoms: C_16  and  N_22
REMARK    3  A    between atoms: C_18  and  C_19
REMARK    4  A    between atoms: N_22  and  S_23
REMARK    5  A    between atoms: S_23  and  C_26
REMARK                            x       y       z     vdW  Elec       q    Type
REMARK                         _______ _______ _______ _____ _____    ______ ____
ROOT
ATOM      1  C   UNL     1       1.463  -5.905   1.145  0.00  0.00    +0.044 A 
ATOM      2  C   UNL     1       1.585  -6.607   2.338  0.00  0.00    +0.026 A 
ATOM      3  C   UNL     1       1.619  -7.985   2.331  0.00  0.00    +0.028 A 
ATOM      4  C   UNL     1       1.531  -8.686   1.131  0.00  0.00    +0.075 A 
ATOM      5  C   UNL     1       1.409  -8.004  -0.066  0.00  0.00    +0.043 A 
ATOM      6  C   UNL     1       1.369  -6.605  -0.069  0.00  0.00    +0.086 A 
ENDROOT
BRANCH   1  16
ATOM      7  C   UNL     1       2.370   1.437   0.014  0.00  0.00    +0.005 A 
ATOM      8  C   UNL     1       1.127   2.057   0.003  0.00  0.00    +0.018 A 
ATOM      9  C   UNL     1      -0.015   1.282  -0.017  0.00  0.00    +0.084 A 
ATOM     10  N   UNL     1       0.061  -0.036  -0.024  0.00  0.00    -0.350 N 
ATOM     11  C   UNL     1       1.227  -0.664  -0.014  0.00  0.00    +0.099 A 
ATOM     12  C   UNL     1       2.418   0.054   0.005  0.00  0.00    +0.042 A 
ATOM     13  N   UNL     1       1.260  -2.054  -0.022  0.00  0.00    -0.314 N 
ATOM     14  C   UNL     1       2.538  -2.770  -0.142  0.00  0.00    +0.125 C 
ATOM     15  C   UNL     1       2.671  -3.737   1.041  0.00  0.00    +0.124 C 
ATOM     16  N   UNL     1       1.430  -4.516   1.153  0.00  0.00    -0.326 N 
ATOM     17  C   UNL     1       0.152  -3.799   1.273  0.00  0.00    +0.124 C 
ATOM     18  C   UNL     1       0.020  -2.833   0.096  0.00  0.00    +0.125 C 
ATOM     19  H   UNL     1      -0.757  -0.557  -0.038  0.00  0.00    +0.166 HD
ENDBRANCH   1  16
BRANCH   6  20
ATOM     20  C   UNL     1       1.233  -5.872  -1.337  0.00  0.00    +0.388 C 
ATOM     21  O   UNL     1       1.151  -6.486  -2.392  0.00  0.00    -0.241 OA
ATOM     22  O   UNL     1       1.202  -4.649  -1.336  0.00  0.00    -0.241 OA
ENDBRANCH   6  20
BRANCH   4  23
ATOM     23  N   UNL     1       1.567 -10.085   1.136  0.00  0.00    -0.097 NA
BRANCH  23  24
ATOM     24  S   UNL     1       1.714 -10.905   2.568  0.00  0.00    +0.098 S 
ATOM     25  O   UNL     1       3.002 -10.595   3.083  0.00  0.00    -0.148 OA
ATOM     26  O   UNL     1       0.521 -10.659   3.301  0.00  0.00    -0.148 OA
BRANCH  24  27
ATOM     27  C   UNL     1       1.724 -12.625   2.185  0.00  0.00    +0.149 A 
ATOM     28  C   UNL     1       2.778 -13.432   1.913  0.00  0.00    +0.038 A 
ATOM     29  C   UNL     1       2.546 -14.767   1.637  0.00  0.00    +0.030 A 
ATOM     30  C   UNL     1       1.271 -15.228   1.647  0.00  0.00    +0.080 A 
ATOM     31  S   UNL     1       0.349 -13.757   2.063  0.00  0.00    -0.057 S 
ATOM     32 CL   UNL     1       0.687 -16.834   1.342  0.00  0.00    -0.076 Cl
ENDBRANCH  24  27
ENDBRANCH  23  24
ENDBRANCH   4  23
TORSDOF 5
