REMARK  Name = ZINC63805306
REMARK  6 active torsions:
REMARK  status: ('A' for Active; 'I' for Inactive)
REMARK    1  A    between atoms: C_4  and  C_7
REMARK    2  A    between atoms: C_7  and  C_8
REMARK    3  A    between atoms: C_8  and  C_9
REMARK    4  A    between atoms: C_9  and  N_10
REMARK    5  A    between atoms: C_30  and  C_32
REMARK    6  A    between atoms: C_36  and  N_38
REMARK                            x       y       z     vdW  Elec       q    Type
REMARK                         _______ _______ _______ _____ _____    ______ ____
ROOT
ATOM      1  N   UNL     1       5.951  -1.709   2.807  0.00  0.00    -0.291 N 
ATOM      2  C   UNL     1       6.818  -0.768   3.496  0.00  0.00    +0.203 C 
ATOM      3  C   UNL     1       7.173  -1.230   4.870  0.00  0.00    +0.234 C 
ATOM      4  O   UNL     1       7.895  -0.517   5.535  0.00  0.00    -0.274 OA
ATOM      5  N   UNL     1       6.751  -2.374   5.422  0.00  0.00    -0.279 N 
ATOM      6  C   UNL     1       5.896  -3.321   4.714  0.00  0.00    +0.167 C 
ATOM      7  C   UNL     1       5.529  -2.852   3.345  0.00  0.00    +0.237 C 
ATOM      8  O   UNL     1       4.805  -3.560   2.678  0.00  0.00    -0.274 OA
ATOM      9  C   UNL     1       6.589  -4.693   4.628  0.00  0.00    +0.065 C 
ATOM     10  C   UNL     1       7.134  -4.986   6.005  0.00  0.00    -0.034 C 
ATOM     11  C   UNL     1       7.010  -6.047   6.792  0.00  0.00    -0.001 A 
ATOM     12  C   UNL     1       6.396  -7.366   6.571  0.00  0.00    +0.010 A 
ATOM     13  C   UNL     1       6.429  -8.227   7.622  0.00  0.00    +0.001 A 
ATOM     14  C   UNL     1       7.005  -7.912   8.857  0.00  0.00    +0.002 A 
ATOM     15  C   UNL     1       7.600  -6.727   9.145  0.00  0.00    +0.026 A 
ATOM     16  C   UNL     1       7.636  -5.743   8.115  0.00  0.00    +0.043 A 
ATOM     17  N   UNL     1       8.155  -4.551   8.109  0.00  0.00    -0.375 N 
ATOM     18  C   UNL     1       7.979  -3.978   6.774  0.00  0.00    +0.131 C 
ATOM     19  C   UNL     1       7.180  -2.673   6.807  0.00  0.00    +0.133 C 
ATOM     20  H   UNL     1       8.586  -4.115   8.861  0.00  0.00    +0.160 HD
ENDROOT
BRANCH  19  21
ATOM     21  C   UNL     1       5.971  -2.836   7.692  0.00  0.00    -0.023 A 
ATOM     22  C   UNL     1       5.029  -3.804   7.403  0.00  0.00    +0.005 A 
ATOM     23  C   UNL     1       3.920  -3.954   8.215  0.00  0.00    +0.003 A 
ATOM     24  C   UNL     1       3.755  -3.135   9.316  0.00  0.00    +0.033 A 
ATOM     25  C   UNL     1       4.698  -2.167   9.606  0.00  0.00    +0.127 A 
ATOM     26  C   UNL     1       5.809  -2.021   8.796  0.00  0.00    +0.038 A 
BRANCH  25  27
ATOM     27  N   UNL     1       4.520  -1.290  10.785  0.00  0.00    +0.056 N 
ATOM     28  O   UNL     1       3.550  -1.420  11.495  0.00  0.00    -0.126 OA
ATOM     29  O   UNL     1       5.345  -0.444  11.038  0.00  0.00    -0.126 OA
ENDBRANCH  25  27
ENDBRANCH  19  21
BRANCH   1  30
ATOM     30  C   UNL     1       5.511  -1.379   1.449  0.00  0.00    +0.108 C 
BRANCH  30  31
ATOM     31  C   UNL     1       4.205  -0.585   1.514  0.00  0.00    +0.024 C 
BRANCH  31  32
ATOM     32  C   UNL     1       3.746  -0.241   0.096  0.00  0.00    +0.036 C 
BRANCH  32  36
ATOM     33  C   UNL     1       0.098   1.974   0.276  0.00  0.00    +0.000 A 
ATOM     34  C   UNL     1       1.311   2.637   0.294  0.00  0.00    +0.000 A 
ATOM     35  C   UNL     1       2.491   1.920   0.236  0.00  0.00    +0.003 A 
ATOM     36  C   UNL     1       2.459   0.540   0.160  0.00  0.00    -0.047 A 
ATOM     37  C   UNL     1       1.246  -0.123   0.142  0.00  0.00    +0.003 A 
ATOM     38  C   UNL     1       0.066   0.594   0.199  0.00  0.00    +0.000 A 
ENDBRANCH  32  36
ENDBRANCH  31  32
ENDBRANCH  30  31
ENDBRANCH   1  30
TORSDOF 6
