REMARK  Name = ZINC64369941
REMARK  7 active torsions:
REMARK  status: ('A' for Active; 'I' for Inactive)
REMARK    1  A    between atoms: C_1  and  C_2
REMARK    2  A    between atoms: C_4  and  N_21
REMARK    3  A    between atoms: C_7  and  C_9
REMARK    4  A    between atoms: N_11  and  C_12
REMARK    5  A    between atoms: N_21  and  C_22
REMARK    6  A    between atoms: C_22  and  C_23
REMARK    7  A    between atoms: C_29  and  C_31
REMARK                            x       y       z     vdW  Elec       q    Type
REMARK                         _______ _______ _______ _____ _____    ______ ____
ROOT
ATOM      1  C   UNL     1      -0.018   0.833  -0.174  0.00  0.00    +0.062 C 
ATOM      2  C   UNL     1      -0.787   1.558  -1.249  0.00  0.00    +0.021 C 
ATOM      3  N   UNL     1      -0.222   1.704  -2.466  0.00  0.00    -0.320 N 
ATOM      4  C   UNL     1      -1.026   2.424  -3.476  0.00  0.00    +0.227 C 
ATOM      5  S   UNL     1      -2.534   2.798  -2.491  0.00  0.00    -0.077 S 
ATOM      6  C   UNL     1      -2.018   2.032  -0.962  0.00  0.00    +0.089 C 
ATOM      7  H   UNL     1       0.661   1.358  -2.666  0.00  0.00    +0.148 HD
ENDROOT
BRANCH   6   8
ATOM      8  C   UNL     1      -2.752   1.942   0.299  0.00  0.00    +0.255 C 
ATOM      9  O   UNL     1      -2.250   1.382   1.257  0.00  0.00    -0.269 OA
ATOM     10  N   UNL     1      -3.984   2.480   0.401  0.00  0.00    -0.274 N 
ATOM     11  H   UNL     1      -4.383   2.926  -0.362  0.00  0.00    +0.153 HD
BRANCH  10  12
ATOM     12  C   UNL     1      -4.719   2.390   1.665  0.00  0.00    +0.269 C 
ATOM     13  N   UNL     1      -5.297   1.049   1.818  0.00  0.00    -0.348 N 
ATOM     14  C   UNL     1      -6.589   1.187   1.891  0.00  0.00    +0.061 A 
ATOM     15  C   UNL     1      -7.689   0.224   2.046  0.00  0.00    +0.027 A 
ATOM     16  C   UNL     1      -8.961   0.670   2.091  0.00  0.00    +0.002 A 
ATOM     17  C   UNL     1      -9.290   2.033   1.996  0.00  0.00    +0.002 A 
ATOM     18  C   UNL     1      -8.360   2.998   1.851  0.00  0.00    +0.027 A 
ATOM     19  C   UNL     1      -6.938   2.630   1.790  0.00  0.00    +0.061 A 
ATOM     20  N   UNL     1      -5.848   3.329   1.659  0.00  0.00    -0.348 N 
ATOM     21  H   UNL     1      -4.806   0.214   1.857  0.00  0.00    +0.163 HD
ATOM     22  H   UNL     1      -5.792   4.294   1.573  0.00  0.00    +0.163 HD
ENDBRANCH  10  12
ENDBRANCH   6   8
BRANCH   4  23
ATOM     23  N   UNL     1      -0.356   3.652  -3.911  0.00  0.00    -0.270 N 
ATOM     24  C   UNL     1       0.507   4.277  -3.087  0.00  0.00    +0.215 C 
ATOM     25  O   UNL     1       0.803   3.773  -2.024  0.00  0.00    -0.276 OA
ATOM     26  C   UNL     1       1.104   5.602  -3.485  0.00  0.00    +0.109 C 
BRANCH  23  27
ATOM     27  C   UNL     1      -0.625   4.200  -5.243  0.00  0.00    +0.145 C 
BRANCH  27  28
ATOM     28  C   UNL     1      -1.867   5.053  -5.194  0.00  0.00    -0.030 A 
ATOM     29  C   UNL     1      -3.105   4.484  -5.426  0.00  0.00    +0.005 A 
ATOM     30  C   UNL     1      -4.244   5.266  -5.381  0.00  0.00    +0.000 A 
ATOM     31  C   UNL     1      -4.145   6.616  -5.103  0.00  0.00    +0.000 A 
ATOM     32  C   UNL     1      -2.907   7.185  -4.870  0.00  0.00    +0.000 A 
ATOM     33  C   UNL     1      -1.768   6.402  -4.911  0.00  0.00    +0.005 A 
ENDBRANCH  27  28
ENDBRANCH  23  27
ENDBRANCH   4  23
TORSDOF 5
