REMARK  Name = ZINC67550563
REMARK  7 active torsions:
REMARK  status: ('A' for Active; 'I' for Inactive)
REMARK    1  A    between atoms: C_1  and  C_2
REMARK    2  A    between atoms: C_5  and  C_26
REMARK    3  A    between atoms: C_7  and  N_8
REMARK    4  A    between atoms: N_11  and  C_12
REMARK    5  A    between atoms: C_12  and  C_13
REMARK    6  A    between atoms: N_18  and  C_19
REMARK    7  A    between atoms: C_19  and  C_20
REMARK                            x       y       z     vdW  Elec       q    Type
REMARK                         _______ _______ _______ _____ _____    ______ ____
ROOT
ATOM      1  N   UNL     1      -2.675  -2.928   5.018  0.00  0.00    -0.269 N 
ATOM      2  C   UNL     1      -1.473  -2.320   5.060  0.00  0.00    +0.304 C 
ATOM      3  O   UNL     1      -0.662  -2.516   4.176  0.00  0.00    -0.253 OA
ATOM      4  N   UNL     1      -1.170  -1.496   6.082  0.00  0.00    -0.301 N 
ATOM      5  H   UNL     1      -3.348  -2.720   5.686  0.00  0.00    +0.156 HD
ATOM      6  H   UNL     1      -1.817  -1.340   6.788  0.00  0.00    +0.150 HD
ENDROOT
BRANCH   1  13
ATOM      7  C   UNL     1      -4.333  -5.144   5.666  0.00  0.00    +0.045 C 
ATOM      8  C   UNL     1      -3.760  -4.959   4.285  0.00  0.00    -0.029 A 
ATOM      9  C   UNL     1      -4.042  -5.879   3.293  0.00  0.00    +0.006 A 
ATOM     10  C   UNL     1      -3.521  -5.716   2.026  0.00  0.00    +0.013 A 
ATOM     11  C   UNL     1      -2.705  -4.619   1.742  0.00  0.00    +0.038 A 
ATOM     12  C   UNL     1      -2.420  -3.691   2.743  0.00  0.00    +0.036 A 
ATOM     13  C   UNL     1      -2.954  -3.860   4.011  0.00  0.00    +0.038 A 
BRANCH  11  14
ATOM     14  C   UNL     1      -2.144  -4.443   0.386  0.00  0.00    +0.242 C 
ATOM     15  O   UNL     1      -1.434  -3.487   0.141  0.00  0.00    -0.270 OA
ATOM     16  N   UNL     1      -2.420  -5.342  -0.580  0.00  0.00    -0.325 N 
ATOM     17  H   UNL     1      -2.987  -6.105  -0.385  0.00  0.00    +0.145 HD
ATOM     18  H   UNL     1      -2.052  -5.226  -1.470  0.00  0.00    +0.145 HD
ENDBRANCH  11  14
ENDBRANCH   1  13
BRANCH   4  19
ATOM     19  C   UNL     1       0.136  -0.835   6.128  0.00  0.00    +0.090 C 
BRANCH  19  20
ATOM     20  C   UNL     1       0.271  -0.062   7.441  0.00  0.00    -0.051 C 
ATOM     21  C   UNL     1       0.256  -1.043   8.632  0.00  0.00    -0.016 C 
ATOM     22  C   UNL     1       1.301  -0.431   9.602  0.00  0.00    -0.020 C 
ATOM     23  C   UNL     1       2.353   0.132   8.614  0.00  0.00    -0.078 C 
ATOM     24  N   UNL     1       1.562   0.650   7.473  0.00  0.00    +0.383 N 
ATOM     25  H   UNL     1       1.401   1.640   7.590  0.00  0.00    -0.081 HD
BRANCH  24  26
ATOM     26  C   UNL     1       2.289   0.414   6.219  0.00  0.00    -0.075 C 
BRANCH  26  27
ATOM     27  C   UNL     1       3.580   1.234   6.215  0.00  0.00    -0.028 C 
ATOM     28  C   UNL     1       3.237   2.725   6.209  0.00  0.00    +0.002 C 
ATOM     29  C   UNL     1       4.529   3.546   6.205  0.00  0.00    +0.000 C 
ATOM     30  C   UNL     1       5.345   3.206   4.957  0.00  0.00    +0.000 C 
ATOM     31  C   UNL     1       5.688   1.715   4.963  0.00  0.00    +0.000 C 
ATOM     32  C   UNL     1       4.397   0.894   4.967  0.00  0.00    +0.002 C 
ENDBRANCH  26  27
ENDBRANCH  24  26
ENDBRANCH  19  20
ENDBRANCH   4  19
TORSDOF 6
