REMARK  Name = ZINC55087763
REMARK  3 active torsions:
REMARK  status: ('A' for Active; 'I' for Inactive)
REMARK    1  A    between atoms: C_4  and  N_18
REMARK    2  A    between atoms: C_6  and  C_9
REMARK    3  A    between atoms: N_11  and  C_12
REMARK                            x       y       z     vdW  Elec       q    Type
REMARK                         _______ _______ _______ _____ _____    ______ ____
ROOT
ATOM      1  C   UNL     1      -0.019   1.526   0.010  0.00  0.00    +0.001 C 
ATOM      2  C   UNL     1       1.417   2.055  -0.000  0.00  0.00    -0.002 C 
ATOM      3  C   UNL     1       2.157   1.548   1.239  0.00  0.00    -0.016 C 
ATOM      4  C   UNL     1       2.178   0.019   1.231  0.00  0.00    -0.063 C 
ATOM      5  C   UNL     1       0.742  -0.511   1.242  0.00  0.00    +0.060 C 
ATOM      6  C   UNL     1       0.002  -0.004   0.002  0.00  0.00    +0.011 C 
ENDROOT
BRANCH   5   7
ATOM      7  C   UNL     1       0.037  -0.025   2.481  0.00  0.00    +0.215 C 
ATOM      8  O   UNL     1       0.624   0.676   3.278  0.00  0.00    -0.276 OA
ATOM      9  N   UNL     1      -1.247  -0.369   2.705  0.00  0.00    -0.312 N 
ATOM     10  H   UNL     1      -1.717  -0.930   2.068  0.00  0.00    +0.149 HD
BRANCH   9  11
ATOM     11  C   UNL     1      -1.933   0.103   3.910  0.00  0.00    +0.077 C 
ATOM     12  C   UNL     1      -1.639  -0.849   5.074  0.00  0.00    +0.050 C 
ATOM     13  C   UNL     1      -2.422  -0.392   6.307  0.00  0.00    +0.161 C 
ATOM     14  O   UNL     1      -3.817  -0.354   5.997  0.00  0.00    -0.380 OA
ATOM     15  C   UNL     1      -4.157   0.555   4.949  0.00  0.00    +0.161 C 
ATOM     16  C   UNL     1      -3.444   0.136   3.661  0.00  0.00    +0.050 C 
ENDBRANCH   9  11
ENDBRANCH   5   7
BRANCH   4  17
ATOM     17  N   UNL     1       2.888  -0.468   2.421  0.00  0.00    +0.380 N 
ATOM     18  H   UNL     1       2.416  -0.143   3.251  0.00  0.00    -0.090 HD
ATOM     19  H   UNL     1       2.902  -1.477   2.415  0.00  0.00    -0.090 HD
ATOM     20  H   UNL     1       3.834  -0.119   2.414  0.00  0.00    -0.090 HD
ENDBRANCH   4  17
TORSDOF 3
