REMARK  Name = ZINC48605154
REMARK  11 active torsions:
REMARK  status: ('A' for Active; 'I' for Inactive)
REMARK    1  A    between atoms: C_1  and  C_2
REMARK    2  A    between atoms: C_2  and  C_27
REMARK    3  A    between atoms: C_4  and  N_10
REMARK    4  A    between atoms: C_6  and  C_8
REMARK    5  A    between atoms: C_6  and  C_9
REMARK    6  A    between atoms: C_11  and  C_13
REMARK    7  A    between atoms: N_15  and  C_16
REMARK    8  A    between atoms: C_19  and  O_24
REMARK    9  A    between atoms: C_21  and  O_22
REMARK   10  A    between atoms: O_22  and  C_23
REMARK   11  A    between atoms: O_24  and  C_25
REMARK                            x       y       z     vdW  Elec       q    Type
REMARK                         _______ _______ _______ _____ _____    ______ ____
ROOT
ATOM      1  N   UNL     1       2.602  -0.802  -2.639  0.00  0.00    -0.305 N 
ATOM      2  C   UNL     1       3.761  -0.322  -3.133  0.00  0.00    +0.300 C 
ATOM      3  O   UNL     1       4.362   0.545  -2.534  0.00  0.00    -0.265 OA
ATOM      4  H   UNL     1       2.121  -1.496  -3.118  0.00  0.00    +0.149 HD
ENDROOT
BRANCH   1   8
ATOM      5  C   UNL     1      -0.043   1.563  -0.031  0.00  0.00    -0.010 C 
ATOM      6  C   UNL     1      -0.025   0.030  -0.031  0.00  0.00    -0.072 C 
ATOM      7  C   UNL     1       0.553  -0.478  -1.347  0.00  0.00    +0.009 C 
ATOM      8  C   UNL     1       2.069  -0.277  -1.377  0.00  0.00    +0.071 C 
ATOM      9  C   UNL     1       2.676  -1.056  -0.210  0.00  0.00    +0.009 C 
ATOM     10  C   UNL     1       2.114  -0.552   1.115  0.00  0.00    -0.072 C 
ATOM     11  N   UNL     1       0.663  -0.489   1.138  0.00  0.00    +0.386 N 
ATOM     12  C   UNL     1       2.736   0.805   1.460  0.00  0.00    -0.010 C 
ATOM     13  C   UNL     1       2.559  -1.546   2.214  0.00  0.00    -0.010 C 
ATOM     14  C   UNL     1      -1.496  -0.441   0.041  0.00  0.00    -0.010 C 
ATOM     15  H   UNL     1       0.378   0.066   1.951  0.00  0.00    -0.084 HD
ATOM     16  H   UNL     1       0.305  -1.430   1.328  0.00  0.00    -0.084 HD
ENDBRANCH   1   8
BRANCH   2  17
ATOM     17  C   UNL     1       4.303  -0.856  -4.417  0.00  0.00    +0.303 C 
ATOM     18  O   UNL     1       3.701  -1.724  -5.017  0.00  0.00    -0.265 OA
ATOM     19  N   UNL     1       5.462  -0.376  -4.911  0.00  0.00    -0.275 N 
ATOM     20  H   UNL     1       5.909   0.361  -4.468  0.00  0.00    +0.155 HD
BRANCH  19  21
ATOM     21  C   UNL     1       6.019  -0.941  -6.065  0.00  0.00    +0.078 A 
ATOM     22  C   UNL     1       5.193  -1.415  -7.075  0.00  0.00    +0.050 A 
ATOM     23  C   UNL     1       5.743  -1.972  -8.213  0.00  0.00    +0.084 A 
ATOM     24  C   UNL     1       7.122  -2.061  -8.349  0.00  0.00    +0.142 A 
ATOM     25  C   UNL     1       7.951  -1.589  -7.342  0.00  0.00    +0.094 A 
ATOM     26  C   UNL     1       7.403  -1.024  -6.203  0.00  0.00    +0.145 A 
ATOM     27 CL   UNL     1       4.709  -2.564  -9.476  0.00  0.00    -0.080 Cl
BRANCH  26  28
ATOM     28  O   UNL     1       8.214  -0.555  -5.217  0.00  0.00    -0.493 OA
ATOM     29  C   UNL     1       9.623  -0.672  -5.426  0.00  0.00    +0.277 C 
ENDBRANCH  26  28
BRANCH  24  30
ATOM     30  O   UNL     1       7.661  -2.611  -9.470  0.00  0.00    -0.494 OA
ATOM     31  C   UNL     1       9.087  -2.670  -9.543  0.00  0.00    +0.277 C 
ENDBRANCH  24  30
ENDBRANCH  19  21
ENDBRANCH   2  17
TORSDOF 5
