REMARK  Name = ZINC21259828
REMARK  10 active torsions:
REMARK  status: ('A' for Active; 'I' for Inactive)
REMARK    1  A    between atoms: C_1  and  C_2
REMARK    2  A    between atoms: C_2  and  C_3
REMARK    3  A    between atoms: C_2  and  O_4
REMARK    4  A    between atoms: O_4  and  C_5
REMARK    5  A    between atoms: C_8  and  C_11
REMARK    6  A    between atoms: C_16  and  C_22
REMARK    7  A    between atoms: C_24  and  O_31
REMARK    8  A    between atoms: C_25  and  O_29
REMARK    9  A    between atoms: O_29  and  C_30
REMARK   10  A    between atoms: O_31  and  C_32
REMARK                            x       y       z     vdW  Elec       q    Type
REMARK                         _______ _______ _______ _____ _____    ______ ____
ROOT
ATOM      1  C   UNL     1       1.074   3.325   0.694  0.00  0.00    +0.032 C 
ATOM      2  C   UNL     1       0.020   3.935  -0.232  0.00  0.00    +0.059 C 
ATOM      3  C   UNL     1      -1.234   3.098  -0.193  0.00  0.00    +0.018 C 
ATOM      4  C   UNL     1      -1.171   1.768   0.025  0.00  0.00    +0.020 C 
ATOM      5  C   UNL     1      -2.441   0.949   0.058  0.00  0.00    +0.063 C 
ATOM      6  C   UNL     1      -3.569   1.782   0.669  0.00  0.00    +0.109 C 
ATOM      7  C   UNL     1      -3.591   3.139   0.014  0.00  0.00    +0.218 C 
ATOM      8  O   UNL     1      -4.645   3.715  -0.151  0.00  0.00    -0.275 OA
ATOM      9  N   UNL     1      -2.444   3.714  -0.389  0.00  0.00    -0.289 N 
ATOM     10  C   UNL     1       0.057   1.119   0.239  0.00  0.00    +0.162 C 
ATOM     11  O   UNL     1       0.074  -0.082   0.421  0.00  0.00    -0.292 OA
ATOM     12  C   UNL     1       1.351   1.888   0.240  0.00  0.00    +0.088 C 
ATOM     13  H   UNL     1      -2.488   4.695  -0.883  0.00  0.00    +0.155 HD
ENDROOT
BRANCH   5  14
ATOM     14  C   UNL     1      -2.814   0.551  -1.347  0.00  0.00    -0.035 A 
ATOM     15  C   UNL     1      -2.901  -0.787  -1.684  0.00  0.00    +0.053 A 
ATOM     16  C   UNL     1      -3.249  -1.155  -2.974  0.00  0.00    +0.163 A 
ATOM     17  C   UNL     1      -3.501  -0.176  -3.930  0.00  0.00    +0.175 A 
ATOM     18  C   UNL     1      -3.407   1.164  -3.587  0.00  0.00    +0.063 A 
ATOM     19  C   UNL     1      -3.063   1.524  -2.296  0.00  0.00    +0.023 A 
ATOM     20 BR   UNL     1      -3.747   2.498  -4.883  0.00  0.00    -0.046 Br
BRANCH  17  21
ATOM     21  O   UNL     1      -3.839  -0.533  -5.198  0.00  0.00    -0.490 OA
ATOM     22  C   UNL     1      -2.769  -0.706  -6.130  0.00  0.00    +0.277 C 
ENDBRANCH  17  21
BRANCH  16  23
ATOM     23  O   UNL     1      -3.341  -2.471  -3.305  0.00  0.00    -0.491 OA
ATOM     24  C   UNL     1      -3.069  -3.421  -2.273  0.00  0.00    +0.277 C 
ENDBRANCH  16  23
ENDBRANCH   5  14
BRANCH   1  28
ATOM     25  C   UNL     1       4.676   5.615   0.475  0.00  0.00    +0.121 A 
ATOM     26  C   UNL     1       4.023   5.460   1.690  0.00  0.00    +0.046 A 
ATOM     27  C   UNL     1       2.859   4.720   1.758  0.00  0.00    +0.007 A 
ATOM     28  C   UNL     1       2.344   4.133   0.617  0.00  0.00    -0.043 A 
ATOM     29  C   UNL     1       2.995   4.281  -0.594  0.00  0.00    +0.007 A 
ATOM     30  C   UNL     1       4.156   5.026  -0.668  0.00  0.00    +0.046 A 
BRANCH  25  31
ATOM     31  O   UNL     1       5.821   6.343   0.405  0.00  0.00    -0.489 OA
BRANCH  31  33
ATOM     32  C   UNL     1       7.868   7.044   1.482  0.00  0.00    +0.051 C 
ATOM     33  C   UNL     1       6.363   6.820   1.639  0.00  0.00    +0.167 C 
ATOM     34  C   UNL     1       5.687   8.139   2.017  0.00  0.00    +0.051 C 
ENDBRANCH  31  33
ENDBRANCH  25  31
ENDBRANCH   1  28
TORSDOF 6
