REMARK  Name = ZINC38966335
REMARK  6 active torsions:
REMARK  status: ('A' for Active; 'I' for Inactive)
REMARK    1  A    between atoms: C_1  and  O_2
REMARK    2  A    between atoms: O_2  and  C_3
REMARK    3  A    between atoms: C_8  and  C_9
REMARK    4  A    between atoms: N_15  and  N_16
REMARK    5  A    between atoms: C_17  and  C_18
REMARK    6  A    between atoms: C_23  and  O_24
REMARK                            x       y       z     vdW  Elec       q    Type
REMARK                         _______ _______ _______ _____ _____    ______ ____
ROOT
ATOM      1  C   UNL     1       0.054  -2.836  -0.017  0.00  0.00    +0.267 C 
ATOM      2  N   UNL     1      -1.203  -2.230   0.449  0.00  0.00    -0.189 NA
ATOM      3  N   UNL     1      -2.119  -3.024   0.221  0.00  0.00    -0.219 N 
ATOM      4  C   UNL     1      -1.701  -4.175  -0.370  0.00  0.00    +0.174 C 
ATOM      5  S   UNL     1      -2.722  -5.476  -0.815  0.00  0.00    -0.015 S 
ATOM      6  N   UNL     1      -0.360  -4.145  -0.555  0.00  0.00    -0.172 N 
ATOM      7  H   UNL     1      -3.047  -2.845   0.442  0.00  0.00    +0.176 HD
ENDROOT
BRANCH   1  13
ATOM      8  C   UNL     1       0.630  -0.609  -1.016  0.00  0.00    +0.127 A 
ATOM      9  C   UNL     1       1.210   0.165  -2.011  0.00  0.00    +0.046 A 
ATOM     10  C   UNL     1       1.830  -0.445  -3.084  0.00  0.00    +0.004 A 
ATOM     11  C   UNL     1       1.872  -1.825  -3.168  0.00  0.00    +0.001 A 
ATOM     12  C   UNL     1       1.294  -2.597  -2.178  0.00  0.00    +0.011 A 
ATOM     13  C   UNL     1       0.678  -1.993  -1.099  0.00  0.00    +0.039 A 
BRANCH   8  15
ATOM     14  C   UNL     1       0.008   1.417   0.062  0.00  0.00    +0.277 C 
ATOM     15  O   UNL     1       0.020  -0.011   0.042  0.00  0.00    -0.495 OA
ENDBRANCH   8  15
ENDBRANCH   1  13
BRANCH   6  16
ATOM     16  N   UNL     1       0.453  -5.132  -1.127  0.00  0.00    -0.183 NA
ATOM     17  C   UNL     1      -0.054  -6.283  -1.452  0.00  0.00    +0.142 C 
BRANCH  17  18
ATOM     18  C   UNL     1       0.820  -7.359  -1.950  0.00  0.00    +0.038 A 
ATOM     19  C   UNL     1       0.277  -8.597  -2.306  0.00  0.00    +0.028 A 
ATOM     20  C   UNL     1       1.101  -9.601  -2.772  0.00  0.00    +0.020 A 
ATOM     21  C   UNL     1       2.465  -9.387  -2.888  0.00  0.00    +0.034 A 
ATOM     22  C   UNL     1       3.014  -8.167  -2.538  0.00  0.00    +0.061 A 
ATOM     23  C   UNL     1       2.199  -7.146  -2.074  0.00  0.00    +0.139 A 
ATOM     24 BR   UNL     1       4.877  -7.888  -2.701  0.00  0.00    -0.046 Br
ATOM     25 BR   UNL     1       0.366 -11.275  -3.253  0.00  0.00    -0.050 Br
BRANCH  23  26
ATOM     26  O   UNL     1       2.737  -5.945  -1.736  0.00  0.00    -0.505 OA
ATOM     27  H   UNL     1       3.011  -5.883  -0.811  0.00  0.00    +0.292 HD
ENDBRANCH  23  26
ENDBRANCH  17  18
ENDBRANCH   6  16
TORSDOF 5
