REMARK  Name = ZINC39528692
REMARK  8 active torsions:
REMARK  status: ('A' for Active; 'I' for Inactive)
REMARK    1  A    between atoms: C_1  and  C_2
REMARK    2  A    between atoms: C_2  and  C_3
REMARK    3  A    between atoms: C_5  and  C_26
REMARK    4  A    between atoms: C_8  and  N_9
REMARK    5  A    between atoms: C_13  and  S_16
REMARK    6  A    between atoms: S_16  and  O_19
REMARK    7  A    between atoms: O_19  and  C_20
REMARK    8  A    between atoms: C_26  and  C_27
REMARK                            x       y       z     vdW  Elec       q    Type
REMARK                         _______ _______ _______ _____ _____    ______ ____
ROOT
ATOM      1  N   UNL     1      -1.279  -0.639  -2.794  0.00  0.00    -0.331 N 
ATOM      2  C   UNL     1      -0.482  -1.494  -3.687  0.00  0.00    +0.086 C 
ATOM      3  C   UNL     1       0.848  -0.789  -3.974  0.00  0.00    -0.061 C 
ATOM      4  N   UNL     1       0.585   0.557  -4.498  0.00  0.00    +0.398 N 
ATOM      5  C   UNL     1      -0.081   1.371  -3.474  0.00  0.00    +0.133 C 
ATOM      6  C   UNL     1      -1.462   0.773  -3.166  0.00  0.00    +0.115 C 
ATOM      7  H   UNL     1       1.458   0.992  -4.758  0.00  0.00    -0.083 HD
ATOM      8  H   UNL     1      -0.009   0.489  -5.311  0.00  0.00    -0.083 HD
ENDROOT
BRANCH   1  14
ATOM      9  C   UNL     1      -1.146  -1.121  -0.433  0.00  0.00    -0.026 A 
ATOM     10  C   UNL     1      -1.718  -1.627   0.719  0.00  0.00    +0.009 A 
ATOM     11  C   UNL     1      -2.988  -2.171   0.680  0.00  0.00    -0.043 A 
ATOM     12  C   UNL     1      -3.692  -2.211  -0.510  0.00  0.00    +0.006 A 
ATOM     13  C   UNL     1      -3.126  -1.706  -1.665  0.00  0.00    +0.023 A 
ATOM     14  C   UNL     1      -1.852  -1.154  -1.629  0.00  0.00    +0.033 A 
BRANCH   9  16
ATOM     15  C   UNL     1       0.140   0.986  -0.204  0.00  0.00    +0.009 C 
ATOM     16  C   UNL     1       0.239  -0.529  -0.391  0.00  0.00    +0.033 C 
ENDBRANCH   9  16
BRANCH  11  17
ATOM     17  C   UNL     1      -3.608  -2.722   1.938  0.00  0.00    +0.070 C 
BRANCH  17  18
ATOM     18  C   UNL     1      -4.370  -1.630   2.644  0.00  0.00    -0.043 A 
ATOM     19  C   UNL     1      -3.732  -0.834   3.576  0.00  0.00    +0.004 A 
ATOM     20  C   UNL     1      -4.430   0.168   4.224  0.00  0.00    +0.000 A 
ATOM     21  C   UNL     1      -5.767   0.374   3.937  0.00  0.00    +0.000 A 
ATOM     22  C   UNL     1      -6.405  -0.421   3.004  0.00  0.00    +0.000 A 
ATOM     23  C   UNL     1      -5.705  -1.420   2.354  0.00  0.00    +0.004 A 
ENDBRANCH  17  18
ENDBRANCH  11  17
ENDBRANCH   1  14
BRANCH   5  24
ATOM     24  S   UNL     1      -0.281   3.067  -4.086  0.00  0.00    +0.109 S 
ATOM     25  O   UNL     1      -0.952   3.059  -5.339  0.00  0.00    -0.138 OA
ATOM     26  O   UNL     1      -0.719   3.918  -3.036  0.00  0.00    -0.138 OA
BRANCH  24  27
ATOM     27  O   UNL     1       1.131   3.538  -4.404  0.00  0.00    -0.347 OA
BRANCH  27  28
ATOM     28  C   UNL     1       1.875   3.834  -3.307  0.00  0.00    +0.156 A 
ATOM     29  C   UNL     1       1.847   5.114  -2.773  0.00  0.00    +0.048 A 
ATOM     30  C   UNL     1       2.604   5.413  -1.657  0.00  0.00    +0.004 A 
ATOM     31  C   UNL     1       3.390   4.437  -1.072  0.00  0.00    +0.000 A 
ATOM     32  C   UNL     1       3.421   3.160  -1.603  0.00  0.00    +0.004 A 
ATOM     33  C   UNL     1       2.660   2.855  -2.715  0.00  0.00    +0.048 A 
ENDBRANCH  27  28
ENDBRANCH  24  27
ENDBRANCH   5  24
TORSDOF 7
