REMARK  Name = ZINC67202526
REMARK  9 active torsions:
REMARK  status: ('A' for Active; 'I' for Inactive)
REMARK    1  A    between atoms: C_3  and  O_11
REMARK    2  A    between atoms: C_6  and  C_7
REMARK    3  A    between atoms: C_7  and  C_8
REMARK    4  A    between atoms: O_11  and  C_12
REMARK    5  A    between atoms: C_12  and  C_13
REMARK    6  A    between atoms: N_15  and  C_16
REMARK    7  A    between atoms: C_16  and  C_17
REMARK    8  A    between atoms: N_22  and  C_23
REMARK    9  A    between atoms: C_23  and  C_24
REMARK                            x       y       z     vdW  Elec       q    Type
REMARK                         _______ _______ _______ _____ _____    ______ ____
ROOT
ATOM      1  C   UNL     1       5.940   2.274  -0.043  0.00  0.00    +0.251 C 
ATOM      2  O   UNL     1       5.766   3.474  -0.036  0.00  0.00    -0.272 OA
ATOM      3  N   UNL     1       7.192   1.774  -0.058  0.00  0.00    -0.314 N 
ATOM      4  H   UNL     1       7.331   0.814  -0.064  0.00  0.00    +0.149 HD
ENDROOT
BRANCH   1   5
ATOM      5  C   UNL     1       4.756   1.341  -0.036  0.00  0.00    +0.324 C 
BRANCH   5   6
ATOM      6  O   UNL     1       3.548   2.104  -0.021  0.00  0.00    -0.483 OA
BRANCH   6   9
ATOM      7  C   UNL     1      -0.017   1.378   0.010  0.00  0.00    +0.007 A 
ATOM      8  C   UNL     1       1.169   2.087   0.002  0.00  0.00    +0.046 A 
ATOM      9  C   UNL     1       2.380   1.409  -0.013  0.00  0.00    +0.121 A 
ATOM     10  C   UNL     1       2.396   0.022  -0.021  0.00  0.00    +0.046 A 
ATOM     11  C   UNL     1       1.207  -0.681  -0.013  0.00  0.00    +0.007 A 
ATOM     12  C   UNL     1       0.002  -0.004   0.002  0.00  0.00    -0.038 A 
BRANCH  12  13
ATOM     13  C   UNL     1      -1.293  -0.774   0.011  0.00  0.00    +0.130 C 
BRANCH  13  14
ATOM     14  C   UNL     1      -1.739  -1.023  -1.407  0.00  0.00    +0.215 C 
ATOM     15  O   UNL     1      -1.071  -0.615  -2.333  0.00  0.00    -0.276 OA
ATOM     16  N   UNL     1      -2.881  -1.699  -1.646  0.00  0.00    -0.329 N 
ATOM     17  H   UNL     1      -3.415  -2.025  -0.905  0.00  0.00    +0.145 HD
ATOM     18  H   UNL     1      -3.168  -1.859  -2.558  0.00  0.00    +0.145 HD
ENDBRANCH  13  14
ENDBRANCH  12  13
ENDBRANCH   6   9
ENDBRANCH   5   6
ENDBRANCH   1   5
BRANCH   3  19
ATOM     19  C   UNL     1       8.342   2.681  -0.065  0.00  0.00    +0.089 C 
BRANCH  19  20
ATOM     20  C   UNL     1       9.636   1.864  -0.081  0.00  0.00    -0.051 C 
ATOM     21  C   UNL     1      10.847   2.803  -0.259  0.00  0.00    -0.016 C 
ATOM     22  C   UNL     1      11.784   1.993  -1.194  0.00  0.00    -0.020 C 
ATOM     23  C   UNL     1      10.763   1.278  -2.114  0.00  0.00    -0.078 C 
ATOM     24  N   UNL     1       9.627   0.935  -1.226  0.00  0.00    +0.383 N 
ATOM     25  H   UNL     1       8.760   1.028  -1.733  0.00  0.00    -0.081 HD
BRANCH  24  26
ATOM     26  C   UNL     1       9.771  -0.445  -0.744  0.00  0.00    -0.075 C 
BRANCH  26  27
ATOM     27  C   UNL     1       9.637  -1.413  -1.921  0.00  0.00    -0.028 C 
ATOM     28  C   UNL     1       8.220  -1.329  -2.492  0.00  0.00    +0.002 C 
ATOM     29  C   UNL     1       8.086  -2.297  -3.669  0.00  0.00    +0.000 C 
ATOM     30  C   UNL     1       8.359  -3.724  -3.190  0.00  0.00    +0.000 C 
ATOM     31  C   UNL     1       9.777  -3.808  -2.619  0.00  0.00    +0.000 C 
ATOM     32  C   UNL     1       9.910  -2.840  -1.442  0.00  0.00    +0.002 C 
ENDBRANCH  26  27
ENDBRANCH  24  26
ENDBRANCH  19  20
ENDBRANCH   3  19
TORSDOF 9
