REMARK  Name = ZINC23301552
REMARK  9 active torsions:
REMARK  status: ('A' for Active; 'I' for Inactive)
REMARK    1  A    between atoms: C_1  and  C_2
REMARK    2  A    between atoms: C_5  and  C_8
REMARK    3  A    between atoms: C_8  and  C_10
REMARK    4  A    between atoms: C_8  and  N_15
REMARK    5  A    between atoms: C_16  and  C_18
REMARK    6  A    between atoms: C_18  and  N_19
REMARK    7  A    between atoms: N_22  and  C_25
REMARK    8  A    between atoms: C_25  and  C_26
REMARK    9  A    between atoms: N_28  and  C_29
REMARK                            x       y       z     vdW  Elec       q    Type
REMARK                         _______ _______ _______ _____ _____    ______ ____
ROOT
ATOM      1  N   UNL     1       2.111  -3.093  -4.499  0.00  0.00    +0.387 N 
ATOM      2  C   UNL     1       1.373  -1.943  -5.040  0.00  0.00    -0.063 C 
ATOM      3  C   UNL     1       1.858  -1.652  -6.462  0.00  0.00    +0.066 C 
ATOM      4  N   UNL     1       1.658  -2.843  -7.298  0.00  0.00    -0.298 NA
ATOM      5  C   UNL     1       2.396  -3.993  -6.758  0.00  0.00    +0.066 C 
ATOM      6  C   UNL     1       1.910  -4.284  -5.336  0.00  0.00    -0.063 C 
ATOM      7  H   UNL     1       3.182  -2.846  -4.511  0.00  0.00    -0.081 HD
ENDROOT
BRANCH   1   8
ATOM      8  C   UNL     1       1.726  -3.357  -3.106  0.00  0.00    +0.019 C 
BRANCH   8  10
ATOM      9  N   UNL     1       1.923  -2.234  -0.911  0.00  0.00    -0.306 N 
ATOM     10  C   UNL     1       2.170  -2.210  -2.236  0.00  0.00    +0.197 C 
ATOM     11  O   UNL     1       2.749  -1.265  -2.728  0.00  0.00    -0.278 OA
ATOM     12  H   UNL     1       1.397  -3.091  -0.465  0.00  0.00    +0.150 HD
BRANCH   9  13
ATOM     13  C   UNL     1       2.354  -1.118  -0.065  0.00  0.00    +0.140 C 
BRANCH  13  18
ATOM     14  C   UNL     1       3.052  -2.973   5.363  0.00  0.00    +0.044 C 
ATOM     15  C   UNL     1       2.871  -2.490   3.947  0.00  0.00    -0.050 A 
ATOM     16  C   UNL     1       3.770  -1.592   3.402  0.00  0.00    +0.004 A 
ATOM     17  C   UNL     1       3.603  -1.148   2.104  0.00  0.00    +0.006 A 
ATOM     18  C   UNL     1       2.537  -1.602   1.350  0.00  0.00    -0.022 A 
ATOM     19  C   UNL     1       1.635  -2.496   1.897  0.00  0.00    +0.006 A 
ATOM     20  C   UNL     1       1.805  -2.944   3.193  0.00  0.00    +0.004 A 
ENDBRANCH  13  18
BRANCH  13  21
ATOM     21  C   UNL     1       1.309  -0.033  -0.094  0.00  0.00    +0.014 A 
ATOM     22  C   UNL     1       1.476   1.312  -0.142  0.00  0.00    +0.013 A 
ATOM     23  C   UNL     1       0.359   2.126  -0.161  0.00  0.00    +0.008 A 
ATOM     24  C   UNL     1      -0.870   1.555  -0.130  0.00  0.00    +0.045 A 
ATOM     25  S   UNL     1      -0.469  -0.183  -0.073  0.00  0.00    -0.099 S 
ENDBRANCH  13  21
ENDBRANCH   9  13
ENDBRANCH   8  10
ENDBRANCH   1   8
BRANCH   4  26
ATOM     26  C   UNL     1       2.042  -2.578  -8.691  0.00  0.00    +0.180 C 
BRANCH  26  27
ATOM     27  C   UNL     1       1.586  -3.719  -9.564  0.00  0.00    +0.231 C 
ATOM     28  O   UNL     1       0.898  -4.603  -9.097  0.00  0.00    -0.274 OA
ATOM     29  N   UNL     1       1.941  -3.758 -10.863  0.00  0.00    -0.283 N 
ATOM     30  H   UNL     1       2.622  -2.996 -11.270  0.00  0.00    +0.155 HD
BRANCH  29  31
ATOM     31  C   UNL     1       1.444  -4.768 -11.695  0.00  0.00    +0.052 A 
ATOM     32  C   UNL     1       1.205  -6.036 -11.184  0.00  0.00    +0.025 A 
ATOM     33  C   UNL     1       0.708  -7.029 -12.005  0.00  0.00    +0.002 A 
ATOM     34  C   UNL     1       0.460  -6.764 -13.340  0.00  0.00    +0.002 A 
ATOM     35  C   UNL     1       0.702  -5.504 -13.855  0.00  0.00    +0.022 A 
ATOM     36  C   UNL     1       1.193  -4.504 -13.036  0.00  0.00    +0.062 A 
ATOM     37 CL   UNL     1       1.497  -2.922 -13.683  0.00  0.00    -0.082 Cl
ENDBRANCH  29  31
ENDBRANCH  26  27
ENDBRANCH   4  26
TORSDOF 8
