REMARK  Name = ZINC63720281
REMARK  6 active torsions:
REMARK  status: ('A' for Active; 'I' for Inactive)
REMARK    1  A    between atoms: C_1  and  C_2
REMARK    2  A    between atoms: N_4  and  C_5
REMARK    3  A    between atoms: C_10  and  C_11
REMARK    4  A    between atoms: C_18  and  C_23
REMARK    5  A    between atoms: N_25  and  C_26
REMARK    6  A    between atoms: C_26  and  C_27
REMARK                            x       y       z     vdW  Elec       q    Type
REMARK                         _______ _______ _______ _____ _____    ______ ____
ROOT
ATOM      1  C   UNL     1       0.185  -1.891  -3.733  0.00  0.00    +0.198 C 
ATOM      2  C   UNL     1       1.577  -1.343  -3.950  0.00  0.00    +0.244 C 
ATOM      3  O   UNL     1       2.103  -0.645  -3.107  0.00  0.00    -0.273 OA
ATOM      4  N   UNL     1       2.221  -1.639  -5.083  0.00  0.00    -0.282 N 
ATOM      5  C   UNL     1       1.673  -2.395  -6.018  0.00  0.00    +0.057 A 
ATOM      6  C   UNL     1       2.396  -2.680  -7.202  0.00  0.00    +0.038 A 
ATOM      7  C   UNL     1       1.841  -3.465  -8.182  0.00  0.00    +0.039 A 
ATOM      8  C   UNL     1       0.503  -4.028  -8.045  0.00  0.00    +0.015 A 
ATOM      9  C   UNL     1      -0.239  -3.796  -6.943  0.00  0.00    +0.028 A 
ATOM     10  C   UNL     1       0.311  -2.962  -5.864  0.00  0.00    +0.058 A 
ATOM     11  N   UNL     1      -0.396  -2.730  -4.793  0.00  0.00    -0.369 N 
ATOM     12  H   UNL     1      -1.286  -3.103  -4.697  0.00  0.00    +0.161 HD
ATOM     13  H   UNL     1       3.114  -1.288  -5.224  0.00  0.00    +0.155 HD
ENDROOT
BRANCH   1  19
ATOM     14  C   UNL     1       0.109  -2.065  -1.232  0.00  0.00    +0.039 A 
ATOM     15  C   UNL     1       0.119  -2.816  -0.063  0.00  0.00    +0.023 A 
ATOM     16  C   UNL     1       0.227  -4.191  -0.129  0.00  0.00    +0.002 A 
ATOM     17  C   UNL     1       0.325  -4.821  -1.356  0.00  0.00    +0.000 A 
ATOM     18  C   UNL     1       0.316  -4.076  -2.521  0.00  0.00    +0.008 A 
ATOM     19  C   UNL     1       0.202  -2.701  -2.463  0.00  0.00    +0.005 A 
BRANCH  14  23
ATOM     20  C   UNL     1       0.544   1.511  -0.139  0.00  0.00    +0.109 C 
ATOM     21  C   UNL     1       0.574   0.004  -0.154  0.00  0.00    +0.214 C 
ATOM     22  O   UNL     1       1.115  -0.600   0.748  0.00  0.00    -0.276 OA
ATOM     23  N   UNL     1       0.000  -0.672  -1.169  0.00  0.00    -0.285 N 
ATOM     24  H   UNL     1      -0.489  -0.192  -1.856  0.00  0.00    +0.155 HD
ENDBRANCH  14  23
ENDBRANCH   1  19
BRANCH   7  25
ATOM     25  C   UNL     1       2.621  -3.746  -9.411  0.00  0.00    +0.244 C 
ATOM     26  O   UNL     1       3.737  -3.284  -9.541  0.00  0.00    -0.270 OA
ATOM     27  N   UNL     1       2.092  -4.514 -10.384  0.00  0.00    -0.307 N 
ATOM     28  H   UNL     1       1.201  -4.883 -10.280  0.00  0.00    +0.149 HD
BRANCH  27  29
ATOM     29  C   UNL     1       2.863  -4.792 -11.598  0.00  0.00    +0.141 C 
BRANCH  29  30
ATOM     30  C   UNL     1       2.051  -5.667 -12.519  0.00  0.00    -0.012 A 
ATOM     31  C   UNL     1       2.288  -7.028 -12.565  0.00  0.00    +0.006 A 
ATOM     32  C   UNL     1       1.544  -7.831 -13.409  0.00  0.00    +0.000 A 
ATOM     33  C   UNL     1       0.563  -7.273 -14.208  0.00  0.00    +0.001 A 
ATOM     34  C   UNL     1       0.326  -5.913 -14.163  0.00  0.00    +0.020 A 
ATOM     35  C   UNL     1       1.066  -5.109 -13.313  0.00  0.00    +0.046 A 
ATOM     36 CL   UNL     1       0.764  -3.401 -13.251  0.00  0.00    -0.083 Cl
ENDBRANCH  29  30
ENDBRANCH  27  29
ENDBRANCH   7  25
TORSDOF 5
