REMARK  Name = ZINC63237194
REMARK  11 active torsions:
REMARK  status: ('A' for Active; 'I' for Inactive)
REMARK    1  A    between atoms: C_1  and  O_2
REMARK    2  A    between atoms: O_2  and  C_3
REMARK    3  A    between atoms: C_6  and  N_9
REMARK    4  A    between atoms: N_9  and  S_10
REMARK    5  A    between atoms: S_10  and  C_13
REMARK    6  A    between atoms: C_16  and  N_22
REMARK    7  A    between atoms: C_17  and  N_19
REMARK    8  A    between atoms: N_22  and  N_23
REMARK    9  A    between atoms: C_24  and  C_26
REMARK   10  A    between atoms: C_26  and  C_27
REMARK   11  A    between atoms: C_27  and  C_28
REMARK                            x       y       z     vdW  Elec       q    Type
REMARK                         _______ _______ _______ _____ _____    ______ ____
ROOT
ATOM      1  C   UNL     1       1.770  -5.335   3.812  0.00  0.00    +0.111 A 
ATOM      2  C   UNL     1       0.880  -5.070   2.788  0.00  0.00    +0.031 A 
ATOM      3  C   UNL     1       0.939  -5.795   1.614  0.00  0.00    +0.028 A 
ATOM      4  C   UNL     1       1.895  -6.791   1.462  0.00  0.00    +0.075 A 
ATOM      5  C   UNL     1       2.788  -7.055   2.493  0.00  0.00    +0.150 A 
ATOM      6  C   UNL     1       2.727  -6.323   3.663  0.00  0.00    +0.063 A 
ENDROOT
BRANCH   1   7
ATOM      7  S   UNL     1       1.691  -4.408   5.308  0.00  0.00    +0.072 S 
ATOM      8  O   UNL     1       2.399  -5.156   6.287  0.00  0.00    -0.150 OA
ATOM      9  O   UNL     1       0.333  -4.024   5.477  0.00  0.00    -0.150 OA
BRANCH   7  10
ATOM     10  N   UNL     1       2.550  -3.013   5.066  0.00  0.00    -0.216 N 
ATOM     11  H   UNL     1       2.099  -2.155   5.092  0.00  0.00    +0.174 HD
BRANCH  10  15
ATOM     12  C   UNL     1       6.652  -3.189   4.346  0.00  0.00    +0.120 A 
ATOM     13  C   UNL     1       5.843  -2.390   3.553  0.00  0.00    +0.047 A 
ATOM     14  C   UNL     1       4.484  -2.331   3.790  0.00  0.00    +0.028 A 
ATOM     15  C   UNL     1       3.927  -3.072   4.824  0.00  0.00    +0.048 A 
ATOM     16  C   UNL     1       4.738  -3.873   5.617  0.00  0.00    +0.028 A 
ATOM     17  C   UNL     1       6.096  -3.935   5.375  0.00  0.00    +0.047 A 
BRANCH  12  19
ATOM     18  C   UNL     1       8.495  -2.453   3.035  0.00  0.00    +0.277 C 
ATOM     19  O   UNL     1       7.990  -3.247   4.111  0.00  0.00    -0.495 OA
ENDBRANCH  12  19
ENDBRANCH  10  15
ENDBRANCH   7  10
ENDBRANCH   1   7
BRANCH   5  20
ATOM     20  N   UNL     1       3.809  -8.116   2.336  0.00  0.00    +0.058 N 
ATOM     21  O   UNL     1       3.531  -9.140   1.757  0.00  0.00    -0.126 OA
ATOM     22  O   UNL     1       4.919  -7.958   2.787  0.00  0.00    -0.126 OA
ENDBRANCH   5  20
BRANCH   4  23
ATOM     23  N   UNL     1       1.958  -7.527   0.277  0.00  0.00    -0.262 N 
ATOM     24  H   UNL     1       2.673  -8.168   0.141  0.00  0.00    +0.170 HD
BRANCH  23  25
ATOM     25  N   UNL     1       0.987  -7.339  -0.716  0.00  0.00    -0.236 N 
ATOM     26  C   UNL     1       1.048  -8.048  -1.861  0.00  0.00    +0.229 C 
ATOM     27  O   UNL     1       1.942  -8.850  -2.031  0.00  0.00    -0.274 OA
ATOM     28  H   UNL     1       0.272  -6.698  -0.580  0.00  0.00    +0.173 HD
BRANCH  26  29
ATOM     29  C   UNL     1       0.004  -7.846  -2.929  0.00  0.00    +0.102 C 
BRANCH  29  30
ATOM     30  C   UNL     1       0.302  -8.767  -4.114  0.00  0.00    +0.042 C 
BRANCH  30  31
ATOM     31  C   UNL     1      -0.742  -8.564  -5.182  0.00  0.00    -0.041 C 
ATOM     32  C   UNL     1      -0.655  -7.753  -6.261  0.00  0.00    -0.001 A 
ATOM     33  C   UNL     1       0.397  -6.850  -6.744  0.00  0.00    +0.010 A 
ATOM     34  C   UNL     1       0.189  -6.152  -7.883  0.00  0.00    +0.001 A 
ATOM     35  C   UNL     1      -1.002  -6.269  -8.613  0.00  0.00    +0.002 A 
ATOM     36  C   UNL     1      -2.014  -7.077  -8.232  0.00  0.00    +0.026 A 
ATOM     37  C   UNL     1      -1.903  -7.859  -7.049  0.00  0.00    +0.043 A 
ATOM     38  N   UNL     1      -2.730  -8.702  -6.480  0.00  0.00    -0.380 N 
ATOM     39  C   UNL     1      -2.096  -9.232  -5.268  0.00  0.00    +0.144 C 
ATOM     40  H   UNL     1      -3.612  -8.939  -6.808  0.00  0.00    +0.160 HD
ENDBRANCH  30  31
ENDBRANCH  29  30
ENDBRANCH  26  29
ENDBRANCH  23  25
ENDBRANCH   4  23
TORSDOF 10
