REMARK  Name = ZINC40321726
REMARK  11 active torsions:
REMARK  status: ('A' for Active; 'I' for Inactive)
REMARK    1  A    between atoms: C_1  and  C_2
REMARK    2  A    between atoms: C_2  and  C_3
REMARK    3  A    between atoms: C_3  and  O_4
REMARK    4  A    between atoms: O_4  and  C_5
REMARK    5  A    between atoms: C_8  and  C_11
REMARK    6  A    between atoms: C_11  and  C_13
REMARK    7  A    between atoms: C_11  and  N_31
REMARK    8  A    between atoms: C_13  and  N_14
REMARK    9  A    between atoms: C_15  and  C_17
REMARK   10  A    between atoms: C_20  and  S_22
REMARK   11  A    between atoms: S_22  and  C_25
REMARK                            x       y       z     vdW  Elec       q    Type
REMARK                         _______ _______ _______ _____ _____    ______ ____
ROOT
ATOM      1  C   UNL     1      -6.396  -4.606   0.067  0.00  0.00    -0.020 C 
ENDROOT
BRANCH   1   2
ATOM      2  N   UNL     1      -6.392  -5.808  -0.778  0.00  0.00    +0.385 N 
ATOM      3  C   UNL     1      -5.834  -5.457  -2.098  0.00  0.00    -0.078 C 
ATOM      4  C   UNL     1      -5.274  -6.709  -2.724  0.00  0.00    -0.019 C 
ATOM      5  C   UNL     1      -6.287  -7.363  -3.682  0.00  0.00    -0.002 C 
ATOM      6  C   UNL     1      -7.720  -7.326  -3.111  0.00  0.00    -0.002 C 
ATOM      7  C   UNL     1      -7.759  -7.635  -1.637  0.00  0.00    -0.019 C 
ATOM      8  C   UNL     1      -7.691  -6.314  -0.843  0.00  0.00    -0.078 C 
ATOM      9  H   UNL     1      -5.796  -6.501  -0.351  0.00  0.00    -0.081 HD
ENDBRANCH   1   2
BRANCH   1  13
ATOM     10  C   UNL     1      -2.438  -3.010   0.291  0.00  0.00    +0.121 A 
ATOM     11  C   UNL     1      -3.526  -2.157   0.178  0.00  0.00    +0.046 A 
ATOM     12  C   UNL     1      -4.804  -2.675   0.105  0.00  0.00    +0.005 A 
ATOM     13  C   UNL     1      -5.000  -4.043   0.146  0.00  0.00    -0.059 A 
ATOM     14  C   UNL     1      -3.917  -4.896   0.259  0.00  0.00    +0.005 A 
ATOM     15  C   UNL     1      -2.636  -4.383   0.326  0.00  0.00    +0.046 A 
BRANCH  10  16
ATOM     16  O   UNL     1      -1.179  -2.502   0.362  0.00  0.00    -0.492 OA
BRANCH  16  17
ATOM     17  C   UNL     1      -1.050  -1.080   0.321  0.00  0.00    +0.229 C 
BRANCH  17  19
ATOM     18  C   UNL     1       0.567   0.824   0.367  0.00  0.00    +0.007 C 
ATOM     19  C   UNL     1       0.429  -0.699   0.412  0.00  0.00    +0.038 C 
ENDBRANCH  17  19
ENDBRANCH  16  17
ENDBRANCH  10  16
ENDBRANCH   1  13
BRANCH   1  20
ATOM     20  C   UNL     1      -6.878  -4.972   1.472  0.00  0.00    +0.094 C 
BRANCH  20  21
ATOM     21  N   UNL     1      -6.939  -3.764   2.298  0.00  0.00    -0.310 N 
ATOM     22  C   UNL     1      -7.237  -3.857   3.609  0.00  0.00    +0.279 C 
ATOM     23  O   UNL     1      -7.455  -4.946   4.107  0.00  0.00    -0.267 OA
ATOM     24  H   UNL     1      -6.766  -2.896   1.901  0.00  0.00    +0.149 HD
BRANCH  22  25
ATOM     25  C   UNL     1      -7.298  -2.647   4.435  0.00  0.00    +0.192 A 
ATOM     26  C   UNL     1      -7.581  -2.601   5.770  0.00  0.00    +0.056 A 
ATOM     27  C   UNL     1      -7.530  -1.250   6.147  0.00  0.00    +0.070 A 
ATOM     28  C   UNL     1      -7.223  -0.539   5.039  0.00  0.00    +0.246 A 
ATOM     29  O   UNL     1      -7.078  -1.386   4.011  0.00  0.00    -0.433 OA
BRANCH  28  30
ATOM     30  S   UNL     1      -7.036   1.211   4.961  0.00  0.00    +0.058 S 
ATOM     31  O   UNL     1      -7.275   1.585   3.611  0.00  0.00    -0.161 OA
ATOM     32  O   UNL     1      -7.784   1.747   6.044  0.00  0.00    -0.161 OA
BRANCH  30  33
ATOM     33  C   UNL     1      -5.343   1.570   5.292  0.00  0.00    +0.097 A 
ATOM     34  C   UNL     1      -4.923   1.783   6.591  0.00  0.00    +0.027 A 
ATOM     35  C   UNL     1      -3.594   2.065   6.850  0.00  0.00    +0.002 A 
ATOM     36  C   UNL     1      -2.687   2.133   5.810  0.00  0.00    +0.000 A 
ATOM     37  C   UNL     1      -3.107   1.919   4.511  0.00  0.00    +0.002 A 
ATOM     38  C   UNL     1      -4.434   1.633   4.252  0.00  0.00    +0.027 A 
ENDBRANCH  30  33
ENDBRANCH  28  30
ENDBRANCH  22  25
ENDBRANCH  20  21
ENDBRANCH   1  20
TORSDOF 10
