REMARK  Name = ZINC66668827
REMARK  9 active torsions:
REMARK  status: ('A' for Active; 'I' for Inactive)
REMARK    1  A    between atoms: C_1  and  C_2
REMARK    2  A    between atoms: C_2  and  C_3
REMARK    3  A    between atoms: C_2  and  N_4
REMARK    4  A    between atoms: C_7  and  C_10
REMARK    5  A    between atoms: C_10  and  N_11
REMARK    6  A    between atoms: N_14  and  C_15
REMARK    7  A    between atoms: C_15  and  C_16
REMARK    8  A    between atoms: C_16  and  C_17
REMARK    9  A    between atoms: C_17  and  C_18
REMARK                            x       y       z     vdW  Elec       q    Type
REMARK                         _______ _______ _______ _____ _____    ______ ____
ROOT
ATOM      1  N   UNL     1      -4.678  -2.218  -2.971  0.00  0.00    -0.299 N 
ATOM      2  C   UNL     1      -5.094  -2.596  -4.196  0.00  0.00    +0.300 C 
ATOM      3  O   UNL     1      -4.527  -2.179  -5.187  0.00  0.00    -0.253 OA
ATOM      4  N   UNL     1      -6.140  -3.438  -4.321  0.00  0.00    -0.299 N 
ATOM      5  H   UNL     1      -5.130  -2.551  -2.180  0.00  0.00    +0.150 HD
ATOM      6  H   UNL     1      -6.592  -3.771  -3.531  0.00  0.00    +0.150 HD
ENDROOT
BRANCH   1   7
ATOM      7  C   UNL     1      -3.541  -1.304  -2.834  0.00  0.00    +0.107 C 
BRANCH   7  11
ATOM      8  N   UNL     1      -1.376  -0.512   0.012  0.00  0.00    +0.381 N 
ATOM      9  C   UNL     1      -1.385  -1.992  -0.122  0.00  0.00    -0.078 C 
ATOM     10  C   UNL     1      -2.796  -2.326  -0.653  0.00  0.00    -0.015 C 
ATOM     11  C   UNL     1      -3.276  -1.037  -1.351  0.00  0.00    -0.012 C 
ATOM     12  C   UNL     1      -2.116  -0.033  -1.183  0.00  0.00    -0.074 C 
ATOM     13  H   UNL     1      -1.850  -0.230   0.857  0.00  0.00    -0.081 HD
BRANCH   8  15
ATOM     14  C   UNL     1      -0.019   1.526   0.010  0.00  0.00    -0.014 C 
ATOM     15  C   UNL     1       0.002  -0.004   0.002  0.00  0.00    -0.075 C 
ATOM     16  C   UNL     1       0.742  -0.511   1.242  0.00  0.00    -0.014 C 
ENDBRANCH   8  15
ENDBRANCH   7  11
ENDBRANCH   1   7
BRANCH   4  17
ATOM     17  C   UNL     1      -6.593  -3.849  -5.652  0.00  0.00    +0.106 C 
BRANCH  17  18
ATOM     18  C   UNL     1      -7.785  -4.798  -5.514  0.00  0.00    +0.023 C 
BRANCH  18  19
ATOM     19  C   UNL     1      -8.258  -5.228  -6.905  0.00  0.00    +0.036 C 
BRANCH  19  20
ATOM     20  C   UNL     1      -9.433  -6.162  -6.769  0.00  0.00    -0.046 A 
ATOM     21  C   UNL     1      -9.223  -7.525  -6.666  0.00  0.00    +0.004 A 
ATOM     22  C   UNL     1     -10.300  -8.383  -6.542  0.00  0.00    +0.001 A 
ATOM     23  C   UNL     1     -11.587  -7.878  -6.520  0.00  0.00    +0.015 A 
ATOM     24  C   UNL     1     -11.797  -6.515  -6.622  0.00  0.00    +0.018 A 
ATOM     25  C   UNL     1     -10.719  -5.657  -6.741  0.00  0.00    +0.019 A 
ATOM     26 BR   UNL     1     -13.557  -5.825  -6.592  0.00  0.00    -0.050 Br
ENDBRANCH  19  20
ENDBRANCH  18  19
ENDBRANCH  17  18
ENDBRANCH   4  17
TORSDOF 7
