REMARK  Name = ZINC32542143
REMARK  10 active torsions:
REMARK  status: ('A' for Active; 'I' for Inactive)
REMARK    1  A    between atoms: C_1  and  C_2
REMARK    2  A    between atoms: C_5  and  N_9
REMARK    3  A    between atoms: C_10  and  C_12
REMARK    4  A    between atoms: C_12  and  N_13
REMARK    5  A    between atoms: N_13  and  C_14
REMARK    6  A    between atoms: N_13  and  C_15
REMARK    7  A    between atoms: C_15  and  C_17
REMARK    8  A    between atoms: C_15  and  C_18
REMARK    9  A    between atoms: C_21  and  S_24
REMARK   10  A    between atoms: S_24  and  N_27
REMARK                            x       y       z     vdW  Elec       q    Type
REMARK                         _______ _______ _______ _____ _____    ______ ____
ROOT
ATOM      1  N   UNL     1      -3.475   4.360   4.615  0.00  0.00    +0.388 N 
ATOM      2  C   UNL     1      -2.285   5.211   4.483  0.00  0.00    -0.095 C 
ATOM      3  H   UNL     1      -4.040   4.421   3.674  0.00  0.00    -0.081 HD
ENDROOT
BRANCH   1   4
ATOM      4  C   UNL     1      -3.098   2.956   4.825  0.00  0.00    -0.041 C 
ATOM      5  C   UNL     1      -2.096   2.531   3.751  0.00  0.00    -0.008 C 
BRANCH   4   6
ATOM      6  C   UNL     1      -4.327   2.087   4.738  0.00  0.00    -0.061 A 
ATOM      7  C   UNL     1      -4.449   0.979   5.555  0.00  0.00    +0.004 A 
ATOM      8  C   UNL     1      -5.576   0.182   5.474  0.00  0.00    +0.029 A 
ATOM      9  C   UNL     1      -6.580   0.494   4.577  0.00  0.00    +0.105 A 
ATOM     10  C   UNL     1      -6.455   1.599   3.756  0.00  0.00    +0.029 A 
ATOM     11  C   UNL     1      -5.331   2.399   3.840  0.00  0.00    +0.004 A 
BRANCH   9  12
ATOM     12  S   UNL     1      -8.016  -0.522   4.473  0.00  0.00    +0.056 S 
ATOM     13  O   UNL     1      -7.642  -1.805   4.958  0.00  0.00    -0.153 OA
ATOM     14  O   UNL     1      -8.559  -0.327   3.175  0.00  0.00    -0.153 OA
BRANCH  12  15
ATOM     15  N   UNL     1      -9.123   0.084   5.545  0.00  0.00    -0.204 NA
ATOM     16  H   UNL     1     -10.038  -0.525   5.511  0.00  0.00    +0.144 HD
ATOM     17  H   UNL     1      -9.364   1.123   5.275  0.00  0.00    +0.144 HD
ENDBRANCH  12  15
ENDBRANCH   9  12
ENDBRANCH   4   6
ENDBRANCH   1   4
BRANCH   1  18
ATOM     18  C   UNL     1      -4.347   4.839   5.697  0.00  0.00    +0.019 C 
BRANCH  18  20
ATOM     19  N   UNL     1      -5.741   6.825   6.177  0.00  0.00    -0.286 N 
ATOM     20  C   UNL     1      -4.909   6.188   5.329  0.00  0.00    +0.201 C 
ATOM     21  O   UNL     1      -4.613   6.700   4.271  0.00  0.00    -0.278 OA
ATOM     22  H   UNL     1      -6.063   6.331   7.106  0.00  0.00    +0.155 HD
BRANCH  19  27
ATOM     23  C   UNL     1      -7.582  12.050   4.953  0.00  0.00    +0.044 C 
ATOM     24  C   UNL     1      -7.093  10.663   5.279  0.00  0.00    -0.049 A 
ATOM     25  C   UNL     1      -6.883   9.749   4.262  0.00  0.00    +0.005 A 
ATOM     26  C   UNL     1      -6.435   8.476   4.557  0.00  0.00    +0.024 A 
ATOM     27  C   UNL     1      -6.195   8.114   5.875  0.00  0.00    +0.047 A 
ATOM     28  C   UNL     1      -6.412   9.032   6.895  0.00  0.00    +0.039 A 
ATOM     29  C   UNL     1      -6.855  10.306   6.593  0.00  0.00    +0.020 A 
ATOM     30 BR   UNL     1      -6.093   8.542   8.694  0.00  0.00    -0.048 Br
ENDBRANCH  19  27
ENDBRANCH  18  20
ENDBRANCH   1  18
TORSDOF 7
