REMARK  Name = ZINC09597989
REMARK  14 active torsions:
REMARK  status: ('A' for Active; 'I' for Inactive)
REMARK    1  A    between atoms: C_1  and  C_2
REMARK    2  A    between atoms: C_2  and  N_3
REMARK    3  A    between atoms: N_3  and  C_4
REMARK    4  A    between atoms: N_3  and  C_6
REMARK    5  A    between atoms: C_4  and  C_5
REMARK    6  A    between atoms: C_6  and  C_7
REMARK    7  A    between atoms: C_7  and  C_8
REMARK    8  A    between atoms: C_8  and  N_9
REMARK    9  A    between atoms: C_10  and  C_12
REMARK   10  A    between atoms: C_12  and  C_13
REMARK   11  A    between atoms: C_13  and  C_14
REMARK   12  A    between atoms: N_16  and  C_17
REMARK   13  A    between atoms: C_23  and  C_33
REMARK   14  A    between atoms: C_25  and  N_27
REMARK                            x       y       z     vdW  Elec       q    Type
REMARK                         _______ _______ _______ _____ _____    ______ ____
ROOT
ATOM      1  C   UNL     1       3.982  -8.586   5.065  0.00  0.00    +0.218 C 
ATOM      2  O   UNL     1       4.445  -7.959   5.994  0.00  0.00    -0.275 OA
ATOM      3  N   UNL     1       4.101  -9.928   5.032  0.00  0.00    -0.285 N 
ATOM      4  H   UNL     1       3.796 -10.424   4.255  0.00  0.00    +0.155 HD
ENDROOT
BRANCH   3   5
ATOM      5  C   UNL     1       4.666 -10.608   6.118  0.00  0.00    +0.034 A 
ATOM      6  C   UNL     1       4.449 -10.139   7.418  0.00  0.00    +0.025 A 
ATOM      7  C   UNL     1       4.985 -10.780   8.491  0.00  0.00    +0.028 A 
ATOM      8  C   UNL     1       5.771 -11.930   8.303  0.00  0.00    +0.048 A 
ATOM      9  C   UNL     1       5.994 -12.409   6.989  0.00  0.00    +0.003 A 
ATOM     10  C   UNL     1       5.426 -11.735   5.897  0.00  0.00    +0.033 A 
ATOM     11  C   UNL     1       6.783 -13.563   6.804  0.00  0.00    -0.038 A 
ATOM     12  C   UNL     1       7.302 -14.175   7.906  0.00  0.00    +0.045 A 
ATOM     13  C   UNL     1       7.045 -13.651   9.181  0.00  0.00    +0.099 A 
ATOM     14  N   UNL     1       6.307 -12.573   9.347  0.00  0.00    -0.343 N 
ATOM     15  C   UNL     1       7.045 -14.107   5.423  0.00  0.00    +0.044 C 
ATOM     16  H   UNL     1       6.150 -12.238  10.244  0.00  0.00    +0.167 HD
BRANCH  13  17
ATOM     17  N   UNL     1       7.580 -14.284  10.294  0.00  0.00    -0.317 N 
ATOM     18  C   UNL     1       8.518 -15.404  10.139  0.00  0.00    +0.106 C 
ATOM     19  C   UNL     1       9.787 -15.098  10.940  0.00  0.00    +0.019 C 
ATOM     20  C   UNL     1       9.409 -14.791  12.390  0.00  0.00    +0.003 C 
ATOM     21  C   UNL     1       8.502 -13.559  12.433  0.00  0.00    +0.019 C 
ATOM     22  C   UNL     1       7.223 -13.844  11.649  0.00  0.00    +0.106 C 
ENDBRANCH  13  17
ENDBRANCH   3   5
BRANCH   1  23
ATOM     23  C   UNL     1       3.272  -7.865   3.948  0.00  0.00    +0.105 C 
BRANCH  23  24
ATOM     24  C   UNL     1       3.276  -6.361   4.228  0.00  0.00    +0.105 C 
BRANCH  24  26
ATOM     25  N   UNL     1       2.447  -4.298   3.144  0.00  0.00    -0.315 N 
ATOM     26  C   UNL     1       2.567  -5.640   3.111  0.00  0.00    +0.213 C 
ATOM     27  O   UNL     1       2.104  -6.268   2.182  0.00  0.00    -0.276 OA
ATOM     28  H   UNL     1       2.817  -3.796   3.887  0.00  0.00    +0.149 HD
BRANCH  25  29
ATOM     29  C   UNL     1       1.757  -3.597   2.058  0.00  0.00    +0.102 C 
BRANCH  29  30
ATOM     30  C   UNL     1       1.761  -2.093   2.339  0.00  0.00    +0.000 C 
BRANCH  30  31
ATOM     31  C   UNL     1       1.041  -1.361   1.204  0.00  0.00    -0.077 C 
BRANCH  31  32
ATOM     32  N   UNL     1       0.936   0.067   1.533  0.00  0.00    +0.379 N 
ATOM     33  H   UNL     1       0.472   0.174   2.423  0.00  0.00    -0.082 HD
BRANCH  32  35
ATOM     34  C   UNL     1       2.178   2.108   2.070  0.00  0.00    -0.017 C 
ATOM     35  C   UNL     1       2.281   0.653   1.607  0.00  0.00    -0.082 C 
ENDBRANCH  32  35
BRANCH  32  36
ATOM     36  C   UNL     1       0.159   0.752   0.491  0.00  0.00    -0.082 C 
ATOM     37  C   UNL     1      -1.276   0.221   0.491  0.00  0.00    -0.017 C 
ENDBRANCH  32  36
ENDBRANCH  31  32
ENDBRANCH  30  31
ENDBRANCH  29  30
ENDBRANCH  25  29
ENDBRANCH  24  26
ENDBRANCH  23  24
ENDBRANCH   1  23
TORSDOF 11
