REMARK  Name = ZINC67515397
REMARK  8 active torsions:
REMARK  status: ('A' for Active; 'I' for Inactive)
REMARK    1  A    between atoms: C_1  and  C_2
REMARK    2  A    between atoms: C_6  and  S_8
REMARK    3  A    between atoms: S_8  and  N_11
REMARK    4  A    between atoms: N_11  and  C_12
REMARK    5  A    between atoms: C_12  and  C_13
REMARK    6  A    between atoms: N_15  and  C_18
REMARK    7  A    between atoms: C_21  and  C_25
REMARK    8  A    between atoms: N_27  and  C_28
REMARK                            x       y       z     vdW  Elec       q    Type
REMARK                         _______ _______ _______ _____ _____    ______ ____
ROOT
ATOM      1  C   UNL     1      -2.794  -5.723   2.344  0.00  0.00    +0.098 A 
ATOM      2  C   UNL     1      -4.101  -5.586   2.021  0.00  0.00    +0.135 A 
ATOM      3  N   UNL     1      -4.761  -6.550   2.704  0.00  0.00    -0.250 N 
ATOM      4  N   UNL     1      -3.901  -7.218   3.391  0.00  0.00    -0.065 NA
ATOM      5  N   UNL     1      -2.718  -6.754   3.193  0.00  0.00    -0.133 NA
ENDROOT
BRANCH   3   6
ATOM      6  C   UNL     1      -6.205  -6.791   2.669  0.00  0.00    +0.091 C 
ATOM      7  C   UNL     1      -6.945  -5.835   3.641  0.00  0.00    +0.018 C 
ATOM      8  C   UNL     1      -8.349  -5.753   2.991  0.00  0.00    +0.018 C 
ATOM      9  N   UNL     1      -8.093  -5.763   1.536  0.00  0.00    +0.388 N 
ATOM     10  C   UNL     1      -6.788  -6.413   1.291  0.00  0.00    -0.054 C 
ATOM     11  H   UNL     1      -8.820  -6.281   1.066  0.00  0.00    -0.085 HD
ATOM     12  H   UNL     1      -8.073  -4.816   1.187  0.00  0.00    -0.085 HD
BRANCH   8  13
ATOM     13  C   UNL     1      -9.040  -4.476   3.396  0.00  0.00    +0.199 C 
ATOM     14  O   UNL     1      -9.056  -3.529   2.638  0.00  0.00    -0.278 OA
ATOM     15  N   UNL     1      -9.641  -4.387   4.599  0.00  0.00    -0.320 N 
ATOM     16  C   UNL     1     -10.313  -3.146   4.992  0.00  0.00    +0.128 C 
ATOM     17  H   UNL     1      -9.628  -5.145   5.205  0.00  0.00    +0.148 HD
ENDBRANCH   8  13
ENDBRANCH   3   6
BRANCH   1  18
ATOM     18  C   UNL     1      -1.648  -4.883   1.841  0.00  0.00    +0.164 C 
BRANCH  18  19
ATOM     19  N   UNL     1      -1.366  -3.815   2.803  0.00  0.00    -0.184 NA
ATOM     20  H   UNL     1      -2.012  -3.602   3.494  0.00  0.00    +0.148 HD
BRANCH  19  21
ATOM     21  S   UNL     1       0.056  -2.971   2.711  0.00  0.00    +0.061 S 
ATOM     22  O   UNL     1       1.094  -3.936   2.605  0.00  0.00    -0.153 OA
ATOM     23  O   UNL     1       0.020  -2.001   3.748  0.00  0.00    -0.153 OA
BRANCH  21  29
ATOM     24  C   UNL     1      -0.018   1.503   0.010  0.00  0.00    +0.044 C 
ATOM     25  C   UNL     1       0.002  -0.004   0.002  0.00  0.00    -0.048 A 
ATOM     26  C   UNL     1       0.006  -0.688  -1.200  0.00  0.00    +0.006 A 
ATOM     27  C   UNL     1       0.025  -2.070  -1.208  0.00  0.00    +0.040 A 
ATOM     28  C   UNL     1       0.041  -2.769  -0.013  0.00  0.00    +0.150 A 
ATOM     29  C   UNL     1       0.037  -2.083   1.189  0.00  0.00    +0.140 A 
ATOM     30  C   UNL     1       0.023  -0.701   1.196  0.00  0.00    +0.034 A 
ATOM     31  F   UNL     1       0.059  -4.120  -0.021  0.00  0.00    -0.203 F 
ENDBRANCH  21  29
ENDBRANCH  19  21
ENDBRANCH  18  19
ENDBRANCH   1  18
TORSDOF 6
