REMARK  Name = ZINC39226379
REMARK  7 active torsions:
REMARK  status: ('A' for Active; 'I' for Inactive)
REMARK    1  A    between atoms: C_1  and  C_2
REMARK    2  A    between atoms: C_2  and  C_4
REMARK    3  A    between atoms: C_2  and  N_10
REMARK    4  A    between atoms: C_11  and  C_13
REMARK    5  A    between atoms: C_17  and  C_19
REMARK    6  A    between atoms: C_25  and  O_36
REMARK    7  A    between atoms: N_32  and  C_35
REMARK                            x       y       z     vdW  Elec       q    Type
REMARK                         _______ _______ _______ _____ _____    ______ ____
ROOT
ATOM      1  C   UNL     1      -0.085  -1.807  -7.190  0.00  0.00    -0.017 A 
ATOM      2  C   UNL     1      -1.440  -1.486  -7.254  0.00  0.00    +0.012 A 
ATOM      3  C   UNL     1      -2.120  -1.616  -8.444  0.00  0.00    +0.046 A 
ATOM      4  C   UNL     1      -1.461  -2.068  -9.586  0.00  0.00    +0.127 A 
ATOM      5  C   UNL     1      -0.116  -2.393  -9.524  0.00  0.00    +0.023 A 
ATOM      6  C   UNL     1       0.573  -2.256  -8.332  0.00  0.00    +0.018 A 
ATOM      7  C   UNL     1       0.626  -2.900 -10.734  0.00  0.00    +0.152 C 
ATOM      8  C   UNL     1      -0.158  -2.557 -12.003  0.00  0.00    +0.084 C 
ATOM      9  C   UNL     1      -1.620  -2.964 -11.793  0.00  0.00    +0.110 C 
ATOM     10  O   UNL     1      -2.170  -2.174 -10.740  0.00  0.00    -0.485 OA
ATOM     11  C   UNL     1      -1.690  -4.446 -11.419  0.00  0.00    +0.029 C 
ATOM     12  C   UNL     1      -3.157  -4.866 -11.293  0.00  0.00    -0.075 C 
ATOM     13  N   UNL     1      -3.845  -4.644 -12.570  0.00  0.00    +0.378 N 
ATOM     14  C   UNL     1      -3.846  -3.213 -12.894  0.00  0.00    -0.075 C 
ATOM     15  C   UNL     1      -2.407  -2.728 -13.084  0.00  0.00    +0.029 C 
ATOM     16  C   UNL     1      -5.231  -5.122 -12.467  0.00  0.00    -0.096 C 
ATOM     17  H   UNL     1      -3.369  -5.153 -13.300  0.00  0.00    -0.082 HD
ENDROOT
BRANCH   1  22
ATOM     18  C   UNL     1       0.698  -1.085  -3.575  0.00  0.00    +0.037 A 
ATOM     19  C   UNL     1       2.057  -1.405  -3.528  0.00  0.00    +0.013 A 
ATOM     20  C   UNL     1       2.703  -1.850  -4.663  0.00  0.00    +0.001 A 
ATOM     21  C   UNL     1       2.012  -1.982  -5.852  0.00  0.00    +0.008 A 
ATOM     22  C   UNL     1       0.655  -1.666  -5.912  0.00  0.00    -0.017 A 
ATOM     23  C   UNL     1      -0.005  -1.222  -4.771  0.00  0.00    +0.021 A 
BRANCH  18  25
ATOM     24  N   UNL     1       0.688  -0.476  -1.203  0.00  0.00    -0.305 N 
ATOM     25  C   UNL     1       0.006  -0.608  -2.358  0.00  0.00    +0.245 C 
ATOM     26  O   UNL     1      -1.177  -0.335  -2.400  0.00  0.00    -0.270 OA
ATOM     27  H   UNL     1       1.632  -0.695  -1.170  0.00  0.00    +0.150 HD
BRANCH  24  29
ATOM     28  C   UNL     1      -0.019   1.526   0.010  0.00  0.00    +0.033 C 
ATOM     29  C   UNL     1       0.002  -0.004   0.002  0.00  0.00    +0.100 C 
BRANCH  29  30
ATOM     30  C   UNL     1       0.731  -0.503   1.223  0.00  0.00    -0.027 A 
ATOM     31  C   UNL     1       2.113  -0.514   1.247  0.00  0.00    +0.005 A 
ATOM     32  C   UNL     1       2.782  -0.972   2.366  0.00  0.00    +0.000 A 
ATOM     33  C   UNL     1       2.068  -1.419   3.463  0.00  0.00    +0.000 A 
ATOM     34  C   UNL     1       0.686  -1.407   3.439  0.00  0.00    +0.000 A 
ATOM     35  C   UNL     1       0.017  -0.945   2.321  0.00  0.00    +0.005 A 
ENDBRANCH  29  30
ENDBRANCH  24  29
ENDBRANCH  18  25
ENDBRANCH   1  22
BRANCH   7  36
ATOM     36  O   UNL     1       1.915  -2.286 -10.793  0.00  0.00    -0.387 OA
ATOM     37  H   UNL     1       2.471  -2.463 -10.021  0.00  0.00    +0.210 HD
ENDBRANCH   7  36
TORSDOF 5
