REMARK  Name = ZINC04969798
REMARK  8 active torsions:
REMARK  status: ('A' for Active; 'I' for Inactive)
REMARK    1  A    between atoms: C_1  and  C_2
REMARK    2  A    between atoms: C_4  and  N_26
REMARK    3  A    between atoms: C_8  and  N_11
REMARK    4  A    between atoms: N_11  and  C_12
REMARK    5  A    between atoms: C_12  and  N_14
REMARK    6  A    between atoms: N_14  and  C_15
REMARK    7  A    between atoms: C_20  and  C_25
REMARK    8  A    between atoms: C_22  and  C_24
REMARK                            x       y       z     vdW  Elec       q    Type
REMARK                         _______ _______ _______ _____ _____    ______ ____
ROOT
ATOM      1  C   UNL     1       3.615  -1.912  -1.267  0.00  0.00    +0.044 C 
ATOM      2  C   UNL     1       3.569  -0.470  -0.831  0.00  0.00    -0.038 A 
ATOM      3  C   UNL     1       4.698   0.292  -0.819  0.00  0.00    +0.045 A 
ATOM      4  C   UNL     1       4.632   1.631  -0.409  0.00  0.00    +0.100 A 
ATOM      5  C   UNL     1       2.356   1.481  -0.020  0.00  0.00    +0.048 A 
ATOM      6  C   UNL     1       2.357   0.123  -0.423  0.00  0.00    +0.003 A 
ATOM      7  C   UNL     1       1.159  -0.606  -0.410  0.00  0.00    +0.033 A 
ATOM      8  C   UNL     1      -0.006   0.009  -0.005  0.00  0.00    +0.033 A 
ATOM      9  C   UNL     1      -0.000   1.350   0.393  0.00  0.00    +0.025 A 
ATOM     10  C   UNL     1       1.149   2.077   0.389  0.00  0.00    +0.028 A 
ATOM     11  N   UNL     1       3.496   2.254  -0.007  0.00  0.00    -0.343 N 
ATOM     12  H   UNL     1       3.487   3.238   0.286  0.00  0.00    +0.167 HD
ENDROOT
BRANCH   4  13
ATOM     13  N   UNL     1       5.790   2.396  -0.402  0.00  0.00    -0.312 N 
ATOM     14  C   UNL     1       6.831   1.768   0.425  0.00  0.00    +0.134 C 
ATOM     15  C   UNL     1       8.107   2.611   0.357  0.00  0.00    +0.178 C 
ATOM     16  O   UNL     1       7.813   3.946   0.777  0.00  0.00    -0.377 OA
ATOM     17  C   UNL     1       6.804   4.588  -0.007  0.00  0.00    +0.178 C 
ATOM     18  C   UNL     1       5.515   3.765   0.057  0.00  0.00    +0.134 C 
ENDBRANCH   4  13
BRANCH   8  19
ATOM     19  N   UNL     1      -1.204  -0.715   0.010  0.00  0.00    -0.297 N 
ATOM     20  H   UNL     1      -1.443  -1.271  -0.748  0.00  0.00    +0.154 HD
BRANCH  19  21
ATOM     21  C   UNL     1      -2.025  -0.637   1.076  0.00  0.00    +0.135 C 
ATOM     22  S   UNL     1      -1.656   0.428   2.365  0.00  0.00    -0.019 S 
BRANCH  21  23
ATOM     23  N   UNL     1      -3.136  -1.398   1.127  0.00  0.00    -0.323 N 
ATOM     24  H   UNL     1      -3.345  -2.002   0.397  0.00  0.00    +0.148 HD
BRANCH  23  25
ATOM     25  C   UNL     1      -4.028  -1.314   2.286  0.00  0.00    +0.075 C 
ATOM     26  C   UNL     1      -3.518  -2.242   3.391  0.00  0.00    +0.022 C 
ATOM     27  C   UNL     1      -3.488  -3.682   2.873  0.00  0.00    +0.002 C 
ATOM     28  C   UNL     1      -4.900  -4.106   2.462  0.00  0.00    +0.003 C 
ATOM     29  C   UNL     1      -5.410  -3.178   1.358  0.00  0.00    -0.009 C 
ATOM     30  C   UNL     1      -5.439  -1.738   1.875  0.00  0.00    +0.009 C 
ATOM     31  C   UNL     1      -5.949  -0.810   0.770  0.00  0.00    +0.009 C 
ATOM     32  C   UNL     1      -6.821  -3.601   0.946  0.00  0.00    +0.008 C 
ENDBRANCH  23  25
ENDBRANCH  21  23
ENDBRANCH  19  21
ENDBRANCH   8  19
TORSDOF 5
