REMARK  Name = ZINC32087926
REMARK  7 active torsions:
REMARK  status: ('A' for Active; 'I' for Inactive)
REMARK    1  A    between atoms: C_1  and  C_2
REMARK    2  A    between atoms: C_5  and  C_22
REMARK    3  A    between atoms: N_8  and  C_10
REMARK    4  A    between atoms: C_10  and  C_12
REMARK    5  A    between atoms: C_10  and  C_14
REMARK    6  A    between atoms: C_12  and  N_13
REMARK    7  A    between atoms: C_19  and  O_20
REMARK                            x       y       z     vdW  Elec       q    Type
REMARK                         _______ _______ _______ _____ _____    ______ ____
ROOT
ATOM      1  C   UNL     1       2.831  -0.371   2.460  0.00  0.00    +0.073 C 
ENDROOT
BRANCH   1   7
ATOM      2  C   UNL     1      -0.151   1.559   0.202  0.00  0.00    +0.009 C 
ATOM      3  C   UNL     1      -0.141   0.029   0.183  0.00  0.00    +0.000 C 
ATOM      4  C   UNL     1       0.495  -0.462  -1.120  0.00  0.00    +0.009 C 
ATOM      5  C   UNL     1       1.949   0.014  -1.181  0.00  0.00    +0.000 C 
ATOM      6  C   UNL     1       2.702  -0.505   0.046  0.00  0.00    +0.088 C 
ATOM      7  N   UNL     1       2.055  -0.007   1.267  0.00  0.00    -0.297 NA
ATOM      8  C   UNL     1       0.672  -0.491   1.371  0.00  0.00    +0.088 C 
ATOM      9  C   UNL     1       2.610  -0.522  -2.452  0.00  0.00    +0.009 C 
ENDBRANCH   1   7
BRANCH   1  10
ATOM     10  C   UNL     1       2.731  -1.858   2.689  0.00  0.00    +0.010 A 
ATOM     11  C   UNL     1       1.801  -2.358   3.579  0.00  0.00    +0.024 A 
ATOM     12  C   UNL     1       1.708  -3.722   3.791  0.00  0.00    +0.018 A 
ATOM     13  C   UNL     1       2.547  -4.588   3.111  0.00  0.00    +0.019 A 
ATOM     14  C   UNL     1       3.479  -4.091   2.220  0.00  0.00    +0.047 A 
ATOM     15  C   UNL     1       3.570  -2.724   2.003  0.00  0.00    +0.122 A 
ATOM     16 BR   UNL     1       0.434  -4.405   5.010  0.00  0.00    -0.050 Br
BRANCH  15  17
ATOM     17  O   UNL     1       4.482  -2.233   1.123  0.00  0.00    -0.506 OA
ATOM     18  H   UNL     1       5.341  -2.031   1.519  0.00  0.00    +0.292 HD
ENDBRANCH  15  17
ENDBRANCH   1  10
BRANCH   1  19
ATOM     19  C   UNL     1       2.275   0.371   3.676  0.00  0.00    -0.062 C 
BRANCH  19  20
ATOM     20  N   UNL     1       2.261   1.815   3.405  0.00  0.00    +0.379 N 
ATOM     21  H   UNL     1       3.201   2.131   3.219  0.00  0.00    -0.090 HD
ATOM     22  H   UNL     1       1.679   2.001   2.602  0.00  0.00    -0.090 HD
ATOM     23  H   UNL     1       1.895   2.304   4.207  0.00  0.00    -0.090 HD
ENDBRANCH  19  20
ENDBRANCH   1  19
TORSDOF 5
