REMARK  Name = ZINC13259855
REMARK  5 active torsions:
REMARK  status: ('A' for Active; 'I' for Inactive)
REMARK    1  A    between atoms: C_3  and  N_9
REMARK    2  A    between atoms: C_6  and  C_7
REMARK    3  A    between atoms: C_10  and  C_12
REMARK    4  A    between atoms: C_12  and  N_13
REMARK    5  A    between atoms: C_15  and  C_20
REMARK                            x       y       z     vdW  Elec       q    Type
REMARK                         _______ _______ _______ _____ _____    ______ ____
ROOT
ATOM      1  N   UNL     1       5.252  -1.556  -1.722  0.00  0.00    -0.284 N 
ATOM      2  C   UNL     1       4.185  -0.771  -1.472  0.00  0.00    +0.237 C 
ATOM      3  O   UNL     1       3.582  -0.257  -2.390  0.00  0.00    -0.274 OA
ATOM      4  H   UNL     1       5.780  -1.905  -0.987  0.00  0.00    +0.155 HD
ENDROOT
BRANCH   1   7
ATOM      5  C   UNL     1       7.277  -2.338  -4.681  0.00  0.00    +0.017 A 
ATOM      6  C   UNL     1       6.934  -2.031  -3.384  0.00  0.00    +0.024 A 
ATOM      7  C   UNL     1       5.596  -1.867  -3.037  0.00  0.00    +0.033 A 
ATOM      8  C   UNL     1       4.601  -2.017  -3.998  0.00  0.00    +0.024 A 
ATOM      9  C   UNL     1       4.938  -2.318  -5.298  0.00  0.00    +0.017 A 
ATOM     10  C   UNL     1       6.281  -2.484  -5.650  0.00  0.00    +0.063 A 
BRANCH  10  11
ATOM     11  C   UNL     1       6.645  -2.812  -7.041  0.00  0.00    +0.387 C 
ATOM     12  O   UNL     1       7.813  -2.956  -7.345  0.00  0.00    -0.241 OA
ATOM     13  O   UNL     1       5.684  -2.953  -7.974  0.00  0.00    -0.241 OA
ENDBRANCH  10  11
ENDBRANCH   1   7
BRANCH   2  14
ATOM     14  C   UNL     1       3.741  -0.532  -0.052  0.00  0.00    +0.220 C 
BRANCH  14  15
ATOM     15  N   UNL     1       2.570   0.347  -0.048  0.00  0.00    -0.306 N 
ATOM     16  C   UNL     1       2.741   1.693   0.017  0.00  0.00    +0.102 A 
ATOM     17  C   UNL     1       1.675   2.526   0.022  0.00  0.00    +0.071 A 
ATOM     18  C   UNL     1       0.376   2.001  -0.039  0.00  0.00    +0.019 A 
ATOM     19  C   UNL     1       0.206   0.649  -0.104  0.00  0.00    +0.071 A 
ATOM     20  C   UNL     1       1.335  -0.187  -0.108  0.00  0.00    +0.252 A 
ATOM     21  O   UNL     1       1.198  -1.399  -0.166  0.00  0.00    -0.268 OA
BRANCH  17  22
ATOM     22  C   UNL     1       1.883   4.017   0.094  0.00  0.00    +0.419 C 
ATOM     23  F   UNL     1       1.872   4.552  -1.198  0.00  0.00    -0.166 F 
ATOM     24  F   UNL     1       0.855   4.595   0.847  0.00  0.00    -0.166 F 
ATOM     25  F   UNL     1       3.114   4.287   0.701  0.00  0.00    -0.166 F 
ENDBRANCH  17  22
ENDBRANCH  14  15
ENDBRANCH   2  14
TORSDOF 5
