REMARK  Name = ZINC63637572
REMARK  4 active torsions:
REMARK  status: ('A' for Active; 'I' for Inactive)
REMARK    1  A    between atoms: C_1  and  C_2
REMARK    2  A    between atoms: C_2  and  O_3
REMARK    3  A    between atoms: O_3  and  C_4
REMARK    4  A    between atoms: C_7  and  C_10
REMARK                            x       y       z     vdW  Elec       q    Type
REMARK                         _______ _______ _______ _____ _____    ______ ____
ROOT
ATOM      1  C   UNL     1       1.109  -6.040  -1.847  0.00  0.00    +0.073 C 
ATOM      2  C   UNL     1       2.588  -6.429  -1.900  0.00  0.00    +0.148 C 
ATOM      3  C   UNL     1       2.668  -7.838  -2.435  0.00  0.00    +0.106 C 
ATOM      4  N   UNL     1       3.246  -8.798  -1.782  0.00  0.00    -0.151 NA
ATOM      5  C   UNL     1       3.796  -8.618  -0.572  0.00  0.00    +0.331 C 
ATOM      6  O   UNL     1       4.346  -9.555  -0.025  0.00  0.00    -0.250 OA
ATOM      7  N   UNL     1       3.754  -7.429   0.050  0.00  0.00    -0.238 N 
ATOM      8  C   UNL     1       3.190  -6.350  -0.527  0.00  0.00    +0.231 C 
ATOM      9  O   UNL     1       3.166  -5.296   0.071  0.00  0.00    -0.275 OA
ATOM     10  N   UNL     1       2.080  -8.060  -3.651  0.00  0.00    -0.307 N 
ATOM     11  C   UNL     1       0.900  -7.408  -3.932  0.00  0.00    +0.016 C 
ATOM     12  C   UNL     1       0.417  -6.445  -3.128  0.00  0.00    +0.020 C 
ATOM     13  C   UNL     1      -0.775  -5.766  -3.455  0.00  0.00    +0.161 C 
ATOM     14  O   UNL     1      -1.192  -4.905  -2.707  0.00  0.00    -0.292 OA
ATOM     15  C   UNL     1      -1.541  -6.085  -4.708  0.00  0.00    +0.080 C 
ATOM     16  C   UNL     1      -0.567  -6.609  -5.769  0.00  0.00    +0.014 C 
ATOM     17  C   UNL     1       0.163  -7.818  -5.186  0.00  0.00    +0.051 C 
ATOM     18  H   UNL     1       4.139  -7.344   0.935  0.00  0.00    +0.159 HD
ATOM     19  H   UNL     1       2.484  -8.660  -4.297  0.00  0.00    +0.153 HD
ENDROOT
BRANCH   1  23
ATOM     20  C   UNL     1       0.777  -1.810  -1.336  0.00  0.00    +0.121 A 
ATOM     21  C   UNL     1       0.243  -2.669  -0.386  0.00  0.00    +0.046 A 
ATOM     22  C   UNL     1       0.351  -4.036  -0.554  0.00  0.00    +0.008 A 
ATOM     23  C   UNL     1       0.992  -4.548  -1.667  0.00  0.00    -0.038 A 
ATOM     24  C   UNL     1       1.525  -3.694  -2.615  0.00  0.00    +0.008 A 
ATOM     25  C   UNL     1       1.414  -2.327  -2.455  0.00  0.00    +0.046 A 
BRANCH  20  26
ATOM     26  O   UNL     1       0.671  -0.465  -1.174  0.00  0.00    -0.492 OA
BRANCH  26  28
ATOM     27  C   UNL     1      -0.019   1.526   0.010  0.00  0.00    +0.048 C 
ATOM     28  C   UNL     1       0.002  -0.004   0.002  0.00  0.00    +0.225 C 
ENDBRANCH  26  28
ENDBRANCH  20  26
ENDBRANCH   1  23
TORSDOF 3
