REMARK  Name = ZINC07156707
REMARK  5 active torsions:
REMARK  status: ('A' for Active; 'I' for Inactive)
REMARK    1  A    between atoms: C_4  and  N_7
REMARK    2  A    between atoms: C_9  and  C_21
REMARK    3  A    between atoms: C_10  and  C_12
REMARK    4  A    between atoms: C_21  and  S_22
REMARK    5  A    between atoms: S_22  and  C_23
REMARK                            x       y       z     vdW  Elec       q    Type
REMARK                         _______ _______ _______ _____ _____    ______ ____
ROOT
ATOM      1  N   UNL     1      -3.274   2.942  -0.331  0.00  0.00    -0.239 N 
ATOM      2  C   UNL     1      -2.647   3.860   0.450  0.00  0.00    +0.119 A 
ATOM      3  C   UNL     1      -1.392   3.419   0.682  0.00  0.00    +0.012 A 
ATOM      4  C   UNL     1      -1.237   2.183   0.020  0.00  0.00    +0.132 A 
ATOM      5  N   UNL     1      -2.371   1.904  -0.593  0.00  0.00    -0.163 NA
ENDROOT
BRANCH   4   6
ATOM      6  C   UNL     1      -0.016   1.350   0.009  0.00  0.00    +0.156 A 
ATOM      7  C   UNL     1       0.002  -0.004   0.002  0.00  0.00    +0.060 A 
ATOM      8  C   UNL     1       1.415  -0.391  -0.013  0.00  0.00    +0.021 A 
ATOM      9  C   UNL     1       2.089  -1.613  -0.027  0.00  0.00    +0.011 A 
ATOM     10  C   UNL     1       3.456  -1.632  -0.041  0.00  0.00    +0.001 A 
ATOM     11  C   UNL     1       4.176  -0.445  -0.041  0.00  0.00    +0.004 A 
ATOM     12  C   UNL     1       3.527   0.771  -0.028  0.00  0.00    +0.047 A 
ATOM     13  C   UNL     1       2.139   0.815  -0.014  0.00  0.00    +0.136 A 
ATOM     14  O   UNL     1       1.245   1.825   0.000  0.00  0.00    -0.453 OA
ENDBRANCH   4   6
BRANCH   1  18
ATOM     15  C   UNL     1      -7.197   3.182  -1.720  0.00  0.00    +0.000 A 
ATOM     16  C   UNL     1      -6.412   2.092  -2.052  0.00  0.00    +0.002 A 
ATOM     17  C   UNL     1      -5.112   2.010  -1.593  0.00  0.00    +0.028 A 
ATOM     18  C   UNL     1      -4.593   3.023  -0.798  0.00  0.00    +0.065 A 
ATOM     19  C   UNL     1      -5.384   4.113  -0.463  0.00  0.00    +0.028 A 
ATOM     20  C   UNL     1      -6.682   4.193  -0.929  0.00  0.00    +0.002 A 
ENDBRANCH   1  18
BRANCH   3  21
ATOM     21  C   UNL     1      -0.343   4.123   1.504  0.00  0.00    +0.116 C 
BRANCH  21  22
ATOM     22  S   UNL     1       0.623   5.221   0.437  0.00  0.00    -0.088 S 
BRANCH  22  23
ATOM     23  C   UNL     1       1.741   5.893   1.621  0.00  0.00    +0.123 C 
ATOM     24  N   UNL     1       1.669   5.522   2.870  0.00  0.00    -0.382 N 
ATOM     25  N   UNL     1       2.689   6.809   1.230  0.00  0.00    -0.340 N 
ATOM     26  H   UNL     1       2.366   5.942   3.610  0.00  0.00    +0.158 HD
ATOM     27  H   UNL     1       3.387   7.229   1.969  0.00  0.00    +0.144 HD
ATOM     28  H   UNL     1       2.750   7.122   0.177  0.00  0.00    +0.144 HD
ATOM     29  H   UNL     1       0.910   4.790   3.183  0.00  0.00    +0.158 HD
ENDBRANCH  22  23
ENDBRANCH  21  22
ENDBRANCH   3  21
TORSDOF 5
