REMARK  Name = ZINC37318541
REMARK  6 active torsions:
REMARK  status: ('A' for Active; 'I' for Inactive)
REMARK    1  A    between atoms: C_1  and  C_2
REMARK    2  A    between atoms: C_2  and  C_4
REMARK    3  A    between atoms: C_2  and  N_10
REMARK    4  A    between atoms: N_10  and  C_11
REMARK    5  A    between atoms: N_14  and  C_17
REMARK    6  A    between atoms: C_17  and  C_18
REMARK                            x       y       z     vdW  Elec       q    Type
REMARK                         _______ _______ _______ _____ _____    ______ ____
ROOT
ATOM      1  C   UNL     1       2.142  -0.280  -1.047  0.00  0.00    -0.069 C 
ATOM      2  C   UNL     1       2.346   1.237  -1.043  0.00  0.00    -0.000 C 
ATOM      3  C   UNL     1       3.844   1.546  -0.998  0.00  0.00    +0.083 C 
ATOM      4  N   UNL     1       4.503   0.949  -2.166  0.00  0.00    -0.294 NA
ATOM      5  C   UNL     1       4.361  -0.513  -2.167  0.00  0.00    +0.083 C 
ATOM      6  C   UNL     1       2.878  -0.883  -2.247  0.00  0.00    -0.000 C 
ENDROOT
BRANCH   1   7
ATOM      7  N   UNL     1       0.708  -0.583  -1.149  0.00  0.00    +0.386 N 
ATOM      8  H   UNL     1       0.581  -1.578  -1.257  0.00  0.00    -0.085 HD
ATOM      9  H   UNL     1       0.320  -0.105  -1.949  0.00  0.00    -0.085 HD
BRANCH   7  11
ATOM     10  C   UNL     1      -1.486  -0.316  -0.093  0.00  0.00    -0.008 C 
ATOM     11  C   UNL     1       0.024  -0.131   0.070  0.00  0.00    -0.036 C 
BRANCH  11  12
ATOM     12  C   UNL     1       0.505  -0.941   1.246  0.00  0.00    -0.010 A 
ATOM     13  C   UNL     1       0.863  -0.520   2.484  0.00  0.00    +0.026 A 
ATOM     14  C   UNL     1       1.278  -1.454   3.415  0.00  0.00    +0.023 A 
ATOM     15  C   UNL     1       1.315  -2.762   3.063  0.00  0.00    +0.046 A 
ATOM     16  S   UNL     1       0.745  -2.706   1.372  0.00  0.00    -0.102 S 
ATOM     17 BR   UNL     1       0.796   1.317   2.929  0.00  0.00    -0.050 Br
ENDBRANCH  11  12
ENDBRANCH   7  11
ENDBRANCH   1   7
BRANCH   4  18
ATOM     18  C   UNL     1       5.918   1.340  -2.230  0.00  0.00    +0.180 C 
BRANCH  18  19
ATOM     19  C   UNL     1       6.496   0.919  -3.556  0.00  0.00    +0.225 C 
ATOM     20  O   UNL     1       5.799   0.348  -4.368  0.00  0.00    -0.275 OA
ATOM     21  N   UNL     1       7.788   1.176  -3.839  0.00  0.00    -0.328 N 
ATOM     22  H   UNL     1       8.346   1.632  -3.190  0.00  0.00    +0.145 HD
ATOM     23  H   UNL     1       8.161   0.904  -4.693  0.00  0.00    +0.145 HD
ENDBRANCH  18  19
ENDBRANCH   4  18
TORSDOF 5
