REMARK  Name = ZINC67129260
REMARK  6 active torsions:
REMARK  status: ('A' for Active; 'I' for Inactive)
REMARK    1  A    between atoms: C_4  and  N_11
REMARK    2  A    between atoms: C_6  and  C_7
REMARK    3  A    between atoms: C_12  and  C_14
REMARK    4  A    between atoms: C_14  and  N_15
REMARK    5  A    between atoms: C_17  and  O_25
REMARK    6  A    between atoms: C_20  and  C_22
REMARK                            x       y       z     vdW  Elec       q    Type
REMARK                         _______ _______ _______ _____ _____    ______ ____
ROOT
ATOM      1  N   UNL     1       3.622  -0.653  -0.037  0.00  0.00    -0.286 N 
ATOM      2  C   UNL     1       3.644  -1.998   0.057  0.00  0.00    +0.201 C 
ATOM      3  O   UNL     1       2.605  -2.622   0.065  0.00  0.00    -0.278 OA
ATOM      4  H   UNL     1       4.452  -0.159  -0.124  0.00  0.00    +0.155 HD
ENDROOT
BRANCH   1   8
ATOM      5  C   UNL     1      -0.015   1.380   0.043  0.00  0.00    +0.014 A 
ATOM      6  C   UNL     1       1.083   1.955  -0.572  0.00  0.00    +0.022 A 
ATOM      7  C   UNL     1       2.290   1.284  -0.600  0.00  0.00    +0.062 A 
ATOM      8  C   UNL     1       2.400   0.030  -0.010  0.00  0.00    +0.052 A 
ATOM      9  C   UNL     1       1.296  -0.543   0.606  0.00  0.00    +0.037 A 
ATOM     10  C   UNL     1       0.092   0.133   0.631  0.00  0.00    +0.057 A 
ATOM     11 CL   UNL     1       3.667   2.005  -1.373  0.00  0.00    -0.082 Cl
BRANCH  10  12
ATOM     12  C   UNL     1      -1.107  -0.489   1.299  0.00  0.00    +0.417 C 
ATOM     13  F   UNL     1      -2.200   0.378   1.196  0.00  0.00    -0.166 F 
ATOM     14  F   UNL     1      -1.413  -1.702   0.673  0.00  0.00    -0.166 F 
ATOM     15  F   UNL     1      -0.820  -0.720   2.649  0.00  0.00    -0.166 F 
ENDBRANCH  10  12
ENDBRANCH   1   8
BRANCH   2  16
ATOM     16  C   UNL     1       4.961  -2.724   0.153  0.00  0.00    +0.020 C 
BRANCH  16  17
ATOM     17  N   UNL     1       4.717  -4.170   0.245  0.00  0.00    +0.395 N 
ATOM     18  C   UNL     1       4.178  -4.679  -1.034  0.00  0.00    -0.045 C 
ATOM     19  C   UNL     1       4.758  -6.090  -1.240  0.00  0.00    +0.097 C 
ATOM     20  C   UNL     1       5.677  -6.330  -0.020  0.00  0.00    +0.023 C 
ATOM     21  C   UNL     1       5.996  -4.893   0.462  0.00  0.00    +0.022 C 
ATOM     22  H   UNL     1       4.074  -4.367   0.998  0.00  0.00    -0.080 HD
BRANCH  21  23
ATOM     23  C   UNL     1       6.367  -4.891   1.922  0.00  0.00    +0.197 C 
ATOM     24  O   UNL     1       5.647  -4.344   2.731  0.00  0.00    -0.278 OA
ATOM     25  N   UNL     1       7.499  -5.498   2.331  0.00  0.00    -0.331 N 
ATOM     26  H   UNL     1       8.075  -5.936   1.684  0.00  0.00    +0.145 HD
ATOM     27  H   UNL     1       7.738  -5.497   3.271  0.00  0.00    +0.145 HD
ENDBRANCH  21  23
BRANCH  19  28
ATOM     28  O   UNL     1       3.708  -7.059  -1.271  0.00  0.00    -0.394 OA
ATOM     29  H   UNL     1       4.015  -7.967  -1.398  0.00  0.00    +0.210 HD
ENDBRANCH  19  28
ENDBRANCH  16  17
ENDBRANCH   2  16
TORSDOF 6
