REMARK  Name = ZINC31958723
REMARK  9 active torsions:
REMARK  status: ('A' for Active; 'I' for Inactive)
REMARK    1  A    between atoms: C_1  and  C_2
REMARK    2  A    between atoms: C_2  and  C_3
REMARK    3  A    between atoms: C_2  and  C_4
REMARK    4  A    between atoms: C_7  and  C_10
REMARK    5  A    between atoms: C_14  and  N_19
REMARK    6  A    between atoms: C_20  and  C_22
REMARK    7  A    between atoms: C_22  and  C_23
REMARK    8  A    between atoms: C_23  and  C_24
REMARK    9  A    between atoms: C_24  and  N_25
REMARK                            x       y       z     vdW  Elec       q    Type
REMARK                         _______ _______ _______ _____ _____    ______ ____
ROOT
ATOM      1  C   UNL     1      -2.529   2.925   4.868  0.00  0.00    +0.090 A 
ATOM      2  C   UNL     1      -2.661   4.225   5.254  0.00  0.00    +0.121 A 
ATOM      3  N   UNL     1      -3.452   4.234   6.368  0.00  0.00    -0.304 N 
ATOM      4  C   UNL     1      -3.908   5.248   7.164  0.00  0.00    +0.116 A 
ATOM      5  C   UNL     1      -4.697   4.982   8.233  0.00  0.00    +0.050 A 
ATOM      6  C   UNL     1      -5.056   3.653   8.535  0.00  0.00    +0.028 A 
ATOM      7  C   UNL     1      -4.607   2.640   7.748  0.00  0.00    +0.048 A 
ATOM      8  C   UNL     1      -3.787   2.933   6.639  0.00  0.00    +0.138 A 
ATOM      9  N   UNL     1      -3.226   2.159   5.721  0.00  0.00    -0.228 NA
ENDROOT
BRANCH   1  13
ATOM     10  C   UNL     1      -0.301   1.534   1.523  0.00  0.00    -0.045 A 
ATOM     11  C   UNL     1      -0.347   2.887   1.806  0.00  0.00    +0.004 A 
ATOM     12  C   UNL     1      -1.074   3.345   2.886  0.00  0.00    +0.010 A 
ATOM     13  C   UNL     1      -1.752   2.439   3.700  0.00  0.00    +0.002 A 
ATOM     14  C   UNL     1      -1.697   1.077   3.415  0.00  0.00    +0.010 A 
ATOM     15  C   UNL     1      -0.972   0.631   2.328  0.00  0.00    +0.004 A 
BRANCH  10  17
ATOM     16  C   UNL     1       1.957   1.442   0.502  0.00  0.00    +0.012 C 
ATOM     17  C   UNL     1       0.489   1.041   0.339  0.00  0.00    +0.013 C 
ATOM     18  C   UNL     1      -0.070   1.663  -0.942  0.00  0.00    +0.012 C 
ENDBRANCH  10  17
ENDBRANCH   1  13
BRANCH   5  19
ATOM     19  N   UNL     1      -5.157   6.032   9.041  0.00  0.00    -0.284 N 
ATOM     20  C   UNL     1      -5.334   5.837  10.363  0.00  0.00    +0.217 C 
ATOM     21  O   UNL     1      -5.005   4.786  10.871  0.00  0.00    -0.275 OA
ATOM     22  H   UNL     1      -5.374   7.014   8.596  0.00  0.00    +0.155 HD
BRANCH  20  23
ATOM     23  C   UNL     1      -5.940   6.926  11.211  0.00  0.00    +0.094 C 
BRANCH  23  24
ATOM     24  C   UNL     1      -6.028   6.452  12.663  0.00  0.00    -0.010 C 
BRANCH  24  25
ATOM     25  C   UNL     1      -6.643   7.558  13.524  0.00  0.00    -0.086 C 
BRANCH  25  26
ATOM     26  N   UNL     1      -6.728   7.103  14.918  0.00  0.00    +0.378 N 
ATOM     27  H   UNL     1      -7.170   7.897  15.537  0.00  0.00    -0.090 HD
ATOM     28  H   UNL     1      -5.720   6.867  15.289  0.00  0.00    -0.090 HD
ATOM     29  H   UNL     1      -7.358   6.202  14.972  0.00  0.00    -0.090 HD
ENDBRANCH  25  26
ENDBRANCH  24  25
ENDBRANCH  23  24
ENDBRANCH  20  23
ENDBRANCH   5  19
TORSDOF 7
