REMARK  Name = ZINC38715966
REMARK  6 active torsions:
REMARK  status: ('A' for Active; 'I' for Inactive)
REMARK    1  A    between atoms: C_7  and  C_10
REMARK    2  A    between atoms: N_11  and  N_12
REMARK    3  A    between atoms: C_13  and  C_22
REMARK    4  A    between atoms: N_18  and  C_19
REMARK    5  A    between atoms: C_25  and  O_29
REMARK    6  A    between atoms: C_27  and  O_28
REMARK                            x       y       z     vdW  Elec       q    Type
REMARK                         _______ _______ _______ _____ _____    ______ ____
ROOT
ATOM      1  N   UNL     1       0.256  -5.432  -0.136  0.00  0.00    -0.195 N 
ATOM      2  C   UNL     1       0.756  -6.793  -0.144  0.00  0.00    +0.144 C 
ATOM      3  C   UNL     1      -0.369  -7.850  -0.235  0.00  0.00    +0.106 C 
ATOM      4  S   UNL     1      -1.830  -6.799   0.157  0.00  0.00    -0.089 S 
ATOM      5  C   UNL     1      -1.105  -5.213  -0.228  0.00  0.00    +0.151 C 
ATOM      6  N   UNL     1      -1.720  -4.104  -0.529  0.00  0.00    -0.364 N 
ATOM      7  H   UNL     1      -1.210  -3.323  -0.793  0.00  0.00    +0.162 HD
ENDROOT
BRANCH   2   8
ATOM      8  C   UNL     1       1.675  -6.965  -1.327  0.00  0.00    +0.017 A 
ATOM      9  C   UNL     1       1.604  -6.084  -2.389  0.00  0.00    +0.013 A 
ATOM     10  C   UNL     1       2.445  -6.239  -3.475  0.00  0.00    +0.046 A 
ATOM     11  C   UNL     1       3.362  -7.280  -3.500  0.00  0.00    +0.120 A 
ATOM     12  C   UNL     1       3.435  -8.165  -2.436  0.00  0.00    +0.091 A 
ATOM     13  C   UNL     1       2.594  -8.004  -1.345  0.00  0.00    +0.125 A 
BRANCH  13  14
ATOM     14  O   UNL     1       2.667  -8.867  -0.297  0.00  0.00    -0.506 OA
ATOM     15  H   UNL     1       2.090  -9.638  -0.382  0.00  0.00    +0.292 HD
ENDBRANCH  13  14
BRANCH  11  16
ATOM     16  O   UNL     1       4.189  -7.432  -4.568  0.00  0.00    -0.507 OA
ATOM     17  H   UNL     1       5.028  -6.957  -4.487  0.00  0.00    +0.292 HD
ENDBRANCH  11  16
ENDBRANCH   2   8
BRANCH   6  18
ATOM     18  C   UNL     1      -3.182  -4.037  -0.468  0.00  0.00    +0.081 C 
ATOM     19  C   UNL     1      -3.906  -3.336  -1.619  0.00  0.00    +0.026 C 
ATOM     20  C   UNL     1      -3.818  -2.663  -0.247  0.00  0.00    +0.026 C 
ENDBRANCH   6  18
BRANCH   1  22
ATOM     21  C   UNL     1       2.419  -4.569   0.169  0.00  0.00    +0.136 C 
ATOM     22  N   UNL     1       1.142  -4.352  -0.029  0.00  0.00    -0.185 NA
BRANCH  21  29
ATOM     23  C   UNL     1       6.912  -4.387   0.750  0.00  0.00    +0.001 A 
ATOM     24  C   UNL     1       7.435  -3.094   0.661  0.00  0.00    +0.002 A 
ATOM     25  C   UNL     1       6.646  -2.019   0.421  0.00  0.00    +0.026 A 
ATOM     26  C   UNL     1       5.247  -2.193   0.254  0.00  0.00    +0.043 A 
ATOM     27  N   UNL     1       4.283  -1.327   0.018  0.00  0.00    -0.380 N 
ATOM     28  C   UNL     1       3.003  -2.037  -0.066  0.00  0.00    +0.150 C 
ATOM     29  C   UNL     1       3.321  -3.499   0.157  0.00  0.00    +0.000 C 
ATOM     30  C   UNL     1       4.701  -3.557   0.350  0.00  0.00    +0.004 A 
ATOM     31  C   UNL     1       5.585  -4.629   0.602  0.00  0.00    +0.010 A 
ATOM     32  H   UNL     1       4.401  -0.369  -0.085  0.00  0.00    +0.160 HD
ENDBRANCH  21  29
ENDBRANCH   1  22
TORSDOF 6
