REMARK  Name = ZINC13565846
REMARK  9 active torsions:
REMARK  status: ('A' for Active; 'I' for Inactive)
REMARK    1  A    between atoms: C_1  and  C_2
REMARK    2  A    between atoms: C_2  and  O_3
REMARK    3  A    between atoms: O_3  and  C_4
REMARK    4  A    between atoms: C_4  and  C_6
REMARK    5  A    between atoms: C_7  and  C_21
REMARK    6  A    between atoms: C_12  and  C_14
REMARK    7  A    between atoms: C_21  and  N_22
REMARK    8  A    between atoms: C_30  and  C_32
REMARK    9  A    between atoms: C_30  and  O_39
REMARK                            x       y       z     vdW  Elec       q    Type
REMARK                         _______ _______ _______ _____ _____    ______ ____
ROOT
ATOM      1  C   UNL     1      -2.795  -2.406   0.097  0.00  0.00    +0.079 C 
ATOM      2  C   UNL     1      -2.985  -3.731  -0.085  0.00  0.00    +0.038 C 
ATOM      3  N   UNL     1      -4.241  -4.260  -0.157  0.00  0.00    -0.271 N 
ATOM      4  C   UNL     1      -5.360  -3.531  -0.057  0.00  0.00    +0.304 C 
ATOM      5  O   UNL     1      -6.436  -4.092  -0.134  0.00  0.00    -0.252 OA
ATOM      6  N   UNL     1      -5.333  -2.196   0.126  0.00  0.00    -0.288 N 
ATOM      7  C   UNL     1      -4.024  -1.529   0.223  0.00  0.00    +0.144 C 
ATOM      8  H   UNL     1      -4.329  -5.217  -0.288  0.00  0.00    +0.156 HD
ATOM      9  H   UNL     1      -6.156  -1.687   0.195  0.00  0.00    +0.151 HD
ENDROOT
BRANCH   7  10
ATOM     10  C   UNL     1      -3.960  -0.481  -0.858  0.00  0.00    -0.022 A 
ATOM     11  C   UNL     1      -4.343  -0.796  -2.148  0.00  0.00    +0.007 A 
ATOM     12  C   UNL     1      -4.285   0.164  -3.141  0.00  0.00    +0.020 A 
ATOM     13  C   UNL     1      -3.843   1.441  -2.842  0.00  0.00    +0.041 A 
ATOM     14  C   UNL     1      -3.460   1.756  -1.551  0.00  0.00    +0.020 A 
ATOM     15  C   UNL     1      -3.524   0.796  -0.558  0.00  0.00    +0.007 A 
ATOM     16 CL   UNL     1      -3.769   2.648  -4.088  0.00  0.00    -0.084 Cl
ENDBRANCH   7  10
BRANCH   1  17
ATOM     17  C   UNL     1      -1.494  -1.857   0.173  0.00  0.00    +0.339 C 
ATOM     18  O   UNL     1      -1.021  -1.558   1.254  0.00  0.00    -0.245 OA
BRANCH  17  19
ATOM     19  O   UNL     1      -0.776  -1.665  -0.954  0.00  0.00    -0.462 OA
BRANCH  19  21
ATOM     20  C   UNL     1       1.186  -0.963  -2.178  0.00  0.00    +0.048 C 
ATOM     21  C   UNL     1       0.531  -1.106  -0.803  0.00  0.00    +0.229 C 
ENDBRANCH  19  21
ENDBRANCH  17  19
ENDBRANCH   1  17
BRANCH   2  22
ATOM     22  C   UNL     1      -1.789  -4.640  -0.210  0.00  0.00    +0.136 C 
BRANCH  22  23
ATOM     23  N   UNL     1      -1.770  -5.582   0.917  0.00  0.00    -0.291 NA
ATOM     24  C   UNL     1      -1.318  -4.911   2.165  0.00  0.00    +0.060 C 
ATOM     25  C   UNL     1       0.217  -4.811   2.007  0.00  0.00    +0.020 C 
ATOM     26  C   UNL     1       0.591  -5.956   1.043  0.00  0.00    +0.020 C 
ATOM     27  C   UNL     1      -0.752  -6.645   0.707  0.00  0.00    +0.060 C 
ATOM     28  C   UNL     1      -1.001  -7.731   1.765  0.00  0.00    +0.058 C 
ATOM     29  C   UNL     1      -0.759  -7.134   3.155  0.00  0.00    +0.094 C 
ATOM     30  C   UNL     1      -1.622  -5.865   3.331  0.00  0.00    +0.058 C 
BRANCH  29  31
ATOM     31  C   UNL     1      -1.139  -8.144   4.207  0.00  0.00    -0.016 A 
ATOM     32  C   UNL     1      -2.134  -9.068   3.950  0.00  0.00    +0.009 A 
ATOM     33  C   UNL     1      -2.483  -9.995   4.914  0.00  0.00    +0.039 A 
ATOM     34  C   UNL     1      -1.837  -9.997   6.138  0.00  0.00    +0.123 A 
ATOM     35  C   UNL     1      -0.840  -9.070   6.394  0.00  0.00    +0.039 A 
ATOM     36  C   UNL     1      -0.489  -8.148   5.427  0.00  0.00    +0.009 A 
ATOM     37  F   UNL     1      -2.177 -10.902   7.081  0.00  0.00    -0.205 F 
ENDBRANCH  29  31
BRANCH  29  38
ATOM     38  O   UNL     1       0.623  -6.801   3.295  0.00  0.00    -0.384 OA
ATOM     39  H   UNL     1       0.850  -6.416   4.152  0.00  0.00    +0.211 HD
ENDBRANCH  29  38
ENDBRANCH  22  23
ENDBRANCH   2  22
TORSDOF 8
