REMARK  Name = ZINC59489391
REMARK  11 active torsions:
REMARK  status: ('A' for Active; 'I' for Inactive)
REMARK    1  A    between atoms: C_1  and  C_2
REMARK    2  A    between atoms: C_2  and  O_3
REMARK    3  A    between atoms: O_3  and  C_4
REMARK    4  A    between atoms: C_7  and  N_10
REMARK    5  A    between atoms: C_14  and  S_18
REMARK    6  A    between atoms: S_18  and  C_19
REMARK    7  A    between atoms: N_21  and  N_22
REMARK    8  A    between atoms: C_23  and  C_24
REMARK    9  A    between atoms: C_23  and  C_25
REMARK   10  A    between atoms: C_28  and  O_32
REMARK   11  A    between atoms: O_32  and  C_33
REMARK                            x       y       z     vdW  Elec       q    Type
REMARK                         _______ _______ _______ _____ _____    ______ ____
ROOT
ATOM      1  C   UNL     1       1.526  -8.533  -5.558  0.00  0.00    +0.146 C 
ATOM      2  N   UNL     1       2.686  -7.939  -5.499  0.00  0.00    -0.380 N 
ATOM      3  N   UNL     1       1.047  -8.990  -6.764  0.00  0.00    -0.217 N 
ATOM      4  H   UNL     1       3.211  -7.819  -6.306  0.00  0.00    +0.158 HD
ATOM      5  H   UNL     1       0.184  -9.432  -6.808  0.00  0.00    +0.176 HD
ATOM      6  H   UNL     1       3.024  -7.617  -4.649  0.00  0.00    +0.158 HD
ENDROOT
BRANCH   3   7
ATOM      7  N   UNL     1       1.805  -8.818  -7.930  0.00  0.00    -0.185 NA
ATOM      8  C   UNL     1       1.353  -9.249  -9.068  0.00  0.00    +0.063 C 
ATOM      9  C   UNL     1       0.013  -9.935  -9.135  0.00  0.00    +0.068 C 
BRANCH   8  10
ATOM     10  C   UNL     1       2.151  -9.067 -10.294  0.00  0.00    -0.001 A 
ATOM     11  C   UNL     1       1.664  -9.525 -11.521  0.00  0.00    +0.013 A 
ATOM     12  C   UNL     1       2.412  -9.353 -12.665  0.00  0.00    +0.047 A 
ATOM     13  C   UNL     1       3.649  -8.725 -12.601  0.00  0.00    +0.134 A 
ATOM     14  C   UNL     1       4.138  -8.268 -11.383  0.00  0.00    +0.060 A 
ATOM     15  C   UNL     1       3.393  -8.431 -10.234  0.00  0.00    +0.028 A 
ATOM     16 BR   UNL     1       5.824  -7.415 -11.303  0.00  0.00    -0.046 Br
BRANCH  13  17
ATOM     17  O   UNL     1       4.383  -8.558 -13.732  0.00  0.00    -0.494 OA
ATOM     18  C   UNL     1       3.822  -9.052 -14.949  0.00  0.00    +0.277 C 
ENDBRANCH  13  17
ENDBRANCH   8  10
ENDBRANCH   3   7
BRANCH   1  19
ATOM     19  S   UNL     1       0.573  -8.750  -4.092  0.00  0.00    -0.078 S 
BRANCH  19  24
ATOM     20  N   UNL     1       1.101  -5.940  -1.835  0.00  0.00    -0.209 N 
ATOM     21  C   UNL     1       0.688  -6.816  -0.911  0.00  0.00    +0.228 C 
ATOM     22  O   UNL     1       0.184  -6.528   0.153  0.00  0.00    -0.275 OA
ATOM     23  C   UNL     1       0.951  -8.222  -1.405  0.00  0.00    +0.120 C 
ATOM     24  C   UNL     1       1.593  -8.004  -2.790  0.00  0.00    +0.149 C 
ATOM     25  C   UNL     1       1.621  -6.498  -2.935  0.00  0.00    +0.240 C 
ATOM     26  O   UNL     1       2.049  -5.893  -3.895  0.00  0.00    -0.274 OA
BRANCH  20  30
ATOM     27  C   UNL     1       0.775  -1.811  -1.336  0.00  0.00    +0.121 A 
ATOM     28  C   UNL     1       0.015  -2.454  -2.301  0.00  0.00    +0.047 A 
ATOM     29  C   UNL     1       0.122  -3.821  -2.467  0.00  0.00    +0.027 A 
ATOM     30  C   UNL     1       0.992  -4.551  -1.668  0.00  0.00    +0.044 A 
ATOM     31  C   UNL     1       1.752  -3.906  -0.702  0.00  0.00    +0.027 A 
ATOM     32  C   UNL     1       1.648  -2.539  -0.540  0.00  0.00    +0.047 A 
BRANCH  27  33
ATOM     33  O   UNL     1       0.669  -0.465  -1.173  0.00  0.00    -0.492 OA
BRANCH  33  35
ATOM     34  C   UNL     1      -0.230   1.716  -1.699  0.00  0.00    +0.048 C 
ATOM     35  C   UNL     1      -0.249   0.221  -2.027  0.00  0.00    +0.225 C 
ENDBRANCH  33  35
ENDBRANCH  27  33
ENDBRANCH  20  30
ENDBRANCH  19  24
ENDBRANCH   1  19
TORSDOF 8
