REMARK  Name = ZINC08768344
REMARK  9 active torsions:
REMARK  status: ('A' for Active; 'I' for Inactive)
REMARK    1  A    between atoms: C_1  and  C_2
REMARK    2  A    between atoms: C_5  and  C_8
REMARK    3  A    between atoms: C_9  and  N_24
REMARK    4  A    between atoms: N_12  and  C_13
REMARK    5  A    between atoms: N_19  and  C_20
REMARK    6  A    between atoms: C_20  and  C_21
REMARK    7  A    between atoms: C_21  and  O_22
REMARK    8  A    between atoms: O_22  and  C_23
REMARK    9  A    between atoms: C_25  and  C_27
REMARK                            x       y       z     vdW  Elec       q    Type
REMARK                         _______ _______ _______ _____ _____    ______ ____
ROOT
ATOM      1  C   UNL     1       0.639  -4.384  -0.138  0.00  0.00    +0.079 A 
ATOM      2  C   UNL     1       0.796  -5.052   1.034  0.00  0.00    +0.100 A 
ATOM      3  S   UNL     1       0.655  -6.755   0.517  0.00  0.00    -0.036 S 
ATOM      4  C   UNL     1       0.406  -6.468  -1.227  0.00  0.00    +0.154 A 
ATOM      5  N   UNL     1       0.230  -7.344  -2.198  0.00  0.00    -0.336 N 
ATOM      6  N   UNL     1       0.443  -5.096  -1.295  0.00  0.00    -0.317 N 
ATOM      7  H   UNL     1       0.127  -8.413  -1.962  0.00  0.00    +0.168 HD
ENDROOT
BRANCH   1  12
ATOM      8  C   UNL     1       0.820   1.364  -0.255  0.00  0.00    +0.044 C 
ATOM      9  C   UNL     1       0.773  -0.142  -0.224  0.00  0.00    -0.050 A 
ATOM     10  C   UNL     1       0.010  -0.787   0.733  0.00  0.00    +0.004 A 
ATOM     11  C   UNL     1      -0.042  -2.165   0.764  0.00  0.00    +0.010 A 
ATOM     12  C   UNL     1       0.685  -2.909  -0.168  0.00  0.00    +0.001 A 
ATOM     13  C   UNL     1       1.458  -2.251  -1.128  0.00  0.00    +0.010 A 
ATOM     14  C   UNL     1       1.496  -0.873  -1.151  0.00  0.00    +0.004 A 
ENDBRANCH   1  12
BRANCH   5  15
ATOM     15  C   UNL     1       0.178  -6.923  -3.498  0.00  0.00    +0.041 A 
ATOM     16  C   UNL     1      -1.056  -6.702  -4.115  0.00  0.00    +0.025 A 
ATOM     17  C   UNL     1      -1.101  -6.273  -5.425  0.00  0.00    +0.002 A 
ATOM     18  C   UNL     1       0.072  -6.072  -6.131  0.00  0.00    +0.000 A 
ATOM     19  C   UNL     1       1.298  -6.294  -5.528  0.00  0.00    +0.002 A 
ATOM     20  C   UNL     1       1.358  -6.718  -4.217  0.00  0.00    +0.025 A 
ENDBRANCH   5  15
BRANCH   2  21
ATOM     21  N   UNL     1       1.011  -4.540   2.312  0.00  0.00    -0.274 N 
ATOM     22  C   UNL     1       1.260  -5.375   3.339  0.00  0.00    +0.255 C 
ATOM     23  O   UNL     1       1.298  -6.577   3.151  0.00  0.00    -0.269 OA
ATOM     24  H   UNL     1       0.977  -3.454   2.481  0.00  0.00    +0.156 HD
BRANCH  22  25
ATOM     25  C   UNL     1       1.486  -4.836   4.683  0.00  0.00    +0.074 A 
ATOM     26  C   UNL     1       1.755  -5.514   5.863  0.00  0.00    +0.021 A 
ATOM     27  C   UNL     1       1.927  -4.755   6.994  0.00  0.00    +0.008 A 
ATOM     28  C   UNL     1       1.828  -3.403   6.907  0.00  0.00    +0.046 A 
ATOM     29  S   UNL     1       1.494  -3.137   5.227  0.00  0.00    -0.092 S 
ENDBRANCH  22  25
ENDBRANCH   2  21
BRANCH   6  30
ATOM     30  C   UNL     1       0.276  -4.407  -2.577  0.00  0.00    +0.152 C 
BRANCH  30  31
ATOM     31  C   UNL     1      -0.850  -3.378  -2.460  0.00  0.00    +0.181 C 
BRANCH  31  32
ATOM     32  O   UNL     1      -1.114  -2.813  -3.746  0.00  0.00    -0.381 OA
ATOM     33  C   UNL     1      -2.226  -1.916  -3.769  0.00  0.00    +0.194 C 
ENDBRANCH  31  32
ENDBRANCH  30  31
ENDBRANCH   6  30
TORSDOF 7
