REMARK  Name = ZINC62595257
REMARK  9 active torsions:
REMARK  status: ('A' for Active; 'I' for Inactive)
REMARK    1  A    between atoms: C_1  and  C_2
REMARK    2  A    between atoms: C_2  and  N_3
REMARK    3  A    between atoms: N_3  and  C_4
REMARK    4  A    between atoms: C_4  and  C_5
REMARK    5  A    between atoms: C_6  and  C_8
REMARK    6  A    between atoms: C_8  and  N_9
REMARK    7  A    between atoms: N_18  and  C_19
REMARK    8  A    between atoms: C_19  and  C_20
REMARK    9  A    between atoms: N_24  and  C_26
REMARK                            x       y       z     vdW  Elec       q    Type
REMARK                         _______ _______ _______ _____ _____    ______ ____
ROOT
ATOM      1  N   UNL     1      -3.844  -1.446   2.592  0.00  0.00    +0.386 N 
ATOM      2  C   UNL     1      -5.109  -2.178   2.574  0.00  0.00    -0.077 C 
ATOM      3  C   UNL     1      -5.237  -2.985   3.847  0.00  0.00    +0.000 C 
ATOM      4  C   UNL     1      -6.016  -2.169   4.895  0.00  0.00    +0.107 C 
ATOM      5  N   UNL     1      -5.621  -0.746   4.860  0.00  0.00    -0.287 N 
ATOM      6  C   UNL     1      -4.242  -0.328   4.711  0.00  0.00    +0.091 C 
ATOM      7  C   UNL     1      -3.899  -0.177   3.211  0.00  0.00    -0.059 C 
ATOM      8  C   UNL     1      -6.577   0.197   4.972  0.00  0.00    +0.302 C 
ATOM      9  O   UNL     1      -7.748  -0.127   5.010  0.00  0.00    -0.253 OA
ATOM     10  N   UNL     1      -6.235   1.499   5.041  0.00  0.00    -0.299 N 
ATOM     11  H   UNL     1      -5.308   1.763   4.937  0.00  0.00    +0.150 HD
ATOM     12  H   UNL     1      -3.161  -2.008   3.079  0.00  0.00    -0.081 HD
ENDROOT
BRANCH   1  13
ATOM     13  C   UNL     1      -3.392  -1.268   1.206  0.00  0.00    +0.019 C 
BRANCH  13  15
ATOM     14  N   UNL     1      -1.352  -0.505   0.033  0.00  0.00    -0.304 N 
ATOM     15  C   UNL     1      -1.978  -0.747   1.202  0.00  0.00    +0.199 C 
ATOM     16  O   UNL     1      -1.403  -0.544   2.251  0.00  0.00    -0.278 OA
BRANCH  14  18
ATOM     17  C   UNL     1       0.003   1.531   0.040  0.00  0.00    +0.024 C 
ATOM     18  C   UNL     1       0.023   0.001   0.029  0.00  0.00    +0.104 C 
ENDBRANCH  14  18
BRANCH  14  19
ATOM     19  C   UNL     1      -2.046  -0.750  -1.233  0.00  0.00    +0.104 C 
ATOM     20  C   UNL     1      -1.789  -2.188  -1.686  0.00  0.00    +0.024 C 
ENDBRANCH  14  19
ENDBRANCH  13  15
ENDBRANCH   1  13
BRANCH  10  21
ATOM     21  C   UNL     1      -7.264   2.515   5.275  0.00  0.00    +0.110 C 
BRANCH  21  22
ATOM     22  C   UNL     1      -6.615   3.900   5.310  0.00  0.00    +0.025 C 
ATOM     23  C   UNL     1      -6.098   4.299   3.902  0.00  0.00    +0.025 C 
ATOM     24  C   UNL     1      -6.138   5.846   3.983  0.00  0.00    +0.105 C 
ATOM     25  N   UNL     1      -7.346   6.151   4.771  0.00  0.00    -0.330 N 
ATOM     26  C   UNL     1      -7.665   4.988   5.618  0.00  0.00    +0.110 C 
BRANCH  25  27
ATOM     27  C   UNL     1      -8.067   7.346   4.726  0.00  0.00    +0.031 A 
ATOM     28  C   UNL     1      -9.190   7.512   5.528  0.00  0.00    +0.023 A 
ATOM     29  C   UNL     1      -9.901   8.695   5.481  0.00  0.00    +0.003 A 
ATOM     30  C   UNL     1      -9.497   9.714   4.638  0.00  0.00    +0.015 A 
ATOM     31  C   UNL     1      -8.380   9.552   3.839  0.00  0.00    +0.020 A 
ATOM     32  C   UNL     1      -7.660   8.373   3.885  0.00  0.00    +0.038 A 
ATOM     33 BR   UNL     1      -7.832  10.949   2.687  0.00  0.00    -0.050 Br
ENDBRANCH  25  27
ENDBRANCH  21  22
ENDBRANCH  10  21
TORSDOF 7
