REMARK  Name = ZINC43262255
REMARK  14 active torsions:
REMARK  status: ('A' for Active; 'I' for Inactive)
REMARK    1  A    between atoms: C_1  and  C_2
REMARK    2  A    between atoms: C_2  and  C_3
REMARK    3  A    between atoms: C_3  and  C_5
REMARK    4  A    between atoms: C_3  and  N_22
REMARK    5  A    between atoms: C_5  and  C_7
REMARK    6  A    between atoms: C_5  and  N_13
REMARK    7  A    between atoms: N_13  and  C_14
REMARK    8  A    between atoms: N_13  and  C_18
REMARK    9  A    between atoms: C_14  and  C_15
REMARK   10  A    between atoms: C_15  and  O_16
REMARK   11  A    between atoms: O_16  and  C_17
REMARK   12  A    between atoms: C_18  and  C_19
REMARK   13  A    between atoms: C_19  and  C_20
REMARK   14  A    between atoms: C_19  and  C_21
REMARK                            x       y       z     vdW  Elec       q    Type
REMARK                         _______ _______ _______ _____ _____    ______ ____
ROOT
ATOM      1  C   UNL     1      -1.493  -1.709   0.423  0.00  0.00    -0.014 C 
ENDROOT
BRANCH   1   2
ATOM      2  C   UNL     1      -0.790  -1.925  -0.892  0.00  0.00    -0.021 A 
ATOM      3  C   UNL     1      -0.562  -1.040  -1.893  0.00  0.00    +0.011 A 
ATOM      4  C   UNL     1       0.111  -1.465  -3.023  0.00  0.00    +0.023 A 
ATOM      5  C   UNL     1       0.523  -2.755  -3.097  0.00  0.00    +0.055 A 
ATOM      6  S   UNL     1      -0.037  -3.411  -1.534  0.00  0.00    -0.088 S 
ATOM      7 BR   UNL     1       1.454  -3.630  -4.490  0.00  0.00    -0.043 Br
ENDBRANCH   1   2
BRANCH   1   8
ATOM      8  N   UNL     1      -0.620  -2.145   1.522  0.00  0.00    +0.387 N 
ATOM      9  H   UNL     1      -1.063  -1.939   2.405  0.00  0.00    -0.081 HD
BRANCH   8  10
ATOM     10  C   UNL     1       0.663  -1.435   1.439  0.00  0.00    -0.049 C 
BRANCH  10  11
ATOM     11  C   UNL     1       0.435   0.059   1.675  0.00  0.00    +0.141 C 
BRANCH  11  12
ATOM     12  O   UNL     1      -0.062   0.263   2.999  0.00  0.00    -0.385 OA
ATOM     13  C   UNL     1      -0.414   1.617   3.286  0.00  0.00    +0.193 C 
ENDBRANCH  11  12
ENDBRANCH  10  11
ENDBRANCH   8  10
BRANCH   8  14
ATOM     14  C   UNL     1      -0.387  -3.592   1.417  0.00  0.00    -0.075 C 
BRANCH  14  15
ATOM     15  C   UNL     1       0.408  -4.070   2.634  0.00  0.00    -0.034 C 
ATOM     16  C   UNL     1      -0.418  -3.847   3.902  0.00  0.00    +0.005 C 
ATOM     17  C   UNL     1       0.722  -5.560   2.484  0.00  0.00    +0.005 C 
ENDBRANCH  14  15
ENDBRANCH   8  14
ENDBRANCH   1   8
BRANCH   1  18
ATOM     18  C   UNL     1      -2.789  -2.521   0.449  0.00  0.00    +0.042 C 
BRANCH  18  19
ATOM     19  N   UNL     1      -3.659  -2.089  -0.653  0.00  0.00    -0.328 NA
ATOM     20  H   UNL     1      -4.494  -2.654  -0.698  0.00  0.00    +0.118 HD
ATOM     21  H   UNL     1      -3.889  -1.110  -0.570  0.00  0.00    +0.118 HD
ENDBRANCH  18  19
BRANCH  18  23
ATOM     22  C   UNL     1      -4.735  -3.204   1.859  0.00  0.00    +0.005 C 
ATOM     23  C   UNL     1      -3.506  -2.296   1.782  0.00  0.00    +0.014 C 
ENDBRANCH  18  23
ENDBRANCH   1  18
TORSDOF 10
