REMARK  Name = ZINC01681099
REMARK  15 active torsions:
REMARK  status: ('A' for Active; 'I' for Inactive)
REMARK    1  A    between atoms: C_1  and  C_2
REMARK    2  A    between atoms: C_2  and  C_3
REMARK    3  A    between atoms: C_2  and  C_4
REMARK    4  A    between atoms: C_2  and  C_5
REMARK    5  A    between atoms: C_7  and  C_13
REMARK    6  A    between atoms: C_8  and  O_12
REMARK    7  A    between atoms: C_13  and  N_14
REMARK    8  A    between atoms: N_14  and  C_15
REMARK    9  A    between atoms: N_14  and  C_16
REMARK   10  A    between atoms: C_16  and  C_17
REMARK   11  A    between atoms: C_19  and  C_25
REMARK   12  A    between atoms: C_22  and  O_23
REMARK   13  A    between atoms: C_25  and  C_26
REMARK   14  A    between atoms: C_25  and  C_27
REMARK   15  A    between atoms: C_25  and  C_28
REMARK                            x       y       z     vdW  Elec       q    Type
REMARK                         _______ _______ _______ _____ _____    ______ ____
ROOT
ATOM      1  N   UNL     1       0.636  -4.228  -3.798  0.00  0.00    +0.383 N 
ATOM      2  C   UNL     1       0.948  -3.690  -5.130  0.00  0.00    -0.095 C 
ATOM      3  H   UNL     1      -0.298  -3.952  -3.535  0.00  0.00    -0.081 HD
ENDROOT
BRANCH   1   4
ATOM      4  C   UNL     1       1.596  -3.699  -2.820  0.00  0.00    -0.039 C 
BRANCH   4   7
ATOM      5  C   UNL     1       2.129   0.024  -3.158  0.00  0.00    -0.041 A 
ATOM      6  C   UNL     1       2.302  -1.343  -3.281  0.00  0.00    +0.009 A 
ATOM      7  C   UNL     1       1.407  -2.210  -2.684  0.00  0.00    -0.021 A 
ATOM      8  C   UNL     1       0.334  -1.710  -1.961  0.00  0.00    +0.132 A 
ATOM      9  C   UNL     1       0.163  -0.338  -1.839  0.00  0.00    +0.060 A 
ATOM     10  C   UNL     1       1.064   0.526  -2.433  0.00  0.00    +0.023 A 
ATOM     11 BR   UNL     1      -1.298   0.350  -0.854  0.00  0.00    -0.047 Br
BRANCH   5  13
ATOM     12  C   UNL     1       2.694   2.411  -3.518  0.00  0.00    +0.015 C 
ATOM     13  C   UNL     1       3.106   0.967  -3.811  0.00  0.00    -0.013 C 
ATOM     14  C   UNL     1       3.109   0.734  -5.323  0.00  0.00    +0.015 C 
ATOM     15  C   UNL     1       4.508   0.714  -3.253  0.00  0.00    +0.015 C 
ENDBRANCH   5  13
BRANCH   8  16
ATOM     16  O   UNL     1      -0.547  -2.561  -1.374  0.00  0.00    -0.505 OA
ATOM     17  H   UNL     1      -0.348  -2.757  -0.448  0.00  0.00    +0.292 HD
ENDBRANCH   8  16
ENDBRANCH   4   7
ENDBRANCH   1   4
BRANCH   1  18
ATOM     18  C   UNL     1       0.725  -5.694  -3.829  0.00  0.00    -0.039 C 
BRANCH  18  19
ATOM     19  C   UNL     1      -0.342  -6.242  -4.740  0.00  0.00    -0.021 A 
ATOM     20  C   UNL     1      -0.003  -6.725  -5.990  0.00  0.00    +0.009 A 
ATOM     21  C   UNL     1      -0.981  -7.229  -6.827  0.00  0.00    -0.041 A 
ATOM     22  C   UNL     1      -2.301  -7.251  -6.417  0.00  0.00    +0.023 A 
ATOM     23  C   UNL     1      -2.646  -6.771  -5.168  0.00  0.00    +0.060 A 
ATOM     24  C   UNL     1      -1.665  -6.269  -4.324  0.00  0.00    +0.132 A 
ATOM     25 BR   UNL     1      -4.452  -6.801  -4.607  0.00  0.00    -0.047 Br
BRANCH  21  26
ATOM     26  C   UNL     1      -0.608  -7.753  -8.190  0.00  0.00    -0.013 C 
ATOM     27  C   UNL     1       0.381  -8.911  -8.037  0.00  0.00    +0.015 C 
ATOM     28  C   UNL     1      -1.865  -8.248  -8.908  0.00  0.00    +0.015 C 
ATOM     29  C   UNL     1       0.040  -6.634  -9.008  0.00  0.00    +0.015 C 
ENDBRANCH  21  26
BRANCH  24  30
ATOM     30  O   UNL     1      -2.000  -5.801  -3.093  0.00  0.00    -0.505 OA
ATOM     31  H   UNL     1      -2.221  -4.859  -3.077  0.00  0.00    +0.292 HD
ENDBRANCH  24  30
ENDBRANCH  18  19
ENDBRANCH   1  18
TORSDOF 8
