REMARK  Name = ZINC50246755
REMARK  5 active torsions:
REMARK  status: ('A' for Active; 'I' for Inactive)
REMARK    1  A    between atoms: C_1  and  C_2
REMARK    2  A    between atoms: C_5  and  S_7
REMARK    3  A    between atoms: S_7  and  N_10
REMARK    4  A    between atoms: C_13  and  C_16
REMARK    5  A    between atoms: C_16  and  N_17
REMARK                            x       y       z     vdW  Elec       q    Type
REMARK                         _______ _______ _______ _____ _____    ______ ____
ROOT
ATOM      1  N   UNL     1       1.300  -4.748  -1.614  0.00  0.00    -0.176 NA
ATOM      2  C   UNL     1       0.265  -5.401  -2.436  0.00  0.00    +0.110 C 
ATOM      3  C   UNL     1       0.638  -5.048  -3.897  0.00  0.00    +0.020 C 
ATOM      4  C   UNL     1       2.188  -5.103  -3.845  0.00  0.00    -0.012 C 
ATOM      5  C   UNL     1       2.503  -4.556  -2.437  0.00  0.00    +0.111 C 
ENDROOT
BRANCH   1   6
ATOM      6  S   UNL     1       1.134  -4.300  -0.029  0.00  0.00    +0.067 S 
ATOM      7  O   UNL     1       2.445  -4.240   0.516  0.00  0.00    -0.152 OA
ATOM      8  O   UNL     1       0.117  -5.126   0.522  0.00  0.00    -0.152 OA
BRANCH   6  13
ATOM      9  C   UNL     1      -0.018   1.503   0.010  0.00  0.00    +0.051 C 
ATOM     10  C   UNL     1       0.002  -0.004   0.002  0.00  0.00    -0.011 A 
ATOM     11  C   UNL     1      -1.039  -0.872   0.002  0.00  0.00    +0.013 A 
ATOM     12  C   UNL     1      -0.780  -2.230  -0.007  0.00  0.00    +0.036 A 
ATOM     13  C   UNL     1       0.507  -2.653  -0.016  0.00  0.00    +0.143 A 
ATOM     14  S   UNL     1       1.404  -1.109  -0.018  0.00  0.00    -0.074 S 
ENDBRANCH   6  13
ENDBRANCH   1   6
BRANCH   4  15
ATOM     15  C   UNL     1       2.797  -4.205  -4.924  0.00  0.00    -0.082 C 
BRANCH  15  16
ATOM     16  N   UNL     1       2.478  -4.749  -6.251  0.00  0.00    +0.378 N 
ATOM     17  H   UNL     1       2.859  -5.680  -6.333  0.00  0.00    -0.090 HD
ATOM     18  H   UNL     1       1.477  -4.784  -6.369  0.00  0.00    -0.090 HD
ATOM     19  H   UNL     1       2.881  -4.158  -6.963  0.00  0.00    -0.090 HD
ENDBRANCH  15  16
ENDBRANCH   4  15
TORSDOF 4
