REMARK  Name = ZINC50588883
REMARK  8 active torsions:
REMARK  status: ('A' for Active; 'I' for Inactive)
REMARK    1  A    between atoms: C_1  and  C_2
REMARK    2  A    between atoms: C_7  and  C_8
REMARK    3  A    between atoms: C_8  and  C_10
REMARK    4  A    between atoms: C_8  and  N_14
REMARK    5  A    between atoms: C_10  and  C_12
REMARK    6  A    between atoms: C_10  and  N_13
REMARK    7  A    between atoms: C_15  and  C_21
REMARK    8  A    between atoms: C_17  and  C_19
REMARK                            x       y       z     vdW  Elec       q    Type
REMARK                         _______ _______ _______ _____ _____    ______ ____
ROOT
ATOM      1  C   UNL     1       0.243   0.049   2.492  0.00  0.00    +0.123 C 
ENDROOT
BRANCH   1   2
ATOM      2  N   UNL     1       1.562  -0.198   3.081  0.00  0.00    -0.261 N 
ATOM      3  C   UNL     1       2.491   0.738   3.368  0.00  0.00    +0.051 A 
ATOM      4  C   UNL     1       3.564   0.105   3.898  0.00  0.00    +0.061 A 
ATOM      5  C   UNL     1       3.280  -1.264   3.937  0.00  0.00    +0.074 A 
ATOM      6  N   UNL     1       2.078  -1.446   3.453  0.00  0.00    -0.175 NA
ATOM      7  C   UNL     1       4.197  -2.343   4.453  0.00  0.00    +0.068 C 
ATOM      8 BR   UNL     1       5.164   0.927   4.482  0.00  0.00    -0.047 Br
ATOM      9  C   UNL     1       2.359   2.221   3.137  0.00  0.00    +0.066 C 
ENDBRANCH   1   2
BRANCH   1  16
ATOM     10  C   UNL     1      -0.285   1.486   0.043  0.00  0.00    +0.044 C 
ATOM     11  C   UNL     1      -0.126  -0.012   0.018  0.00  0.00    -0.045 A 
ATOM     12  C   UNL     1      -0.226  -0.698  -1.179  0.00  0.00    +0.004 A 
ATOM     13  C   UNL     1      -0.080  -2.072  -1.202  0.00  0.00    +0.000 A 
ATOM     14  C   UNL     1       0.168  -2.761  -0.029  0.00  0.00    +0.000 A 
ATOM     15  C   UNL     1       0.269  -2.075   1.167  0.00  0.00    +0.006 A 
ATOM     16  C   UNL     1       0.127  -0.700   1.189  0.00  0.00    -0.022 A 
ENDBRANCH   1  16
BRANCH   1  17
ATOM     17  C   UNL     1      -0.844  -0.433   3.455  0.00  0.00    -0.049 C 
ATOM     18  C   UNL     1      -2.221  -0.175   2.840  0.00  0.00    -0.012 C 
BRANCH  17  19
ATOM     19  N   UNL     1      -0.731   0.297   4.726  0.00  0.00    +0.381 N 
ATOM     20  H   UNL     1      -0.844   1.285   4.557  0.00  0.00    -0.090 HD
ATOM     21  H   UNL     1      -1.448  -0.021   5.361  0.00  0.00    -0.090 HD
ATOM     22  H   UNL     1       0.177   0.127   5.131  0.00  0.00    -0.090 HD
ENDBRANCH  17  19
ENDBRANCH   1  17
TORSDOF 4
