REMARK  Name = ZINC08918646
REMARK  12 active torsions:
REMARK  status: ('A' for Active; 'I' for Inactive)
REMARK    1  A    between atoms: C_1  and  C_2
REMARK    2  A    between atoms: C_2  and  C_3
REMARK    3  A    between atoms: C_8  and  N_9
REMARK    4  A    between atoms: C_10  and  C_12
REMARK    5  A    between atoms: C_16  and  N_17
REMARK    6  A    between atoms: C_18  and  C_20
REMARK    7  A    between atoms: C_20  and  N_76
REMARK    8  A    between atoms: C_25  and  C_27
REMARK    9  A    between atoms: C_29  and  C_33
REMARK   10  A    between atoms: C_33  and  C_34
REMARK   11  A    between atoms: C_33  and  C_35
REMARK   12  A    between atoms: C_33  and  C_36
REMARK                            x       y       z     vdW  Elec       q    Type
REMARK                         _______ _______ _______ _____ _____    ______ ____
ROOT
ATOM      1  C   UNL     1      -3.241   7.784   3.353  0.00  0.00    +0.069 A 
ATOM      2  C   UNL     1      -3.543   7.897   4.769  0.00  0.00    -0.023 A 
ATOM      3  C   UNL     1      -3.352   6.772   5.490  0.00  0.00    -0.004 A 
ATOM      4  S   UNL     1      -2.786   5.573   4.316  0.00  0.00    -0.077 S 
ATOM      5  C   UNL     1      -2.793   6.555   2.889  0.00  0.00    +0.084 A 
ATOM      6  C   UNL     1      -3.578   6.590   6.960  0.00  0.00    +0.046 C 
ATOM      7  C   UNL     1      -3.704   7.979   7.604  0.00  0.00    -0.000 C 
ATOM      8  C   UNL     1      -4.679   8.820   6.775  0.00  0.00    +0.009 C 
ATOM      9  C   UNL     1      -4.044   9.176   5.430  0.00  0.00    +0.037 C 
ENDROOT
BRANCH   1  11
ATOM     10  N   UNL     1      -2.375   9.773   2.241  0.00  0.00    -0.281 N 
ATOM     11  C   UNL     1      -3.402   8.926   2.447  0.00  0.00    +0.251 C 
ATOM     12  O   UNL     1      -4.465   9.108   1.882  0.00  0.00    -0.270 OA
ATOM     13  H   UNL     1      -1.556   9.676   2.752  0.00  0.00    +0.155 HD
BRANCH  10  19
ATOM     14  C   UNL     1      -1.722  11.943   1.407  0.00  0.00    -0.026 A 
ATOM     15  C   UNL     1      -1.832  12.945   0.463  0.00  0.00    +0.005 A 
ATOM     16  C   UNL     1      -2.714  12.807  -0.594  0.00  0.00    +0.000 A 
ATOM     17  C   UNL     1      -3.483  11.663  -0.711  0.00  0.00    +0.002 A 
ATOM     18  C   UNL     1      -3.373  10.656   0.227  0.00  0.00    +0.023 A 
ATOM     19  C   UNL     1      -2.488  10.791   1.289  0.00  0.00    +0.037 A 
BRANCH  14  21
ATOM     20  C   UNL     1       0.565  11.424   2.216  0.00  0.00    +0.009 C 
ATOM     21  C   UNL     1      -0.765  12.097   2.561  0.00  0.00    +0.033 C 
ENDBRANCH  14  21
ENDBRANCH  10  19
ENDBRANCH   1  11
BRANCH   5  22
ATOM     22  N   UNL     1      -2.443   6.198   1.596  0.00  0.00    -0.281 N 
ATOM     23  C   UNL     1      -2.026   4.944   1.333  0.00  0.00    +0.201 C 
ATOM     24  O   UNL     1      -1.958   4.127   2.227  0.00  0.00    -0.278 OA
ATOM     25  H   UNL     1      -2.497   6.851   0.880  0.00  0.00    +0.155 HD
BRANCH  23  26
ATOM     26  C   UNL     1      -1.645   4.556  -0.073  0.00  0.00    +0.019 C 
BRANCH  26  33
ATOM     27  C   UNL     1      -2.513   2.326   0.295  0.00  0.00    -0.078 C 
ATOM     28  C   UNL     1      -2.218   0.837   0.096  0.00  0.00    -0.019 C 
ATOM     29  C   UNL     1      -0.991   0.450   0.925  0.00  0.00    -0.003 C 
ATOM     30  C   UNL     1       0.196   1.322   0.506  0.00  0.00    -0.016 C 
ATOM     31  C   UNL     1      -0.170   2.796   0.695  0.00  0.00    -0.071 C 
ATOM     32  C   UNL     1       1.006   3.673   0.258  0.00  0.00    -0.013 C 
ATOM     33  N   UNL     1      -1.342   3.111  -0.149  0.00  0.00    +0.387 N 
ATOM     34  H   UNL     1      -1.127   2.867  -1.123  0.00  0.00    -0.081 HD
ENDBRANCH  26  33
ENDBRANCH  23  26
ENDBRANCH   5  22
BRANCH   7  35
ATOM     35  C   UNL     1      -4.237   7.835   9.031  0.00  0.00    -0.035 C 
ATOM     36  C   UNL     1      -3.271   6.979   9.853  0.00  0.00    +0.011 C 
ATOM     37  C   UNL     1      -4.363   9.219   9.671  0.00  0.00    +0.011 C 
ATOM     38  C   UNL     1      -5.611   7.162   8.997  0.00  0.00    +0.011 C 
ENDBRANCH   7  35
TORSDOF 7
