REMARK  Name = ZINC39623826
REMARK  10 active torsions:
REMARK  status: ('A' for Active; 'I' for Inactive)
REMARK    1  A    between atoms: C_1  and  C_2
REMARK    2  A    between atoms: C_2  and  C_3
REMARK    3  A    between atoms: C_3  and  C_4
REMARK    4  A    between atoms: C_4  and  N_5
REMARK    5  A    between atoms: C_6  and  C_8
REMARK    6  A    between atoms: C_19  and  C_21
REMARK    7  A    between atoms: C_21  and  C_23
REMARK    8  A    between atoms: C_21  and  C_24
REMARK    9  A    between atoms: C_24  and  C_25
REMARK   10  A    between atoms: C_25  and  C_26
REMARK                            x       y       z     vdW  Elec       q    Type
REMARK                         _______ _______ _______ _____ _____    ______ ____
ROOT
ATOM      1  C   UNL     1      -4.429  -4.420   0.021  0.00  0.00    +0.100 C 
ATOM      2  C   UNL     1      -5.109  -4.104   1.371  0.00  0.00    +0.121 C 
ATOM      3  N   UNL     1      -5.945  -5.293   1.657  0.00  0.00    -0.300 N 
ATOM      4  C   UNL     1      -5.115  -6.441   1.221  0.00  0.00    +0.115 C 
ATOM      5  C   UNL     1      -4.434  -5.955  -0.074  0.00  0.00    -0.004 C 
ATOM      6  C   UNL     1      -3.005  -6.485  -0.149  0.00  0.00    -0.010 C 
ATOM      7  C   UNL     1      -3.038  -8.008  -0.302  0.00  0.00    -0.082 C 
ATOM      8  N   UNL     1      -3.777  -8.365  -1.518  0.00  0.00    +0.379 N 
ATOM      9  C   UNL     1      -5.176  -7.933  -1.399  0.00  0.00    -0.082 C 
ATOM     10  C   UNL     1      -5.234  -6.407  -1.293  0.00  0.00    -0.010 C 
ATOM     11  C   UNL     1      -7.182  -5.324   2.193  0.00  0.00    +0.218 C 
ATOM     12  O   UNL     1      -7.741  -6.387   2.367  0.00  0.00    -0.275 OA
ATOM     13  H   UNL     1      -3.354  -7.910  -2.313  0.00  0.00    -0.086 HD
ATOM     14  H   UNL     1      -3.745  -9.365  -1.649  0.00  0.00    -0.086 HD
ENDROOT
BRANCH   1  16
ATOM     15  N   UNL     1      -2.440  -3.536  -1.153  0.00  0.00    -0.315 N 
ATOM     16  C   UNL     1      -3.015  -3.899   0.010  0.00  0.00    +0.218 C 
ATOM     17  O   UNL     1      -2.395  -3.806   1.048  0.00  0.00    -0.275 OA
ATOM     18  H   UNL     1      -2.935  -3.611  -1.984  0.00  0.00    +0.149 HD
BRANCH  15  19
ATOM     19  C   UNL     1      -1.065  -3.029  -1.164  0.00  0.00    +0.104 C 
BRANCH  19  20
ATOM     20  C   UNL     1      -0.657  -2.692  -2.599  0.00  0.00    +0.018 C 
BRANCH  20  22
ATOM     21  C   UNL     1       1.187  -1.826  -4.046  0.00  0.00    +0.004 C 
ATOM     22  C   UNL     1       0.779  -2.163  -2.610  0.00  0.00    -0.002 C 
ENDBRANCH  20  22
ENDBRANCH  19  20
ENDBRANCH  15  19
ENDBRANCH   1  16
BRANCH  11  23
ATOM     23  C   UNL     1      -7.870  -4.039   2.575  0.00  0.00    +0.072 C 
ATOM     24  C   UNL     1      -7.032  -3.304   3.623  0.00  0.00    +0.017 C 
BRANCH  23  25
ATOM     25  C   UNL     1      -9.251  -4.353   3.155  0.00  0.00    +0.012 C 
BRANCH  25  26
ATOM     26  C   UNL     1      -9.998  -3.046   3.428  0.00  0.00    -0.003 C 
ATOM     27  C   UNL     1     -11.379  -3.360   4.008  0.00  0.00    +0.004 C 
ENDBRANCH  25  26
ENDBRANCH  23  25
ENDBRANCH  11  23
TORSDOF 7
