REMARK  Name = ZINC53124463
REMARK  15 active torsions:
REMARK  status: ('A' for Active; 'I' for Inactive)
REMARK    1  A    between atoms: C_1  and  C_2
REMARK    2  A    between atoms: C_2  and  C_4
REMARK    3  A    between atoms: C_2  and  N_16
REMARK    4  A    between atoms: C_7  and  N_10
REMARK    5  A    between atoms: C_11  and  C_13
REMARK    6  A    between atoms: C_17  and  C_19
REMARK    7  A    between atoms: C_19  and  N_20
REMARK    8  A    between atoms: N_20  and  C_21
REMARK    9  A    between atoms: C_21  and  C_22
REMARK   10  A    between atoms: C_21  and  C_23
REMARK   11  A    between atoms: C_21  and  C_24
REMARK   12  A    between atoms: C_24  and  C_25
REMARK   13  A    between atoms: C_25  and  C_26
REMARK   14  A    between atoms: C_25  and  C_27
REMARK   15  A    between atoms: C_25  and  C_28
REMARK                            x       y       z     vdW  Elec       q    Type
REMARK                         _______ _______ _______ _____ _____    ______ ____
ROOT
ATOM      1  N   UNL     1      -1.727  -1.577  -1.088  0.00  0.00    -0.310 N 
ATOM      2  C   UNL     1      -2.829  -1.289  -1.808  0.00  0.00    +0.196 C 
ATOM      3  O   UNL     1      -2.722  -0.779  -2.903  0.00  0.00    -0.278 OA
ATOM      4  H   UNL     1      -1.813  -1.985  -0.212  0.00  0.00    +0.149 HD
ENDROOT
BRANCH   1   6
ATOM      5  C   UNL     1      -0.042   0.180  -1.319  0.00  0.00    +0.033 C 
ATOM      6  C   UNL     1      -0.399  -1.275  -1.628  0.00  0.00    +0.100 C 
BRANCH   6   7
ATOM      7  C   UNL     1       0.620  -2.188  -0.997  0.00  0.00    -0.027 A 
ATOM      8  C   UNL     1       0.532  -2.494   0.349  0.00  0.00    +0.007 A 
ATOM      9  C   UNL     1       1.464  -3.330   0.931  0.00  0.00    +0.023 A 
ATOM     10  C   UNL     1       2.491  -3.864   0.163  0.00  0.00    +0.033 A 
ATOM     11  C   UNL     1       2.576  -3.556  -1.188  0.00  0.00    +0.023 A 
ATOM     12  C   UNL     1       1.638  -2.723  -1.765  0.00  0.00    +0.007 A 
BRANCH  10  13
ATOM     13  N   UNL     1       3.437  -4.712   0.750  0.00  0.00    -0.285 N 
ATOM     14  C   UNL     1       3.057  -5.598   1.691  0.00  0.00    +0.220 C 
ATOM     15  O   UNL     1       1.881  -5.733   1.957  0.00  0.00    -0.275 OA
ATOM     16  H   UNL     1       4.367  -4.661   0.480  0.00  0.00    +0.155 HD
BRANCH  14  17
ATOM     17  C   UNL     1       4.091  -6.423   2.412  0.00  0.00    +0.075 C 
ATOM     18  C   UNL     1       4.122  -7.926   2.127  0.00  0.00    +0.013 C 
ATOM     19  C   UNL     1       3.596  -7.412   3.469  0.00  0.00    +0.013 C 
ENDBRANCH  14  17
ENDBRANCH  10  13
ENDBRANCH   6   7
ENDBRANCH   1   6
BRANCH   2  20
ATOM     20  C   UNL     1      -4.195  -1.599  -1.252  0.00  0.00    +0.016 C 
BRANCH  20  21
ATOM     21  N   UNL     1      -5.222  -1.193  -2.221  0.00  0.00    +0.388 N 
ATOM     22  H   UNL     1      -5.147  -0.202  -2.394  0.00  0.00    -0.084 HD
ATOM     23  H   UNL     1      -5.088  -1.697  -3.084  0.00  0.00    -0.084 HD
BRANCH  21  24
ATOM     24  C   UNL     1      -6.553  -1.496  -1.679  0.00  0.00    -0.073 C 
ATOM     25  C   UNL     1      -6.605  -2.962  -1.242  0.00  0.00    -0.010 C 
ATOM     26  C   UNL     1      -6.831  -0.595  -0.474  0.00  0.00    -0.010 C 
BRANCH  24  27
ATOM     27  C   UNL     1      -7.611  -1.248  -2.756  0.00  0.00    -0.007 C 
BRANCH  27  28
ATOM     28  C   UNL     1      -7.298   0.060  -3.487  0.00  0.00    -0.039 C 
ATOM     29  C   UNL     1      -6.142  -0.166  -4.464  0.00  0.00    +0.010 C 
ATOM     30  C   UNL     1      -8.535   0.522  -4.258  0.00  0.00    +0.010 C 
ATOM     31  C   UNL     1      -6.902   1.131  -2.468  0.00  0.00    +0.010 C 
ENDBRANCH  27  28
ENDBRANCH  24  27
ENDBRANCH  21  24
ENDBRANCH  20  21
ENDBRANCH   2  20
TORSDOF 9
