REMARK  Name = ZINC43287419
REMARK  12 active torsions:
REMARK  status: ('A' for Active; 'I' for Inactive)
REMARK    1  A    between atoms: C_1  and  C_2
REMARK    2  A    between atoms: C_2  and  C_4
REMARK    3  A    between atoms: C_2  and  N_21
REMARK    4  A    between atoms: C_4  and  C_6
REMARK    5  A    between atoms: C_4  and  N_12
REMARK    6  A    between atoms: N_12  and  C_13
REMARK    7  A    between atoms: N_12  and  C_14
REMARK    8  A    between atoms: C_14  and  C_15
REMARK    9  A    between atoms: C_15  and  C_17
REMARK   10  A    between atoms: C_15  and  O_20
REMARK   11  A    between atoms: C_17  and  O_18
REMARK   12  A    between atoms: O_18  and  C_19
REMARK                            x       y       z     vdW  Elec       q    Type
REMARK                         _______ _______ _______ _____ _____    ______ ____
ROOT
ATOM      1  C   UNL     1       0.175  -0.480   1.200  0.00  0.00    +0.079 C 
ENDROOT
BRANCH   1   2
ATOM      2  C   UNL     1       1.596  -0.060   1.477  0.00  0.00    +0.006 A 
ATOM      3  C   UNL     1       2.058   1.117   1.965  0.00  0.00    +0.028 A 
ATOM      4  C   UNL     1       3.420   1.282   2.140  0.00  0.00    +0.025 A 
ATOM      5  C   UNL     1       4.252   0.262   1.818  0.00  0.00    +0.060 A 
ATOM      6  S   UNL     1       3.106  -0.986   1.256  0.00  0.00    -0.099 S 
ATOM      7 BR   UNL     1       4.111   2.908   2.817  0.00  0.00    -0.050 Br
ENDBRANCH   1   2
BRANCH   1   9
ATOM      8  C   UNL     1       0.063   0.936  -0.856  0.00  0.00    -0.012 C 
ATOM      9  C   UNL     1      -0.068  -0.487  -0.311  0.00  0.00    -0.056 C 
BRANCH   9  10
ATOM     10  N   UNL     1      -1.419  -0.994  -0.586  0.00  0.00    +0.381 N 
ATOM     11  H   UNL     1      -1.628  -0.881  -1.567  0.00  0.00    -0.090 HD
ATOM     12  H   UNL     1      -1.468  -1.972  -0.343  0.00  0.00    -0.090 HD
ATOM     13  H   UNL     1      -2.091  -0.478  -0.037  0.00  0.00    -0.090 HD
ENDBRANCH   9  10
ENDBRANCH   1   9
BRANCH   1  14
ATOM     14  N   UNL     1      -0.051  -1.828   1.739  0.00  0.00    -0.297 NA
ATOM     15  C   UNL     1       0.531  -2.851   0.860  0.00  0.00    +0.105 C 
BRANCH  14  16
ATOM     16  C   UNL     1      -1.482  -2.074   1.958  0.00  0.00    +0.118 C 
BRANCH  16  17
ATOM     17  C   UNL     1      -1.935  -1.352   3.229  0.00  0.00    +0.154 C 
BRANCH  17  18
ATOM     18  O   UNL     1      -1.293  -1.937   4.364  0.00  0.00    -0.388 OA
ATOM     19  H   UNL     1      -1.487  -2.876   4.484  0.00  0.00    +0.210 HD
ENDBRANCH  17  18
BRANCH  17  20
ATOM     20  C   UNL     1      -3.452  -1.483   3.377  0.00  0.00    +0.192 C 
BRANCH  20  21
ATOM     21  O   UNL     1      -3.890  -0.713   4.498  0.00  0.00    -0.380 OA
ATOM     22  C   UNL     1      -5.300  -0.767   4.726  0.00  0.00    +0.194 C 
ENDBRANCH  20  21
ENDBRANCH  17  20
ENDBRANCH  16  17
ENDBRANCH  14  16
ENDBRANCH   1  14
TORSDOF 9
