REMARK  Name = ZINC63270360
REMARK  7 active torsions:
REMARK  status: ('A' for Active; 'I' for Inactive)
REMARK    1  A    between atoms: C_1  and  O_2
REMARK    2  A    between atoms: O_2  and  C_3
REMARK    3  A    between atoms: C_9  and  C_12
REMARK    4  A    between atoms: C_12  and  C_13
REMARK    5  A    between atoms: C_13  and  N_14
REMARK    6  A    between atoms: C_15  and  C_17
REMARK    7  A    between atoms: C_21  and  N_23
REMARK                            x       y       z     vdW  Elec       q    Type
REMARK                         _______ _______ _______ _____ _____    ______ ____
ROOT
ATOM      1  C   UNL     1       2.202  -8.510  -1.688  0.00  0.00    +0.038 A 
ATOM      2  C   UNL     1       0.904  -9.002  -1.547  0.00  0.00    +0.013 A 
ATOM      3  C   UNL     1       0.487 -10.078  -2.305  0.00  0.00    +0.003 A 
ATOM      4  C   UNL     1       1.353 -10.671  -3.205  0.00  0.00    +0.024 A 
ATOM      5  C   UNL     1       2.647 -10.189  -3.353  0.00  0.00    +0.046 A 
ATOM      6  C   UNL     1       3.073  -9.105  -2.601  0.00  0.00    +0.037 A 
ENDROOT
BRANCH   5   7
ATOM      7  N   UNL     1       3.521 -10.794  -4.267  0.00  0.00    -0.193 N 
ATOM      8  C   UNL     1       4.752 -10.329  -4.561  0.00  0.00    +0.248 C 
ATOM      9  O   UNL     1       5.283  -9.335  -4.113  0.00  0.00    -0.273 OA
ATOM     10  C   UNL     1       5.335 -11.303  -5.564  0.00  0.00    +0.169 C 
ATOM     11  C   UNL     1       5.587 -10.592  -6.894  0.00  0.00    +0.067 C 
ATOM     12  C   UNL     1       5.615 -11.574  -8.036  0.00  0.00    -0.040 A 
ATOM     13  C   UNL     1       6.292 -11.183  -9.188  0.00  0.00    +0.004 A 
ATOM     14  C   UNL     1       6.356 -12.015 -10.285  0.00  0.00    +0.000 A 
ATOM     15  C   UNL     1       5.740 -13.252 -10.247  0.00  0.00    +0.000 A 
ATOM     16  C   UNL     1       5.072 -13.646  -9.106  0.00  0.00    +0.005 A 
ATOM     17  C   UNL     1       5.015 -12.812  -7.998  0.00  0.00    -0.027 A 
ATOM     18  C   UNL     1       4.297 -13.330  -6.773  0.00  0.00    +0.145 C 
ATOM     19  N   UNL     1       4.225 -12.259  -5.779  0.00  0.00    -0.269 N 
ATOM     20  C   UNL     1       3.237 -11.911  -4.953  0.00  0.00    +0.317 C 
ATOM     21  O   UNL     1       2.198 -12.532  -4.839  0.00  0.00    -0.252 OA
ENDBRANCH   5   7
BRANCH   1  23
ATOM     22  N   UNL     1       1.808  -6.785   0.004  0.00  0.00    -0.311 N 
ATOM     23  C   UNL     1       2.651  -7.358  -0.878  0.00  0.00    +0.244 C 
ATOM     24  O   UNL     1       3.781  -6.928  -1.006  0.00  0.00    -0.270 OA
ATOM     25  H   UNL     1       0.907  -7.128   0.106  0.00  0.00    +0.149 HD
BRANCH  22  26
ATOM     26  C   UNL     1       2.253  -5.643   0.807  0.00  0.00    +0.109 C 
BRANCH  26  27
ATOM     27  C   UNL     1       1.113  -5.186   1.719  0.00  0.00    +0.052 C 
BRANCH  27  34
ATOM     28  C   UNL     1       0.710  -0.647   1.141  0.00  0.00    +0.121 A 
ATOM     29  C   UNL     1       1.287   0.124   2.165  0.00  0.00    +0.047 A 
ATOM     30  C   UNL     1       1.908  -0.428   3.229  0.00  0.00    +0.029 A 
ATOM     31  C   UNL     1       1.997  -1.887   3.344  0.00  0.00    +0.043 A 
ATOM     32  N   UNL     1       2.533  -2.663   4.252  0.00  0.00    -0.380 N 
ATOM     33  C   UNL     1       2.326  -4.061   3.854  0.00  0.00    +0.144 C 
ATOM     34  C   UNL     1       1.571  -4.012   2.545  0.00  0.00    -0.040 C 
ATOM     35  C   UNL     1       1.389  -2.701   2.266  0.00  0.00    +0.002 A 
ATOM     36  C   UNL     1       0.733  -2.002   1.155  0.00  0.00    +0.055 A 
ATOM     37  H   UNL     1       2.991  -2.365   5.054  0.00  0.00    +0.160 HD
BRANCH  28  39
ATOM     38  C   UNL     1       0.102   1.416   0.129  0.00  0.00    +0.277 C 
ATOM     39  O   UNL     1       0.103  -0.013   0.104  0.00  0.00    -0.495 OA
ENDBRANCH  28  39
ENDBRANCH  27  34
ENDBRANCH  26  27
ENDBRANCH  22  26
ENDBRANCH   1  23
TORSDOF 6
