REMARK  Name = ZINC09174653
REMARK  6 active torsions:
REMARK  status: ('A' for Active; 'I' for Inactive)
REMARK    1  A    between atoms: C_1  and  C_2
REMARK    2  A    between atoms: C_2  and  C_3
REMARK    3  A    between atoms: C_2  and  N_48
REMARK    4  A    between atoms: C_9  and  N_14
REMARK    5  A    between atoms: C_10  and  C_11
REMARK    6  A    between atoms: C_15  and  C_17
REMARK                            x       y       z     vdW  Elec       q    Type
REMARK                         _______ _______ _______ _____ _____    ______ ____
ROOT
ATOM      1  C   UNL     1      10.996  -3.572   5.078  0.00  0.00    -0.073 C 
ATOM      2  C   UNL     1       9.521  -3.983   5.101  0.00  0.00    +0.018 C 
ATOM      3  C   UNL     1       8.709  -2.880   4.432  0.00  0.00    -0.027 A 
ATOM      4  C   UNL     1       9.245  -1.649   4.267  0.00  0.00    -0.021 A 
ATOM      5  S   UNL     1       7.983  -0.713   3.454  0.00  0.00    -0.079 S 
ATOM      6  C   UNL     1       6.757  -1.933   3.345  0.00  0.00    +0.085 A 
ATOM      7  C   UNL     1       7.357  -3.039   3.933  0.00  0.00    +0.068 A 
ATOM      8  C   UNL     1      10.613  -1.211   4.688  0.00  0.00    -0.035 C 
ATOM      9  N   UNL     1      11.135  -2.215   5.647  0.00  0.00    +0.384 N 
ATOM     10  H   UNL     1      10.592  -2.160   6.517  0.00  0.00    -0.081 HD
ENDROOT
BRANCH   7  11
ATOM     11  C   UNL     1       6.650  -4.319   4.045  0.00  0.00    +0.244 C 
ATOM     12  O   UNL     1       6.737  -5.142   3.153  0.00  0.00    -0.270 OA
ATOM     13  N   UNL     1       5.904  -4.583   5.136  0.00  0.00    -0.325 N 
ATOM     14  H   UNL     1       5.834  -3.927   5.847  0.00  0.00    +0.145 HD
ATOM     15  H   UNL     1       5.436  -5.430   5.210  0.00  0.00    +0.145 HD
ENDBRANCH   7  11
BRANCH   6  16
ATOM     16  N   UNL     1       5.488  -1.831   2.798  0.00  0.00    -0.275 N 
ATOM     17  C   UNL     1       5.075  -0.663   2.266  0.00  0.00    +0.249 C 
ATOM     18  O   UNL     1       5.816   0.301   2.267  0.00  0.00    -0.270 OA
ATOM     19  H   UNL     1       4.897  -2.600   2.797  0.00  0.00    +0.156 HD
BRANCH  17  20
ATOM     20  C   UNL     1       3.724  -0.555   1.684  0.00  0.00    +0.041 A 
ATOM     21  C   UNL     1       2.871  -1.661   1.682  0.00  0.00    +0.017 A 
ATOM     22  C   UNL     1       1.609  -1.558   1.138  0.00  0.00    +0.050 A 
ATOM     23  C   UNL     1       1.181  -0.357   0.590  0.00  0.00    +0.166 A 
ATOM     24  C   UNL     1       2.028   0.752   0.588  0.00  0.00    +0.167 A 
ATOM     25  C   UNL     1       3.294   0.655   1.132  0.00  0.00    +0.062 A 
ATOM     26  O   UNL     1       1.376   1.797  -0.001  0.00  0.00    -0.453 OA
ATOM     27  C   UNL     1      -0.017   1.435   0.010  0.00  0.00    +0.466 C 
ATOM     28  O   UNL     1       0.002  -0.004   0.002  0.00  0.00    -0.453 OA
ENDBRANCH  17  20
ENDBRANCH   6  16
BRANCH   9  30
ATOM     29  C   UNL     1      13.394  -1.991   4.669  0.00  0.00    -0.014 C 
ATOM     30  C   UNL     1      12.556  -1.936   5.948  0.00  0.00    -0.074 C 
ATOM     31  C   UNL     1      12.668  -0.544   6.572  0.00  0.00    -0.014 C 
ENDBRANCH   9  30
TORSDOF 4
