REMARK  Name = ZINC59447233
REMARK  9 active torsions:
REMARK  status: ('A' for Active; 'I' for Inactive)
REMARK    1  A    between atoms: C_3  and  N_24
REMARK    2  A    between atoms: C_6  and  N_7
REMARK    3  A    between atoms: N_7  and  C_8
REMARK    4  A    between atoms: C_8  and  C_9
REMARK    5  A    between atoms: C_9  and  C_10
REMARK    6  A    between atoms: C_10  and  N_11
REMARK    7  A    between atoms: N_11  and  C_12
REMARK    8  A    between atoms: C_12  and  C_13
REMARK    9  A    between atoms: N_15  and  C_16
REMARK                            x       y       z     vdW  Elec       q    Type
REMARK                         _______ _______ _______ _____ _____    ______ ____
ROOT
ATOM      1  N   UNL     1      -3.964  -4.757   0.013  0.00  0.00    +0.385 N 
ATOM      2  H   UNL     1      -4.431  -4.434   0.847  0.00  0.00    -0.085 HD
ATOM      3  H   UNL     1      -4.459  -4.421  -0.800  0.00  0.00    -0.085 HD
ENDROOT
BRANCH   1   4
ATOM      4  C   UNL     1      -2.587  -4.247  -0.006  0.00  0.00    -0.080 C 
BRANCH   4   5
ATOM      5  C   UNL     1      -2.609  -2.717   0.006  0.00  0.00    -0.000 C 
BRANCH   5   6
ATOM      6  C   UNL     1      -1.175  -2.186  -0.014  0.00  0.00    +0.099 C 
BRANCH   6   7
ATOM      7  N   UNL     1      -1.196  -0.721  -0.002  0.00  0.00    -0.344 N 
ATOM      8  H   UNL     1      -2.043  -0.248   0.016  0.00  0.00    +0.146 HD
BRANCH   7  14
ATOM      9  C   UNL     1      -0.016   1.384  -0.005  0.00  0.00    +0.025 A 
ATOM     10  C   UNL     1       1.171   2.090  -0.019  0.00  0.00    +0.034 A 
ATOM     11  C   UNL     1       2.378   1.414  -0.045  0.00  0.00    +0.126 A 
ATOM     12  C   UNL     1       2.400   0.032  -0.057  0.00  0.00    +0.034 A 
ATOM     13  C   UNL     1       1.216  -0.680  -0.043  0.00  0.00    +0.025 A 
ATOM     14  C   UNL     1       0.003  -0.005  -0.017  0.00  0.00    +0.027 A 
BRANCH  11  15
ATOM     15  N   UNL     1       3.649   2.173  -0.061  0.00  0.00    +0.056 N 
ATOM     16  O   UNL     1       3.631   3.382  -0.051  0.00  0.00    -0.126 OA
ATOM     17  O   UNL     1       4.704   1.584  -0.083  0.00  0.00    -0.126 OA
ENDBRANCH  11  15
ENDBRANCH   7  14
ENDBRANCH   6   7
ENDBRANCH   5   6
ENDBRANCH   4   5
ENDBRANCH   1   4
BRANCH   1  18
ATOM     18  C   UNL     1      -3.943  -6.226   0.001  0.00  0.00    +0.015 C 
BRANCH  18  19
ATOM     19  C   UNL     1      -5.356  -6.749   0.021  0.00  0.00    +0.200 C 
ATOM     20  O   UNL     1      -6.289  -5.975   0.043  0.00  0.00    -0.278 OA
ATOM     21  N   UNL     1      -5.582  -8.078   0.014  0.00  0.00    -0.287 N 
ATOM     22  H   UNL     1      -4.840  -8.696  -0.071  0.00  0.00    +0.155 HD
BRANCH  21  23
ATOM     23  C   UNL     1      -6.889  -8.565   0.130  0.00  0.00    +0.035 A 
ATOM     24  C   UNL     1      -7.134  -9.741   0.828  0.00  0.00    +0.025 A 
ATOM     25  C   UNL     1      -8.424 -10.220   0.942  0.00  0.00    +0.023 A 
ATOM     26  C   UNL     1      -9.474  -9.530   0.361  0.00  0.00    +0.059 A 
ATOM     27  C   UNL     1      -9.233  -8.358  -0.335  0.00  0.00    +0.061 A 
ATOM     28  C   UNL     1      -7.944  -7.871  -0.447  0.00  0.00    +0.044 A 
ATOM     29 CL   UNL     1     -10.552  -7.495  -1.063  0.00  0.00    -0.082 Cl
ATOM     30 CL   UNL     1     -11.094 -10.135   0.506  0.00  0.00    -0.082 Cl
ENDBRANCH  21  23
ENDBRANCH  18  19
ENDBRANCH   1  18
TORSDOF 9
