REMARK  Name = ZINC18240764
REMARK  4 active torsions:
REMARK  status: ('A' for Active; 'I' for Inactive)
REMARK    1  A    between atoms: C_8  and  C_12
REMARK    2  A    between atoms: C_12  and  C_13
REMARK    3  A    between atoms: C_12  and  C_19
REMARK    4  A    between atoms: C_20  and  O_30
REMARK                            x       y       z     vdW  Elec       q    Type
REMARK                         _______ _______ _______ _____ _____    ______ ____
ROOT
ATOM      1  C   UNL     1       2.677  -4.256  -0.047  0.00  0.00    +0.097 C 
ENDROOT
BRANCH   1   9
ATOM      2  C   UNL     1       4.143   0.962   3.046  0.00  0.00    +0.001 A 
ATOM      3  C   UNL     1       5.390   1.121   2.459  0.00  0.00    +0.002 A 
ATOM      4  C   UNL     1       5.846   0.220   1.522  0.00  0.00    +0.026 A 
ATOM      5  C   UNL     1       5.052  -0.863   1.159  0.00  0.00    +0.053 A 
ATOM      6  C   UNL     1       3.789  -1.023   1.754  0.00  0.00    +0.045 A 
ATOM      7  C   UNL     1       3.341  -0.102   2.700  0.00  0.00    +0.014 A 
ATOM      8  C   UNL     1       2.962  -2.178   1.355  0.00  0.00    +0.197 A 
ATOM      9  C   UNL     1       3.484  -3.062   0.394  0.00  0.00    +0.076 A 
ATOM     10  C   UNL     1       4.717  -2.841  -0.139  0.00  0.00    +0.257 A 
ATOM     11  N   UNL     1       5.485  -1.780   0.223  0.00  0.00    -0.322 N 
ATOM     12  O   UNL     1       5.195  -3.707  -1.059  0.00  0.00    -0.267 OA
ATOM     13  O   UNL     1       1.859  -2.360   1.844  0.00  0.00    -0.287 OA
ATOM     14  H   UNL     1       6.357  -1.665  -0.185  0.00  0.00    +0.169 HD
ENDBRANCH   1   9
BRANCH   1  15
ATOM     15  C   UNL     1       1.689  -3.833  -1.103  0.00  0.00    +0.071 A 
ATOM     16  C   UNL     1       1.593  -2.517  -1.457  0.00  0.00    +0.135 A 
ATOM     17  C   UNL     1       0.619  -2.142  -2.491  0.00  0.00    +0.040 A 
ATOM     18  C   UNL     1       0.471  -0.814  -2.899  0.00  0.00    +0.013 A 
ATOM     19  C   UNL     1      -0.444  -0.499  -3.864  0.00  0.00    +0.001 A 
ATOM     20  C   UNL     1      -1.228  -1.488  -4.442  0.00  0.00    +0.002 A 
ATOM     21  C   UNL     1      -1.098  -2.804  -4.055  0.00  0.00    +0.026 A 
ATOM     22  C   UNL     1      -0.173  -3.147  -3.075  0.00  0.00    +0.053 A 
ATOM     23  N   UNL     1      -0.021  -4.457  -2.669  0.00  0.00    -0.322 N 
ATOM     24  C   UNL     1       0.876  -4.792  -1.726  0.00  0.00    +0.257 A 
ATOM     25  O   UNL     1       0.982  -5.962  -1.398  0.00  0.00    -0.267 OA
ATOM     26  H   UNL     1      -0.569  -5.148  -3.073  0.00  0.00    +0.169 HD
BRANCH  16  27
ATOM     27  O   UNL     1       2.374  -1.582  -0.869  0.00  0.00    -0.506 OA
ATOM     28  H   UNL     1       2.224  -0.683  -1.194  0.00  0.00    +0.292 HD
ENDBRANCH  16  27
ENDBRANCH   1  15
BRANCH   1  29
ATOM     29  C   UNL     1       1.935  -4.825   1.135  0.00  0.00    -0.032 A 
ATOM     30  C   UNL     1       0.562  -4.673   1.251  0.00  0.00    +0.024 A 
ATOM     31  C   UNL     1      -0.085  -5.208   2.349  0.00  0.00    +0.111 A 
ATOM     32  N   UNL     1       0.590  -5.856   3.280  0.00  0.00    -0.263 NA
ATOM     33  C   UNL     1       1.896  -6.019   3.202  0.00  0.00    +0.111 A 
ATOM     34  C   UNL     1       2.609  -5.516   2.130  0.00  0.00    +0.024 A 
ENDBRANCH   1  29
TORSDOF 4
