REMARK  Name = ZINC40722470
REMARK  12 active torsions:
REMARK  status: ('A' for Active; 'I' for Inactive)
REMARK    1  A    between atoms: C_1  and  O_2
REMARK    2  A    between atoms: O_2  and  C_3
REMARK    3  A    between atoms: C_8  and  C_9
REMARK    4  A    between atoms: C_9  and  C_10
REMARK    5  A    between atoms: C_10  and  N_11
REMARK    6  A    between atoms: N_11  and  C_12
REMARK    7  A    between atoms: C_12  and  C_13
REMARK    8  A    between atoms: C_17  and  O_29
REMARK    9  A    between atoms: C_18  and  O_19
REMARK   10  A    between atoms: O_19  and  C_20
REMARK   11  A    between atoms: C_20  and  C_21
REMARK   12  A    between atoms: O_29  and  C_30
REMARK                            x       y       z     vdW  Elec       q    Type
REMARK                         _______ _______ _______ _____ _____    ______ ____
ROOT
ATOM      1  C   UNL     1       3.536  -4.760   2.761  0.00  0.00    -0.019 A 
ATOM      2  C   UNL     1       3.504  -6.110   3.059  0.00  0.00    +0.005 A 
ATOM      3  C   UNL     1       4.670  -6.852   3.045  0.00  0.00    +0.004 A 
ATOM      4  C   UNL     1       5.874  -6.247   2.734  0.00  0.00    +0.049 A 
ATOM      5  C   UNL     1       5.913  -4.895   2.435  0.00  0.00    +0.162 A 
ATOM      6  C   UNL     1       4.738  -4.149   2.443  0.00  0.00    +0.164 A 
ENDROOT
BRANCH   5   7
ATOM      7  O   UNL     1       7.096  -4.298   2.130  0.00  0.00    -0.491 OA
ATOM      8  C   UNL     1       8.261  -5.126   2.135  0.00  0.00    +0.277 C 
ENDBRANCH   5   7
BRANCH   1   9
ATOM      9  C   UNL     1       2.262  -3.955   2.777  0.00  0.00    -0.043 C 
BRANCH   9  10
ATOM     10  N   UNL     1       1.771  -3.788   1.403  0.00  0.00    +0.382 N 
ATOM     11  H   UNL     1       1.591  -4.694   0.998  0.00  0.00    -0.085 HD
ATOM     12  H   UNL     1       2.467  -3.306   0.854  0.00  0.00    -0.085 HD
BRANCH  10  13
ATOM     13  C   UNL     1       0.530  -3.003   1.419  0.00  0.00    -0.077 C 
BRANCH  13  14
ATOM     14  C   UNL     1       0.018  -2.829  -0.013  0.00  0.00    +0.020 C 
BRANCH  14  20
ATOM     15  C   UNL     1      -1.200  -0.637   0.010  0.00  0.00    +0.123 A 
ATOM     16  C   UNL     1      -2.375   0.101   0.019  0.00  0.00    +0.046 A 
ATOM     17  C   UNL     1      -3.596  -0.545   0.027  0.00  0.00    +0.004 A 
ATOM     18  C   UNL     1      -3.648  -1.927   0.026  0.00  0.00    +0.000 A 
ATOM     19  C   UNL     1      -2.479  -2.665   0.017  0.00  0.00    +0.007 A 
ATOM     20  C   UNL     1      -1.255  -2.023   0.003  0.00  0.00    -0.007 A 
BRANCH  15  22
ATOM     21  C   UNL     1      -0.017   1.425   0.010  0.00  0.00    +0.277 C 
ATOM     22  O   UNL     1       0.002  -0.004   0.002  0.00  0.00    -0.495 OA
ENDBRANCH  15  22
ENDBRANCH  14  20
ENDBRANCH  13  14
ENDBRANCH  10  13
ENDBRANCH   9  10
ENDBRANCH   1   9
BRANCH   6  23
ATOM     23  O   UNL     1       4.770  -2.823   2.145  0.00  0.00    -0.483 OA
BRANCH  23  24
ATOM     24  C   UNL     1       4.973  -1.918   3.232  0.00  0.00    +0.269 C 
BRANCH  24  25
ATOM     25  C   UNL     1       4.979  -0.503   2.714  0.00  0.00    +0.043 A 
ATOM     26  C   UNL     1       6.167   0.079   2.304  0.00  0.00    +0.131 A 
ATOM     27  C   UNL     1       6.171   1.379   1.828  0.00  0.00    +0.039 A 
ATOM     28  C   UNL     1       4.990   2.095   1.762  0.00  0.00    +0.004 A 
ATOM     29  C   UNL     1       3.805   1.514   2.171  0.00  0.00    +0.020 A 
ATOM     30  C   UNL     1       3.798   0.213   2.642  0.00  0.00    +0.050 A 
ATOM     31 CL   UNL     1       2.307  -0.519   3.148  0.00  0.00    -0.083 Cl
ATOM     32  F   UNL     1       7.320  -0.621   2.369  0.00  0.00    -0.205 F 
ENDBRANCH  24  25
ENDBRANCH  23  24
ENDBRANCH   6  23
TORSDOF 10
