REMARK  Name = ZINC32123844
REMARK  8 active torsions:
REMARK  status: ('A' for Active; 'I' for Inactive)
REMARK    1  A    between atoms: C_1  and  N_2
REMARK    2  A    between atoms: C_7  and  O_32
REMARK    3  A    between atoms: C_10  and  N_11
REMARK    4  A    between atoms: C_12  and  C_14
REMARK    5  A    between atoms: C_17  and  C_19
REMARK    6  A    between atoms: C_19  and  O_20
REMARK    7  A    between atoms: O_20  and  C_21
REMARK    8  A    between atoms: O_32  and  C_33
REMARK                            x       y       z     vdW  Elec       q    Type
REMARK                         _______ _______ _______ _____ _____    ______ ____
ROOT
ATOM      1  N   UNL     1      -5.232  -3.942   2.974  0.00  0.00    -0.276 N 
ATOM      2  C   UNL     1      -5.062  -2.655   2.611  0.00  0.00    +0.284 C 
ATOM      3  O   UNL     1      -5.843  -1.806   2.998  0.00  0.00    -0.266 OA
ATOM      4  H   UNL     1      -4.577  -4.722   2.559  0.00  0.00    +0.155 HD
ENDROOT
BRANCH   1  14
ATOM      5  C   UNL     1      -4.945  -5.064   9.293  0.00  0.00    -0.096 C 
ATOM      6  N   UNL     1      -5.232  -5.028   7.853  0.00  0.00    +0.381 N 
ATOM      7  C   UNL     1      -4.485  -3.944   7.194  0.00  0.00    -0.074 C 
ATOM      8  C   UNL     1      -4.526  -4.175   5.683  0.00  0.00    +0.019 C 
ATOM      9  C   UNL     1      -5.947  -4.409   5.236  0.00  0.00    -0.019 A 
ATOM     10  C   UNL     1      -6.941  -4.743   6.131  0.00  0.00    -0.014 A 
ATOM     11  C   UNL     1      -8.237  -4.962   5.676  0.00  0.00    +0.167 A 
ATOM     12  C   UNL     1      -8.539  -4.844   4.326  0.00  0.00    +0.210 A 
ATOM     13  C   UNL     1      -7.540  -4.499   3.425  0.00  0.00    +0.191 A 
ATOM     14  C   UNL     1      -6.244  -4.287   3.882  0.00  0.00    +0.083 A 
ATOM     15  O   UNL     1      -8.079  -4.450   2.171  0.00  0.00    -0.451 OA
ATOM     16  C   UNL     1      -9.329  -5.160   2.260  0.00  0.00    +0.467 C 
ATOM     17  O   UNL     1      -9.710  -5.006   3.640  0.00  0.00    -0.449 OA
ATOM     18  C   UNL     1      -6.669  -4.875   7.607  0.00  0.00    -0.039 C 
ATOM     19  H   UNL     1      -4.909  -5.988   7.424  0.00  0.00    -0.082 HD
BRANCH  11  20
ATOM     20  O   UNL     1      -9.216  -5.294   6.561  0.00  0.00    -0.491 OA
ATOM     21  C   UNL     1      -9.950  -4.219   7.150  0.00  0.00    +0.277 C 
ENDBRANCH  11  20
ENDBRANCH   1  14
BRANCH   2  22
ATOM     22  C   UNL     1      -3.937  -2.280   1.749  0.00  0.00    +0.190 A 
ATOM     23  C   UNL     1      -3.651  -1.019   1.308  0.00  0.00    +0.055 A 
ATOM     24  C   UNL     1      -2.493  -1.121   0.520  0.00  0.00    +0.049 A 
ATOM     25  C   UNL     1      -2.133  -2.423   0.509  0.00  0.00    +0.143 A 
ATOM     26  O   UNL     1      -3.004  -3.118   1.253  0.00  0.00    -0.452 OA
BRANCH  25  27
ATOM     27  C   UNL     1      -0.944  -2.999  -0.216  0.00  0.00    +0.303 C 
BRANCH  27  28
ATOM     28  O   UNL     1       0.197  -2.973   0.645  0.00  0.00    -0.484 OA
BRANCH  28  29
ATOM     29  C   UNL     1       1.362  -3.460   0.141  0.00  0.00    +0.123 A 
ATOM     30  C   UNL     1       1.405  -3.952  -1.156  0.00  0.00    +0.048 A 
ATOM     31  C   UNL     1       2.589  -4.446  -1.667  0.00  0.00    +0.043 A 
ATOM     32  C   UNL     1       3.733  -4.452  -0.887  0.00  0.00    +0.142 A 
ATOM     33  C   UNL     1       3.692  -3.961   0.408  0.00  0.00    +0.080 A 
ATOM     34  C   UNL     1       2.508  -3.465   0.922  0.00  0.00    +0.068 A 
ATOM     35 CL   UNL     1       5.127  -3.967   1.384  0.00  0.00    -0.080 Cl
ATOM     36  F   UNL     1       4.890  -4.935  -1.389  0.00  0.00    -0.204 F 
ENDBRANCH  28  29
ENDBRANCH  27  28
ENDBRANCH  25  27
ENDBRANCH   2  22
TORSDOF 6
