REMARK  Name = ZINC25777302
REMARK  9 active torsions:
REMARK  status: ('A' for Active; 'I' for Inactive)
REMARK    1  A    between atoms: C_1  and  O_2
REMARK    2  A    between atoms: O_2  and  C_3
REMARK    3  A    between atoms: C_6  and  C_9
REMARK    4  A    between atoms: C_9  and  C_11
REMARK    5  A    between atoms: C_9  and  N_36
REMARK    6  A    between atoms: C_11  and  N_12
REMARK    7  A    between atoms: C_13  and  C_15
REMARK    8  A    between atoms: N_26  and  C_29
REMARK    9  A    between atoms: C_29  and  C_30
REMARK                            x       y       z     vdW  Elec       q    Type
REMARK                         _______ _______ _______ _____ _____    ______ ____
ROOT
ATOM      1  C   UNL     1      -1.314  -0.735   0.089  0.00  0.00    +0.052 A 
ATOM      2  C   UNL     1      -1.798  -1.151   1.353  0.00  0.00    +0.013 A 
ATOM      3  C   UNL     1      -1.094  -0.880   2.534  0.00  0.00    +0.011 A 
ATOM      4  C   UNL     1      -1.597  -1.298   3.729  0.00  0.00    +0.001 A 
ATOM      5  C   UNL     1      -2.803  -1.991   3.793  0.00  0.00    +0.002 A 
ATOM      6  C   UNL     1      -3.513  -2.272   2.666  0.00  0.00    +0.028 A 
ATOM      7  C   UNL     1      -3.025  -1.857   1.413  0.00  0.00    +0.072 A 
ATOM      8  N   UNL     1      -3.696  -2.118   0.291  0.00  0.00    -0.251 NA
ATOM      9  C   UNL     1      -3.265  -1.742  -0.895  0.00  0.00    +0.048 A 
ATOM     10  C   UNL     1      -2.074  -1.037  -1.037  0.00  0.00    +0.001 A 
ATOM     11  C   UNL     1      -1.565  -0.593  -2.382  0.00  0.00    +0.122 C 
ATOM     12  N   UNL     1      -2.239  -1.330  -3.456  0.00  0.00    -0.294 NA
ATOM     13  C   UNL     1      -3.698  -1.244  -3.294  0.00  0.00    +0.091 C 
ATOM     14  C   UNL     1      -4.107  -2.099  -2.096  0.00  0.00    +0.071 C 
ENDROOT
BRANCH   1  16
ATOM     15  N   UNL     1      -0.035   1.353   0.026  0.00  0.00    -0.313 N 
ATOM     16  C   UNL     1      -0.039   0.006  -0.031  0.00  0.00    +0.245 C 
ATOM     17  O   UNL     1       1.004  -0.600  -0.181  0.00  0.00    -0.270 OA
ATOM     18  H   UNL     1      -0.979   1.901   0.162  0.00  0.00    +0.149 HD
BRANCH  15  19
ATOM     19  C   UNL     1       1.228   2.086  -0.093  0.00  0.00    +0.094 C 
BRANCH  19  20
ATOM     20  C   UNL     1       0.944   3.590  -0.113  0.00  0.00    -0.020 C 
BRANCH  20  24
ATOM     21  C   UNL     1      -0.681   4.784   3.654  0.00  0.00    +0.120 A 
ATOM     22  C   UNL     1      -1.521   4.575   2.570  0.00  0.00    +0.046 A 
ATOM     23  C   UNL     1      -0.993   4.189   1.353  0.00  0.00    +0.005 A 
ATOM     24  C   UNL     1       0.371   4.011   1.215  0.00  0.00    -0.059 A 
ATOM     25  C   UNL     1       1.210   4.213   2.296  0.00  0.00    +0.005 A 
ATOM     26  C   UNL     1       0.688   4.605   3.513  0.00  0.00    +0.046 A 
BRANCH  21  28
ATOM     27  C   UNL     1      -0.274   5.361   5.924  0.00  0.00    +0.277 C 
ATOM     28  O   UNL     1      -1.198   5.163   4.853  0.00  0.00    -0.495 OA
ENDBRANCH  21  28
ENDBRANCH  20  24
BRANCH  20  29
ATOM     29  N   UNL     1       2.194   4.320  -0.362  0.00  0.00    +0.385 N 
ATOM     30  C   UNL     1       2.804   3.909  -1.652  0.00  0.00    -0.078 C 
ATOM     31  C   UNL     1       3.748   5.090  -1.991  0.00  0.00    -0.020 C 
ATOM     32  C   UNL     1       2.945   6.322  -1.512  0.00  0.00    -0.020 C 
ATOM     33  C   UNL     1       1.944   5.773  -0.479  0.00  0.00    -0.078 C 
ATOM     34  H   UNL     1       2.849   4.091   0.492  0.00  0.00    -0.081 HD
ENDBRANCH  20  29
ENDBRANCH  19  20
ENDBRANCH  15  19
ENDBRANCH   1  16
BRANCH  12  35
ATOM     35  C   UNL     1      -1.825  -0.833  -4.775  0.00  0.00    +0.120 C 
BRANCH  35  36
ATOM     36  C   UNL     1      -2.360  -1.748  -5.847  0.00  0.00    -0.033 A 
ATOM     37  C   UNL     1      -1.605  -2.823  -6.278  0.00  0.00    +0.005 A 
ATOM     38  C   UNL     1      -2.097  -3.666  -7.257  0.00  0.00    +0.000 A 
ATOM     39  C   UNL     1      -3.340  -3.427  -7.813  0.00  0.00    +0.000 A 
ATOM     40  C   UNL     1      -4.093  -2.349  -7.386  0.00  0.00    +0.000 A 
ATOM     41  C   UNL     1      -3.602  -1.509  -6.403  0.00  0.00    +0.005 A 
ENDBRANCH  35  36
ENDBRANCH  12  35
TORSDOF 8
