REMARK  Name = ZINC33027415
REMARK  12 active torsions:
REMARK  status: ('A' for Active; 'I' for Inactive)
REMARK    1  A    between atoms: C_1  and  C_2
REMARK    2  A    between atoms: C_2  and  N_3
REMARK    3  A    between atoms: N_3  and  C_4
REMARK    4  A    between atoms: C_4  and  C_5
REMARK    5  A    between atoms: C_8  and  N_13
REMARK    6  A    between atoms: C_10  and  C_12
REMARK    7  A    between atoms: N_13  and  C_14
REMARK    8  A    between atoms: C_17  and  N_20
REMARK    9  A    between atoms: N_20  and  S_21
REMARK   10  A    between atoms: S_21  and  C_24
REMARK   11  A    between atoms: C_27  and  C_31
REMARK   12  A    between atoms: C_29  and  C_30
REMARK                            x       y       z     vdW  Elec       q    Type
REMARK                         _______ _______ _______ _____ _____    ______ ____
ROOT
ATOM      1  C   UNL     1      -1.205   6.061  -0.679  0.00  0.00    +0.032 A 
ATOM      2  C   UNL     1      -0.184   5.394  -1.344  0.00  0.00    +0.025 A 
ATOM      3  C   UNL     1       0.221   4.147  -0.912  0.00  0.00    +0.026 A 
ATOM      4  C   UNL     1      -0.393   3.559   0.186  0.00  0.00    +0.048 A 
ATOM      5  C   UNL     1      -1.418   4.223   0.847  0.00  0.00    +0.026 A 
ATOM      6  C   UNL     1      -1.818   5.474   0.419  0.00  0.00    +0.025 A 
ENDROOT
BRANCH   1   7
ATOM      7  N   UNL     1      -1.616   7.327  -1.117  0.00  0.00    -0.301 N 
ATOM      8  H   UNL     1      -0.871   8.055  -1.471  0.00  0.00    +0.154 HD
BRANCH   7  12
ATOM      9  N   UNL     1      -6.262   6.164  -0.553  0.00  0.00    -0.316 N 
ATOM     10  C   UNL     1      -5.263   7.086  -0.825  0.00  0.00    +0.126 A 
ATOM     11  C   UNL     1      -3.926   6.698  -0.831  0.00  0.00    +0.085 A 
ATOM     12  C   UNL     1      -2.961   7.662  -1.105  0.00  0.00    +0.105 A 
ATOM     13  N   UNL     1      -3.349   8.911  -1.359  0.00  0.00    -0.332 N 
ATOM     14  C   UNL     1      -4.625   9.237  -1.350  0.00  0.00    +0.107 A 
ATOM     15  N   UNL     1      -5.569   8.355  -1.090  0.00  0.00    -0.219 NA
ATOM     16  C   UNL     1      -5.018  10.662  -1.643  0.00  0.00    +0.086 C 
ATOM     17  H   UNL     1      -2.600   9.685  -1.582  0.00  0.00    +0.168 HD
BRANCH   9  19
ATOM     18  C   UNL     1      -5.786   4.752   1.386  0.00  0.00    +0.024 C 
ATOM     19  C   UNL     1      -5.910   4.804  -0.138  0.00  0.00    +0.103 C 
ENDBRANCH   9  19
BRANCH   9  20
ATOM     20  C   UNL     1      -7.670   6.550  -0.681  0.00  0.00    +0.103 C 
ATOM     21  C   UNL     1      -8.149   6.266  -2.105  0.00  0.00    +0.024 C 
ENDBRANCH   9  20
ENDBRANCH   7  12
ENDBRANCH   1   7
BRANCH   4  22
ATOM     22  N   UNL     1       0.018   2.295   0.624  0.00  0.00    -0.216 N 
ATOM     23  H   UNL     1       0.160   1.480  -0.102  0.00  0.00    +0.174 HD
BRANCH  22  24
ATOM     24  S   UNL     1       0.290   2.024   2.235  0.00  0.00    +0.073 S 
ATOM     25  O   UNL     1      -0.867   2.478   2.924  0.00  0.00    -0.150 OA
ATOM     26  O   UNL     1       0.770   0.691   2.348  0.00  0.00    -0.150 OA
BRANCH  24  27
ATOM     27  C   UNL     1       1.614   3.079   2.724  0.00  0.00    +0.111 A 
ATOM     28  C   UNL     1       1.404   4.054   3.681  0.00  0.00    +0.029 A 
ATOM     29  C   UNL     1       2.443   4.881   4.065  0.00  0.00    +0.005 A 
ATOM     30  C   UNL     1       3.692   4.734   3.491  0.00  0.00    -0.050 A 
ATOM     31  C   UNL     1       3.902   3.759   2.534  0.00  0.00    +0.008 A 
ATOM     32  C   UNL     1       2.864   2.928   2.154  0.00  0.00    -0.024 A 
ATOM     33  C   UNL     1       3.095   1.861   1.115  0.00  0.00    +0.046 C 
ATOM     34  C   UNL     1       4.825   5.635   3.910  0.00  0.00    +0.044 C 
ENDBRANCH  24  27
ENDBRANCH  22  24
ENDBRANCH   4  22
TORSDOF 7
