REMARK  Name = ZINC09720431
REMARK  6 active torsions:
REMARK  status: ('A' for Active; 'I' for Inactive)
REMARK    1  A    between atoms: C_1  and  N_64
REMARK    2  A    between atoms: N_4  and  C_7
REMARK    3  A    between atoms: C_9  and  N_16
REMARK    4  A    between atoms: C_12  and  N_13
REMARK    5  A    between atoms: N_19  and  S_22
REMARK    6  A    between atoms: S_22  and  C_25
REMARK                            x       y       z     vdW  Elec       q    Type
REMARK                         _______ _______ _______ _____ _____    ______ ____
ROOT
ATOM      1  N   UNL     1      -2.981   2.994  -2.793  0.00  0.00    -0.327 N 
ATOM      2  C   UNL     1      -2.076   3.886  -2.056  0.00  0.00    +0.122 C 
ATOM      3  C   UNL     1      -0.706   3.213  -1.915  0.00  0.00    +0.128 C 
ATOM      4  N   UNL     1      -0.897   1.885  -1.312  0.00  0.00    -0.174 NA
ATOM      5  C   UNL     1      -1.887   0.982  -1.919  0.00  0.00    +0.128 C 
ATOM      6  C   UNL     1      -3.215   1.745  -2.057  0.00  0.00    +0.122 C 
ENDROOT
BRANCH   1   9
ATOM      7  C   UNL     1      -6.379   3.604  -4.067  0.00  0.00    +0.062 A 
ATOM      8  C   UNL     1      -5.182   2.962  -3.779  0.00  0.00    +0.048 A 
ATOM      9  C   UNL     1      -4.187   3.636  -3.085  0.00  0.00    +0.032 A 
ATOM     10  C   UNL     1      -4.394   4.948  -2.675  0.00  0.00    +0.025 A 
ATOM     11  C   UNL     1      -5.584   5.585  -2.969  0.00  0.00    +0.036 A 
ATOM     12  C   UNL     1      -6.577   4.917  -3.660  0.00  0.00    +0.147 A 
BRANCH   7  16
ATOM     13  C   UNL     1      -9.612  -0.015  -6.818  0.00  0.00    -0.096 C 
ATOM     14  C   UNL     1      -8.058   1.843  -6.853  0.00  0.00    -0.060 C 
ATOM     15  C   UNL     1      -6.908   2.505  -6.091  0.00  0.00    +0.086 C 
ATOM     16  N   UNL     1      -7.383   2.929  -4.766  0.00  0.00    -0.332 N 
ATOM     17  C   UNL     1      -7.881   1.782  -3.996  0.00  0.00    +0.086 C 
ATOM     18  C   UNL     1      -9.030   1.119  -4.758  0.00  0.00    -0.060 C 
ATOM     19  N   UNL     1      -8.534   0.677  -6.079  0.00  0.00    +0.380 N 
ATOM     20  H   UNL     1      -7.753   0.026  -5.941  0.00  0.00    -0.082 HD
ENDBRANCH   7  16
BRANCH  12  21
ATOM     21  N   UNL     1      -7.853   5.602  -3.967  0.00  0.00    +0.058 N 
ATOM     22  O   UNL     1      -8.027   6.753  -3.610  0.00  0.00    -0.126 OA
ATOM     23  O   UNL     1      -8.728   5.014  -4.576  0.00  0.00    -0.126 OA
ENDBRANCH  12  21
ENDBRANCH   1   9
BRANCH   4  24
ATOM     24  S   UNL     1      -0.017   1.417   0.010  0.00  0.00    +0.061 S 
ATOM     25  O   UNL     1       0.002  -0.004   0.002  0.00  0.00    -0.153 OA
ATOM     26  O   UNL     1       1.172   2.195   0.003  0.00  0.00    -0.153 OA
BRANCH  24  27
ATOM     27  C   UNL     1      -0.927   1.900   1.439  0.00  0.00    +0.106 A 
ATOM     28  C   UNL     1      -0.707   3.157   2.000  0.00  0.00    +0.029 A 
ATOM     29  C   UNL     1      -1.397   3.564   3.101  0.00  0.00    +0.010 A 
ATOM     30  C   UNL     1      -2.337   2.701   3.690  0.00  0.00    -0.018 A 
ATOM     31  C   UNL     1      -3.063   3.083   4.831  0.00  0.00    +0.008 A 
ATOM     32  C   UNL     1      -3.965   2.221   5.375  0.00  0.00    +0.001 A 
ATOM     33  C   UNL     1      -4.181   0.962   4.817  0.00  0.00    +0.001 A 
ATOM     34  C   UNL     1      -3.495   0.558   3.713  0.00  0.00    +0.008 A 
ATOM     35  C   UNL     1      -2.556   1.421   3.123  0.00  0.00    -0.016 A 
ATOM     36  C   UNL     1      -1.829   1.038   1.983  0.00  0.00    +0.037 A 
ENDBRANCH  24  27
ENDBRANCH   4  24
TORSDOF 5
