REMARK  Name = ZINC17126388
REMARK  11 active torsions:
REMARK  status: ('A' for Active; 'I' for Inactive)
REMARK    1  A    between atoms: C_1  and  C_2
REMARK    2  A    between atoms: C_2  and  C_3
REMARK    3  A    between atoms: C_2  and  C_4
REMARK    4  A    between atoms: C_4  and  C_6
REMARK    5  A    between atoms: C_4  and  N_21
REMARK    6  A    between atoms: N_8  and  C_9
REMARK    7  A    between atoms: C_9  and  C_10
REMARK    8  A    between atoms: C_10  and  C_11
REMARK    9  A    between atoms: C_14  and  S_17
REMARK   10  A    between atoms: S_17  and  N_20
REMARK   11  A    between atoms: C_22  and  C_24
REMARK                            x       y       z     vdW  Elec       q    Type
REMARK                         _______ _______ _______ _____ _____    ______ ____
ROOT
ATOM      1  C   UNL     1       0.236   1.007   2.302  0.00  0.00    +0.161 C 
ENDROOT
BRANCH   1   2
ATOM      2  C   UNL     1      -0.134   1.529   3.666  0.00  0.00    +0.234 C 
ATOM      3  O   UNL     1      -0.702   0.807   4.458  0.00  0.00    -0.274 OA
ATOM      4  N   UNL     1       0.166   2.798   4.006  0.00  0.00    -0.313 N 
ATOM      5  H   UNL     1       0.684   3.353   3.402  0.00  0.00    +0.149 HD
BRANCH   4   6
ATOM      6  C   UNL     1      -0.290   3.340   5.289  0.00  0.00    +0.109 C 
BRANCH   6   7
ATOM      7  C   UNL     1       0.182   4.789   5.427  0.00  0.00    +0.054 C 
BRANCH   7   8
ATOM      8  C   UNL     1      -0.287   5.346   6.746  0.00  0.00    -0.046 A 
ATOM      9  C   UNL     1      -1.510   5.985   6.831  0.00  0.00    +0.005 A 
ATOM     10  C   UNL     1      -1.942   6.493   8.042  0.00  0.00    +0.029 A 
ATOM     11  C   UNL     1      -1.147   6.369   9.166  0.00  0.00    +0.105 A 
ATOM     12  C   UNL     1       0.078   5.735   9.080  0.00  0.00    +0.029 A 
ATOM     13  C   UNL     1       0.508   5.224   7.870  0.00  0.00    +0.005 A 
BRANCH  11  14
ATOM     14  S   UNL     1      -1.696   7.020  10.709  0.00  0.00    +0.056 S 
ATOM     15  O   UNL     1      -3.114   7.083  10.642  0.00  0.00    -0.153 OA
ATOM     16  O   UNL     1      -1.012   6.294  11.722  0.00  0.00    -0.153 OA
BRANCH  14  17
ATOM     17  N   UNL     1      -1.157   8.583  10.801  0.00  0.00    -0.204 NA
ATOM     18  H   UNL     1      -0.640   8.961  10.072  0.00  0.00    +0.144 HD
ATOM     19  H   UNL     1      -1.357   9.120  11.584  0.00  0.00    +0.144 HD
ENDBRANCH  14  17
ENDBRANCH  11  14
ENDBRANCH   7   8
ENDBRANCH   6   7
ENDBRANCH   4   6
ENDBRANCH   1   2
BRANCH   1  20
ATOM     20  N   UNL     1       0.416  -0.445   2.367  0.00  0.00    -0.303 N 
ATOM     21  C   UNL     1       1.206  -1.067   1.469  0.00  0.00    +0.220 C 
ATOM     22  O   UNL     1       1.768  -0.424   0.608  0.00  0.00    -0.275 OA
ATOM     23  H   UNL     1      -0.033  -0.959   3.055  0.00  0.00    +0.149 HD
BRANCH  21  24
ATOM     24  C   UNL     1       1.391  -2.561   1.536  0.00  0.00    +0.048 C 
ATOM     25  C   UNL     1       0.035  -3.251   1.375  0.00  0.00    +0.019 C 
ATOM     26  C   UNL     1       0.223  -4.768   1.443  0.00  0.00    -0.009 C 
ATOM     27  C   UNL     1       1.160  -5.216   0.320  0.00  0.00    +0.007 C 
ATOM     28  C   UNL     1       2.516  -4.527   0.481  0.00  0.00    -0.009 C 
ATOM     29  C   UNL     1       2.328  -3.010   0.413  0.00  0.00    +0.019 C 
ATOM     30  C   UNL     1       3.123  -4.905   1.833  0.00  0.00    +0.007 C 
ATOM     31  C   UNL     1       2.187  -4.457   2.957  0.00  0.00    -0.009 C 
ATOM     32  C   UNL     1       0.830  -5.146   2.796  0.00  0.00    +0.007 C 
ATOM     33  C   UNL     1       1.999  -2.940   2.889  0.00  0.00    +0.019 C 
ENDBRANCH  21  24
ENDBRANCH   1  20
BRANCH   1  35
ATOM     34  C   UNL     1      -0.482   0.853  -0.087  0.00  0.00    +0.009 C 
ATOM     35  C   UNL     1      -0.879   1.339   1.309  0.00  0.00    +0.012 C 
ATOM     36  C   UNL     1      -1.101   2.853   1.277  0.00  0.00    +0.009 C 
ENDBRANCH   1  35
TORSDOF 9
