REMARK  Name = ZINC41586423
REMARK  12 active torsions:
REMARK  status: ('A' for Active; 'I' for Inactive)
REMARK    1  A    between atoms: C_1  and  C_2
REMARK    2  A    between atoms: C_2  and  O_3
REMARK    3  A    between atoms: O_3  and  C_4
REMARK    4  A    between atoms: C_4  and  C_6
REMARK    5  A    between atoms: N_11  and  C_13
REMARK    6  A    between atoms: C_13  and  C_14
REMARK    7  A    between atoms: C_15  and  O_38
REMARK    8  A    between atoms: C_17  and  C_37
REMARK    9  A    between atoms: C_22  and  C_23
REMARK   10  A    between atoms: N_25  and  C_34
REMARK   11  A    between atoms: C_29  and  O_32
REMARK   12  A    between atoms: O_32  and  C_33
REMARK                            x       y       z     vdW  Elec       q    Type
REMARK                         _______ _______ _______ _____ _____    ______ ____
ROOT
ATOM      1  C   UNL     1      -5.410  -6.590  -0.182  0.00  0.00    +0.020 A 
ATOM      2  C   UNL     1      -6.120  -6.931   0.958  0.00  0.00    +0.122 A 
ATOM      3  C   UNL     1      -7.397  -7.478   0.859  0.00  0.00    +0.050 A 
ATOM      4  C   UNL     1      -7.963  -7.685  -0.367  0.00  0.00    -0.033 A 
ATOM      5  C   UNL     1      -7.260  -7.347  -1.523  0.00  0.00    +0.071 A 
ATOM      6  C   UNL     1      -5.974  -6.789  -1.434  0.00  0.00    +0.145 A 
ATOM      7  O   UNL     1      -5.518  -6.548  -2.682  0.00  0.00    -0.451 OA
ATOM      8  C   UNL     1      -6.427  -6.906  -3.620  0.00  0.00    +0.176 C 
ATOM      9  C   UNL     1      -6.268  -6.789  -4.968  0.00  0.00    +0.060 C 
ATOM     10  C   UNL     1      -7.568  -7.437  -2.961  0.00  0.00    +0.232 C 
ATOM     11  O   UNL     1      -8.589  -7.862  -3.475  0.00  0.00    -0.283 OA
ATOM     12  C   UNL     1      -9.345  -8.278  -0.471  0.00  0.00    +0.045 C 
ENDROOT
BRANCH   9  13
ATOM     13  C   UNL     1      -5.031  -6.235  -5.513  0.00  0.00    +0.004 A 
ATOM     14  C   UNL     1      -3.937  -5.795  -4.799  0.00  0.00    +0.094 A 
ATOM     15  N   UNL     1      -2.986  -5.351  -5.656  0.00  0.00    -0.349 N 
ATOM     16  C   UNL     1      -3.413  -5.481  -6.964  0.00  0.00    +0.050 A 
ATOM     17  C   UNL     1      -4.700  -6.042  -6.938  0.00  0.00    +0.011 A 
ATOM     18  C   UNL     1      -5.378  -6.292  -8.128  0.00  0.00    +0.056 A 
ATOM     19  C   UNL     1      -4.776  -5.988  -9.335  0.00  0.00    +0.121 A 
ATOM     20  C   UNL     1      -3.499  -5.436  -9.360  0.00  0.00    +0.047 A 
ATOM     21  C   UNL     1      -2.825  -5.177  -8.187  0.00  0.00    +0.030 A 
ATOM     22  C   UNL     1      -1.686  -4.809  -5.253  0.00  0.00    +0.149 C 
BRANCH  19  23
ATOM     23  O   UNL     1      -5.434  -6.230 -10.501  0.00  0.00    -0.495 OA
ATOM     24  C   UNL     1      -4.753  -5.892 -11.711  0.00  0.00    +0.277 C 
ENDBRANCH  19  23
ENDBRANCH   9  13
BRANCH   2  25
ATOM     25  O   UNL     1      -5.567  -6.730   2.181  0.00  0.00    -0.506 OA
ATOM     26  H   UNL     1      -5.756  -5.861   2.560  0.00  0.00    +0.292 HD
ENDBRANCH   2  25
BRANCH   1  27
ATOM     27  C   UNL     1      -4.029  -5.999  -0.061  0.00  0.00    -0.036 C 
BRANCH  27  32
ATOM     28  C   UNL     1      -2.881  -2.427   0.017  0.00  0.00    +0.081 C 
ATOM     29  C   UNL     1      -3.623  -1.974   1.277  0.00  0.00    +0.011 C 
ATOM     30  C   UNL     1      -4.999  -2.646   1.317  0.00  0.00    -0.018 C 
ATOM     31  C   UNL     1      -4.820  -4.164   1.263  0.00  0.00    -0.078 C 
ATOM     32  N   UNL     1      -4.128  -4.536   0.023  0.00  0.00    +0.383 N 
ATOM     33  C   UNL     1      -2.781  -3.954   0.010  0.00  0.00    -0.064 C 
ATOM     34  H   UNL     1      -4.650  -4.190  -0.768  0.00  0.00    -0.081 HD
BRANCH  28  35
ATOM     35  C   UNL     1      -1.496  -1.832   0.006  0.00  0.00    +0.308 C 
ATOM     36  O   UNL     1      -0.528  -2.555  -0.007  0.00  0.00    -0.251 OA
BRANCH  35  37
ATOM     37  O   UNL     1      -1.339  -0.499   0.012  0.00  0.00    -0.465 OA
BRANCH  37  39
ATOM     38  C   UNL     1      -0.019   1.526   0.010  0.00  0.00    +0.048 C 
ATOM     39  C   UNL     1       0.002  -0.004   0.002  0.00  0.00    +0.229 C 
ENDBRANCH  37  39
ENDBRANCH  35  37
ENDBRANCH  28  35
ENDBRANCH  27  32
ENDBRANCH   1  27
TORSDOF 8
