REMARK  Name = ZINC09429318
REMARK  7 active torsions:
REMARK  status: ('A' for Active; 'I' for Inactive)
REMARK    1  A    between atoms: C_1  and  C_2
REMARK    2  A    between atoms: C_2  and  C_3
REMARK    3  A    between atoms: C_2  and  N_4
REMARK    4  A    between atoms: C_8  and  N_9
REMARK    5  A    between atoms: N_9  and  C_10
REMARK    6  A    between atoms: C_24  and  N_64
REMARK    7  A    between atoms: C_36  and  S_37
REMARK                            x       y       z     vdW  Elec       q    Type
REMARK                         _______ _______ _______ _____ _____    ______ ____
ROOT
ATOM      1  C   UNL     1       4.573  -1.092  -4.506  0.00  0.00    +0.031 A 
ATOM      2  C   UNL     1       4.894   0.109  -3.887  0.00  0.00    +0.025 A 
ATOM      3  C   UNL     1       4.045   0.642  -2.942  0.00  0.00    +0.025 A 
ATOM      4  C   UNL     1       2.862  -0.015  -2.600  0.00  0.00    +0.033 A 
ATOM      5  C   UNL     1       2.541  -1.210  -3.223  0.00  0.00    -0.023 A 
ATOM      6  C   UNL     1       3.397  -1.746  -4.171  0.00  0.00    +0.028 A 
ATOM      7  C   UNL     1       1.274  -1.962  -2.904  0.00  0.00    +0.064 C 
ATOM      8  C   UNL     1       0.678  -1.442  -1.593  0.00  0.00    +0.144 C 
ATOM      9  C   UNL     1       0.671   0.089  -1.656  0.00  0.00    +0.081 C 
ATOM     10  N   UNL     1       2.055   0.567  -1.624  0.00  0.00    -0.329 N 
ATOM     11  C   UNL     1       2.109   2.034  -1.673  0.00  0.00    +0.087 C 
ATOM     12  C   UNL     1       1.346   2.604  -0.474  0.00  0.00    -0.060 C 
ATOM     13  C   UNL     1      -0.090   0.653  -0.455  0.00  0.00    -0.055 C 
ATOM     14  C   UNL     1      -0.823   2.708   0.598  0.00  0.00    -0.096 C 
ATOM     15  C   UNL     1      -0.729  -1.945  -1.444  0.00  0.00    +0.238 C 
ATOM     16  O   UNL     1      -1.547  -1.667  -2.294  0.00  0.00    -0.274 OA
ATOM     17  N   UNL     1      -1.107  -2.692  -0.397  0.00  0.00    -0.239 N 
ATOM     18  C   UNL     1      -0.249  -3.034   0.577  0.00  0.00    +0.312 C 
ATOM     19  O   UNL     1      -0.645  -3.713   1.503  0.00  0.00    -0.252 OA
ATOM     20  N   UNL     1       1.034  -2.643   0.554  0.00  0.00    -0.239 N 
ATOM     21  C   UNL     1       1.529  -1.893  -0.440  0.00  0.00    +0.238 C 
ATOM     22  O   UNL     1       2.697  -1.568  -0.408  0.00  0.00    -0.274 OA
ATOM     23  H   UNL     1      -2.026  -2.996  -0.342  0.00  0.00    +0.159 HD
ATOM     24  H   UNL     1       1.621  -2.912   1.279  0.00  0.00    +0.159 HD
ATOM     25  N   UNL     1      -0.053   2.130  -0.524  0.00  0.00    +0.380 N 
ATOM     26  H   UNL     1      -0.476   2.433  -1.410  0.00  0.00    -0.082 HD
ENDROOT
BRANCH   1  27
ATOM     27  N   UNL     1       5.433  -1.640  -5.464  0.00  0.00    -0.320 N 
ATOM     28  H   UNL     1       5.207  -2.479  -5.896  0.00  0.00    +0.152 HD
BRANCH  27  33
ATOM     29  N   UNL     1       8.091  -3.365  -8.183  0.00  0.00    -0.246 N 
ATOM     30  C   UNL     1       7.161  -2.854  -7.349  0.00  0.00    +0.259 C 
ATOM     31  O   UNL     1       6.098  -3.419  -7.172  0.00  0.00    -0.269 OA
ATOM     32  C   UNL     1       7.474  -1.592  -6.659  0.00  0.00    +0.115 C 
ATOM     33  C   UNL     1       6.576  -1.002  -5.788  0.00  0.00    +0.090 C 
ATOM     34  C   UNL     1       8.789  -0.981  -6.942  0.00  0.00    +0.276 C 
ATOM     35  O   UNL     1       9.118   0.067  -6.412  0.00  0.00    -0.268 OA
ATOM     36  N   UNL     1       9.614  -1.608  -7.793  0.00  0.00    -0.155 NA
ATOM     37  C   UNL     1       9.282  -2.735  -8.381  0.00  0.00    +0.153 C 
BRANCH  29  39
ATOM     38  C   UNL     1       7.574  -5.734  -7.867  0.00  0.00    +0.028 C 
ATOM     39  C   UNL     1       7.815  -4.620  -8.887  0.00  0.00    +0.077 C 
ATOM     40  C   UNL     1       6.572  -4.451  -9.762  0.00  0.00    +0.028 C 
ENDBRANCH  29  39
BRANCH  37  41
ATOM     41  S   UNL     1      10.440  -3.470  -9.487  0.00  0.00    -0.110 S 
ATOM     42  H   UNL     1      11.489  -2.532  -9.403  0.00  0.00    +0.110 HD
ENDBRANCH  37  41
ENDBRANCH  27  33
ENDBRANCH   1  27
TORSDOF 4
