REMARK  Name = ZINC21526018
REMARK  13 active torsions:
REMARK  status: ('A' for Active; 'I' for Inactive)
REMARK    1  A    between atoms: C_1  and  C_2
REMARK    2  A    between atoms: C_2  and  C_3
REMARK    3  A    between atoms: C_12  and  C_24
REMARK    4  A    between atoms: C_12  and  C_25
REMARK    5  A    between atoms: N_13  and  C_16
REMARK    6  A    between atoms: C_16  and  C_17
REMARK    7  A    between atoms: C_17  and  C_18
REMARK    8  A    between atoms: C_18  and  N_19
REMARK    9  A    between atoms: N_19  and  C_20
REMARK   10  A    between atoms: N_19  and  C_22
REMARK   11  A    between atoms: C_20  and  C_21
REMARK   12  A    between atoms: C_22  and  C_23
REMARK   13  A    between atoms: N_27  and  C_28
REMARK                            x       y       z     vdW  Elec       q    Type
REMARK                         _______ _______ _______ _____ _____    ______ ____
ROOT
ATOM      1  C   UNL     1      -0.140  -9.549  -3.312  0.00  0.00    -0.008 A 
ATOM      2  C   UNL     1      -0.602  -8.344  -3.705  0.00  0.00    +0.037 A 
ATOM      3  C   UNL     1       0.009  -7.168  -3.245  0.00  0.00    +0.057 A 
ATOM      4  C   UNL     1       1.094  -7.350  -2.374  0.00  0.00    +0.038 A 
ATOM      5  S   UNL     1       1.219  -9.115  -2.240  0.00  0.00    -0.092 S 
ATOM      6  C   UNL     1       1.599  -6.112  -1.995  0.00  0.00    +0.048 A 
ATOM      7  C   UNL     1       0.841  -5.163  -2.615  0.00  0.00    +0.106 A 
ATOM      8  N   UNL     1      -0.126  -5.799  -3.386  0.00  0.00    -0.333 N 
ATOM      9  C   UNL     1      -1.090  -5.048  -4.194  0.00  0.00    +0.157 C 
ATOM     10  C   UNL     1      -1.346  -3.693  -3.535  0.00  0.00    +0.128 C 
ATOM     11  N   UNL     1      -0.116  -3.025  -3.127  0.00  0.00    -0.281 N 
ATOM     12  C   UNL     1       0.915  -3.698  -2.565  0.00  0.00    +0.264 C 
ATOM     13  O   UNL     1       1.851  -3.121  -2.043  0.00  0.00    -0.268 OA
ATOM     14  C   UNL     1      -2.090  -2.796  -4.527  0.00  0.00    +0.043 C 
ENDROOT
BRANCH  10  15
ATOM     15  C   UNL     1      -2.214  -3.899  -2.321  0.00  0.00    +0.238 C 
ATOM     16  O   UNL     1      -3.421  -3.822  -2.418  0.00  0.00    -0.273 OA
ATOM     17  N   UNL     1      -1.650  -4.167  -1.127  0.00  0.00    -0.311 N 
ATOM     18  H   UNL     1      -0.556  -4.236  -1.039  0.00  0.00    +0.149 HD
BRANCH  17  19
ATOM     19  C   UNL     1      -2.494  -4.367   0.054  0.00  0.00    +0.073 C 
ATOM     20  C   UNL     1      -2.879  -2.990   0.632  0.00  0.00    +0.022 C 
ATOM     21  C   UNL     1      -4.108  -3.155   1.484  0.00  0.00    +0.002 C 
ATOM     22  C   UNL     1      -3.770  -3.366   2.972  0.00  0.00    +0.000 C 
ATOM     23  C   UNL     1      -2.576  -4.316   3.185  0.00  0.00    +0.000 C 
ATOM     24  C   UNL     1      -2.617  -5.507   2.266  0.00  0.00    +0.002 C 
ATOM     25  C   UNL     1      -1.774  -5.190   1.014  0.00  0.00    +0.022 C 
ENDBRANCH  17  19
ENDBRANCH  10  15
BRANCH   1  27
ATOM     26  C   UNL     1       0.083 -11.406  -4.940  0.00  0.00    +0.009 C 
ATOM     27  C   UNL     1      -0.644 -10.919  -3.685  0.00  0.00    +0.039 C 
ENDBRANCH   1  27
BRANCH  11  28
ATOM     28  C   UNL     1       0.010  -1.580  -3.338  0.00  0.00    +0.107 C 
BRANCH  28  29
ATOM     29  C   UNL     1      -0.509  -0.838  -2.105  0.00  0.00    +0.000 C 
BRANCH  29  30
ATOM     30  C   UNL     1      -0.377   0.670  -2.324  0.00  0.00    -0.077 C 
BRANCH  30  31
ATOM     31  N   UNL     1      -0.876   1.383  -1.141  0.00  0.00    +0.379 N 
ATOM     32  H   UNL     1      -1.883   1.002  -0.916  0.00  0.00    -0.082 HD
BRANCH  31  33
ATOM     33  C   UNL     1      -0.024   1.124   0.028  0.00  0.00    -0.082 C 
ATOM     34  C   UNL     1      -0.793   1.463   1.306  0.00  0.00    -0.017 C 
ENDBRANCH  31  33
BRANCH  31  35
ATOM     35  C   UNL     1      -0.987   2.824  -1.402  0.00  0.00    -0.082 C 
ATOM     36  C   UNL     1      -2.160   3.082  -2.350  0.00  0.00    -0.017 C 
ENDBRANCH  31  35
ENDBRANCH  30  31
ENDBRANCH  29  30
ENDBRANCH  28  29
ENDBRANCH  11  28
TORSDOF 9
