REMARK  Name = ZINC48909964
REMARK  7 active torsions:
REMARK  status: ('A' for Active; 'I' for Inactive)
REMARK    1  A    between atoms: C_1  and  N_2
REMARK    2  A    between atoms: N_2  and  C_3
REMARK    3  A    between atoms: N_2  and  C_9
REMARK    4  A    between atoms: C_3  and  C_4
REMARK    5  A    between atoms: C_9  and  C_11
REMARK    6  A    between atoms: C_9  and  C_13
REMARK    7  A    between atoms: C_11  and  N_12
REMARK                            x       y       z     vdW  Elec       q    Type
REMARK                         _______ _______ _______ _____ _____    ______ ____
ROOT
ATOM      1  C   UNL     1       0.205  -0.877  -1.345  0.00  0.00    +0.071 C 
ENDROOT
BRANCH   1   2
ATOM      2  C   UNL     1      -0.538  -0.360  -2.550  0.00  0.00    -0.012 A 
ATOM      3  C   UNL     1      -1.320   0.775  -2.445  0.00  0.00    +0.006 A 
ATOM      4  C   UNL     1      -2.002   1.251  -3.549  0.00  0.00    +0.002 A 
ATOM      5  C   UNL     1      -1.902   0.591  -4.760  0.00  0.00    +0.021 A 
ATOM      6  C   UNL     1      -1.121  -0.544  -4.867  0.00  0.00    +0.060 A 
ATOM      7  C   UNL     1      -0.433  -1.017  -3.762  0.00  0.00    +0.064 A 
ATOM      8 CL   UNL     1       0.555  -2.438  -3.897  0.00  0.00    -0.082 Cl
ATOM      9 CL   UNL     1      -0.996  -1.373  -6.388  0.00  0.00    -0.082 Cl
ENDBRANCH   1   2
BRANCH   1  11
ATOM     10  C   UNL     1       0.198   1.071   0.092  0.00  0.00    +0.105 C 
ATOM     11  N   UNL     1      -0.353  -0.273  -0.129  0.00  0.00    -0.296 NA
BRANCH  11  12
ATOM     12  C   UNL     1      -0.126  -1.134   1.040  0.00  0.00    +0.123 C 
BRANCH  12  13
ATOM     13  C   UNL     1      -1.105  -0.774   2.127  0.00  0.00    +0.004 A 
ATOM     14  C   UNL     1      -0.917   0.188   3.146  0.00  0.00    +0.046 A 
ATOM     15  C   UNL     1      -2.034   0.187   3.895  0.00  0.00    +0.195 A 
ATOM     16  O   UNL     1      -2.884  -0.720   3.387  0.00  0.00    -0.471 OA
ATOM     17  C   UNL     1      -2.328  -1.302   2.312  0.00  0.00    +0.199 A 
ENDBRANCH  12  13
ENDBRANCH  11  12
ENDBRANCH   1  11
BRANCH   1  18
ATOM     18  C   UNL     1       1.686  -0.512  -1.463  0.00  0.00    -0.063 C 
BRANCH  18  19
ATOM     19  N   UNL     1       2.398  -0.957  -0.258  0.00  0.00    +0.379 N 
ATOM     20  H   UNL     1       2.152  -1.914  -0.056  0.00  0.00    -0.090 HD
ATOM     21  H   UNL     1       3.393  -0.889  -0.410  0.00  0.00    -0.090 HD
ATOM     22  H   UNL     1       2.137  -0.371   0.522  0.00  0.00    -0.090 HD
ENDBRANCH  18  19
ENDBRANCH   1  18
TORSDOF 6
