REMARK  Name = ZINC45665350
REMARK  10 active torsions:
REMARK  status: ('A' for Active; 'I' for Inactive)
REMARK    1  A    between atoms: C_1  and  N_2
REMARK    2  A    between atoms: N_2  and  C_3
REMARK    3  A    between atoms: N_2  and  C_4
REMARK    4  A    between atoms: C_4  and  C_5
REMARK    5  A    between atoms: C_5  and  C_6
REMARK    6  A    between atoms: C_6  and  C_7
REMARK    7  A    between atoms: C_7  and  N_8
REMARK    8  A    between atoms: N_8  and  S_9
REMARK    9  A    between atoms: S_9  and  C_12
REMARK   10  A    between atoms: C_15  and  N_19
REMARK                            x       y       z     vdW  Elec       q    Type
REMARK                         _______ _______ _______ _____ _____    ______ ____
ROOT
ATOM      1  S   UNL     1       6.454   0.107  -4.043  0.00  0.00    +0.059 S 
ATOM      2  O   UNL     1       6.888  -0.382  -5.305  0.00  0.00    -0.153 OA
ATOM      3  O   UNL     1       6.179   1.482  -3.813  0.00  0.00    -0.153 OA
ENDROOT
BRANCH   1   4
ATOM      4  C   UNL     1       7.681  -0.365  -2.871  0.00  0.00    +0.119 A 
ATOM      5  C   UNL     1       8.199   0.574  -1.998  0.00  0.00    +0.031 A 
ATOM      6  C   UNL     1       9.162   0.208  -1.078  0.00  0.00    +0.025 A 
ATOM      7  C   UNL     1       9.609  -1.107  -1.029  0.00  0.00    +0.026 A 
ATOM      8  C   UNL     1       9.086  -2.048  -1.906  0.00  0.00    +0.040 A 
ATOM      9  C   UNL     1       8.120  -1.676  -2.821  0.00  0.00    +0.046 A 
ATOM     10 BR   UNL     1       7.401  -2.959  -4.010  0.00  0.00    -0.048 Br
BRANCH   7  11
ATOM     11  N   UNL     1      10.582  -1.480  -0.100  0.00  0.00    -0.358 N 
ATOM     12  H   UNL     1      10.947  -0.822   0.512  0.00  0.00    +0.142 HD
ATOM     13  H   UNL     1      10.894  -2.398  -0.066  0.00  0.00    +0.142 HD
ENDBRANCH   7  11
ENDBRANCH   1   4
BRANCH   1  14
ATOM     14  N   UNL     1       5.070  -0.721  -3.665  0.00  0.00    -0.190 NA
ATOM     15  H   UNL     1       4.712  -1.375  -4.285  0.00  0.00    +0.148 HD
BRANCH  14  16
ATOM     16  C   UNL     1       4.388  -0.466  -2.393  0.00  0.00    +0.106 C 
BRANCH  16  17
ATOM     17  C   UNL     1       2.973  -1.044  -2.449  0.00  0.00    +0.015 C 
BRANCH  17  18
ATOM     18  C   UNL     1       2.261  -0.778  -1.121  0.00  0.00    -0.017 C 
BRANCH  18  19
ATOM     19  C   UNL     1       0.845  -1.356  -1.177  0.00  0.00    -0.080 C 
BRANCH  19  21
ATOM     20  C   UNL     1      -0.016   0.347   0.277  0.00  0.00    -0.097 C 
ATOM     21  N   UNL     1       0.162  -1.100   0.098  0.00  0.00    +0.376 N 
ATOM     22  C   UNL     1      -1.152  -1.757   0.089  0.00  0.00    -0.097 C 
ATOM     23  H   UNL     1       0.716  -1.467   0.856  0.00  0.00    -0.083 HD
ENDBRANCH  19  21
ENDBRANCH  18  19
ENDBRANCH  17  18
ENDBRANCH  16  17
ENDBRANCH  14  16
ENDBRANCH   1  14
TORSDOF 8
