REMARK  Name = ZINC08327005
REMARK  13 active torsions:
REMARK  status: ('A' for Active; 'I' for Inactive)
REMARK    1  A    between atoms: C_1  and  C_2
REMARK    2  A    between atoms: C_2  and  CA_3
REMARK    3  A    between atoms: CA_3  and  C_5
REMARK    4  A    between atoms: CA_3  and  N_44
REMARK    5  A    between atoms: C_5  and  O_6
REMARK    6  A    between atoms: C_7  and  C_8
REMARK    7  A    between atoms: C_7  and  N_44
REMARK    8  A    between atoms: C_10  and  O_20
REMARK    9  A    between atoms: C_11  and  O_15
REMARK   10  A    between atoms: O_15  and  C_16
REMARK   11  A    between atoms: C_16  and  C_17
REMARK   12  A    between atoms: O_20  and  C_21
REMARK   13  A    between atoms: C_21  and  C_22
REMARK                            x       y       z     vdW  Elec       q    Type
REMARK                         _______ _______ _______ _____ _____    ______ ____
ROOT
ATOM      1  C   UNL     1       1.791  -2.298   2.363  0.00  0.00    -0.060 A 
ATOM      2  C   UNL     1       3.118  -2.023   2.641  0.00  0.00    +0.051 A 
ATOM      3  C   UNL     1       3.678  -2.447   3.835  0.00  0.00    +0.163 A 
ATOM      4  C   UNL     1       2.906  -3.159   4.748  0.00  0.00    +0.176 A 
ATOM      5  C   UNL     1       1.579  -3.436   4.462  0.00  0.00    +0.063 A 
ATOM      6  C   UNL     1       1.024  -3.005   3.269  0.00  0.00    +0.021 A 
ATOM      7 BR   UNL     1       0.526  -4.403   5.699  0.00  0.00    -0.046 Br
ENDROOT
BRANCH   1   8
ATOM      8  C   UNL     1       1.183  -1.831   1.066  0.00  0.00    -0.046 C 
BRANCH   8   9
ATOM      9  N   UNL     1       0.606  -0.487   1.258  0.00  0.00    +0.385 N 
ATOM     10  H1  UNL     1      -0.116  -0.529   1.987  0.00  0.00    -0.085 HD
ATOM     11  H2  UNL     1       1.348   0.161   1.548  0.00  0.00    -0.085 HD
BRANCH   9  12
ATOM     12  CA  UNL     1       0.002  -0.004   0.002  0.00  0.00    -0.046 C 
BRANCH  12  14
ATOM     13  C   UNL     1       1.417   2.055  -0.000  0.00  0.00    +0.002 C 
ATOM     14  C   UNL     1      -0.019   1.526   0.010  0.00  0.00    -0.017 C 
ENDBRANCH  12  14
BRANCH  12  15
ATOM     15  C   UNL     1      -1.429  -0.533  -0.113  0.00  0.00    +0.140 C 
BRANCH  15  16
ATOM     16  O   UNL     1      -2.227   0.020   0.936  0.00  0.00    -0.397 OA
ATOM     17  H   UNL     1      -3.148  -0.272   0.925  0.00  0.00    +0.209 HD
ENDBRANCH  15  16
ENDBRANCH  12  15
ENDBRANCH   9  12
ENDBRANCH   8   9
ENDBRANCH   1   8
BRANCH   4  18
ATOM     18  O   UNL     1       3.453  -3.581   5.920  0.00  0.00    -0.478 OA
BRANCH  18  19
ATOM     19  C   UNL     1       4.061  -4.874   5.923  0.00  0.00    +0.324 C 
BRANCH  19  20
ATOM     20  C   UNL     1       4.608  -5.169   7.296  0.00  0.00    +0.248 C 
ATOM     21  O   UNL     1       4.489  -4.352   8.184  0.00  0.00    -0.272 OA
ATOM     22  N   UNL     1       5.230  -6.340   7.536  0.00  0.00    -0.327 N 
ATOM     23  H   UNL     1       5.326  -6.993   6.825  0.00  0.00    +0.145 HD
ATOM     24  H   UNL     1       5.582  -6.530   8.420  0.00  0.00    +0.145 HD
ENDBRANCH  19  20
ENDBRANCH  18  19
ENDBRANCH   4  18
BRANCH   3  25
ATOM     25  O   UNL     1       4.981  -2.173   4.111  0.00  0.00    -0.489 OA
BRANCH  25  26
ATOM     26  C   UNL     1       5.712  -1.438   3.128  0.00  0.00    +0.226 C 
ATOM     27  C   UNL     1       7.148  -1.227   3.612  0.00  0.00    +0.048 C 
ENDBRANCH  25  26
ENDBRANCH   3  25
TORSDOF 11
