REMARK  Name = ZINC02420391
REMARK  7 active torsions:
REMARK  status: ('A' for Active; 'I' for Inactive)
REMARK    1  A    between atoms: C_1  and  O_2
REMARK    2  A    between atoms: O_2  and  C_3
REMARK    3  A    between atoms: C_8  and  C_9
REMARK    4  A    between atoms: N_10  and  N_11
REMARK    5  A    between atoms: C_12  and  N_32
REMARK    6  A    between atoms: C_13  and  S_24
REMARK    7  A    between atoms: S_24  and  C_27
REMARK                            x       y       z     vdW  Elec       q    Type
REMARK                         _______ _______ _______ _____ _____    ______ ____
ROOT
ATOM      1  N   UNL     1      -1.074  -3.043   1.967  0.00  0.00    -0.197 N 
ATOM      2  C   UNL     1      -2.369  -3.504   1.992  0.00  0.00    +0.148 A 
ATOM      3  C   UNL     1      -2.596  -4.231   3.112  0.00  0.00    +0.160 A 
ATOM      4  C   UNL     1      -1.399  -4.257   3.869  0.00  0.00    +0.113 A 
ATOM      5  C   UNL     1      -0.418  -3.480   3.100  0.00  0.00    +0.182 A 
ATOM      6  N   UNL     1       0.803  -3.335   3.563  0.00  0.00    -0.224 NA
ATOM      7  C   UNL     1       1.146  -3.897   4.729  0.00  0.00    +0.090 A 
ATOM      8  C   UNL     1       2.452  -3.747   5.231  0.00  0.00    +0.030 A 
ATOM      9  C   UNL     1       2.792  -4.321   6.417  0.00  0.00    +0.002 A 
ATOM     10  C   UNL     1       1.863  -5.061   7.147  0.00  0.00    +0.002 A 
ATOM     11  C   UNL     1       0.592  -5.229   6.694  0.00  0.00    +0.028 A 
ATOM     12  C   UNL     1       0.202  -4.650   5.471  0.00  0.00    +0.066 A 
ATOM     13  N   UNL     1      -1.048  -4.804   5.021  0.00  0.00    -0.349 N 
ATOM     14  H   UNL     1      -1.691  -5.322   5.532  0.00  0.00    +0.166 HD
ENDROOT
BRANCH   3  15
ATOM     15  S   UNL     1      -4.115  -5.008   3.550  0.00  0.00    +0.037 S 
ATOM     16  O   UNL     1      -4.102  -5.157   4.963  0.00  0.00    -0.164 OA
ATOM     17  O   UNL     1      -5.143  -4.303   2.868  0.00  0.00    -0.164 OA
BRANCH  15  18
ATOM     18  C   UNL     1      -4.083  -6.634   2.871  0.00  0.00    +0.131 A 
ATOM     19  C   UNL     1      -3.632  -7.783   3.430  0.00  0.00    +0.035 A 
ATOM     20  C   UNL     1      -3.708  -8.957   2.704  0.00  0.00    +0.009 A 
ATOM     21  C   UNL     1      -4.231  -8.923   1.453  0.00  0.00    +0.047 A 
ATOM     22  S   UNL     1      -4.643  -7.196   1.272  0.00  0.00    -0.078 S 
ENDBRANCH  15  18
ENDBRANCH   3  15
BRANCH   2  23
ATOM     23  N   UNL     1      -3.311  -3.258   1.009  0.00  0.00    -0.341 N 
ATOM     24  H   UNL     1      -3.075  -2.727   0.232  0.00  0.00    +0.144 HD
ATOM     25  H   UNL     1      -4.208  -3.617   1.096  0.00  0.00    +0.144 HD
ENDBRANCH   2  23
BRANCH   1  27
ATOM     26  C   UNL     1       0.068  -2.829  -0.061  0.00  0.00    +0.145 C 
ATOM     27  N   UNL     1      -0.510  -2.260   0.952  0.00  0.00    -0.171 NA
BRANCH  26  33
ATOM     28  C   UNL     1       0.605  -0.607  -1.055  0.00  0.00    +0.129 A 
ATOM     29  C   UNL     1       1.172   0.158  -2.061  0.00  0.00    +0.046 A 
ATOM     30  C   UNL     1       1.786  -0.456  -3.136  0.00  0.00    +0.004 A 
ATOM     31  C   UNL     1       1.839  -1.837  -3.217  0.00  0.00    +0.001 A 
ATOM     32  C   UNL     1       1.280  -2.614  -2.225  0.00  0.00    +0.013 A 
ATOM     33  C   UNL     1       0.662  -2.005  -1.129  0.00  0.00    +0.036 A 
BRANCH  28  35
ATOM     34  C   UNL     1      -0.017   1.425   0.010  0.00  0.00    +0.277 C 
ATOM     35  O   UNL     1       0.002  -0.004   0.002  0.00  0.00    -0.494 OA
ENDBRANCH  28  35
ENDBRANCH  26  33
ENDBRANCH   1  27
TORSDOF 6
