REMARK  Name = ZINC35427311
REMARK  7 active torsions:
REMARK  status: ('A' for Active; 'I' for Inactive)
REMARK    1  A    between atoms: C_1  and  C_2
REMARK    2  A    between atoms: C_2  and  C_3
REMARK    3  A    between atoms: C_8  and  N_9
REMARK    4  A    between atoms: C_24  and  C_26
REMARK    5  A    between atoms: C_30  and  O_32
REMARK    6  A    between atoms: O_32  and  C_33
REMARK    7  A    between atoms: N_35  and  C_38
REMARK                            x       y       z     vdW  Elec       q    Type
REMARK                         _______ _______ _______ _____ _____    ______ ____
ROOT
ATOM      1  N   UNL     1      -1.536  -0.324  -2.385  0.00  0.00    -0.269 N 
ATOM      2  C   UNL     1      -2.168  -0.549  -3.554  0.00  0.00    +0.308 C 
ATOM      3  O   UNL     1      -3.307  -0.974  -3.559  0.00  0.00    -0.252 OA
ATOM      4  N   UNL     1      -1.536  -0.303  -4.719  0.00  0.00    -0.268 N 
ATOM      5  C   UNL     1      -0.153   0.207  -4.756  0.00  0.00    +0.148 C 
ATOM      6  C   UNL     1       0.059   1.245  -5.834  0.00  0.00    +0.004 A 
ATOM      7  C   UNL     1       0.291   2.606  -5.558  0.00  0.00    -0.034 A 
ATOM      8  C   UNL     1       0.485   3.444  -6.612  0.00  0.00    -0.021 A 
ATOM      9  S   UNL     1       0.356   2.382  -8.026  0.00  0.00    -0.077 S 
ATOM     10  C   UNL     1       0.032   0.884  -7.146  0.00  0.00    +0.090 A 
ATOM     11  N   UNL     1      -0.227  -0.405  -7.594  0.00  0.00    -0.312 N 
ATOM     12  C   UNL     1       0.386  -1.171  -8.526  0.00  0.00    +0.092 A 
ATOM     13  C   UNL     1      -0.213  -2.383  -8.532  0.00  0.00    +0.020 A 
ATOM     14  C   UNL     1      -1.251  -2.349  -7.575  0.00  0.00    +0.025 A 
ATOM     15  C   UNL     1      -1.256  -1.123  -7.032  0.00  0.00    +0.049 A 
ATOM     16  C   UNL     1      -2.196  -0.537  -6.026  0.00  0.00    +0.155 C 
ATOM     17  C   UNL     1       0.742   4.914  -6.553  0.00  0.00    -0.036 C 
ATOM     18  N   UNL     1       0.388   5.391  -5.202  0.00  0.00    +0.381 N 
ATOM     19  C   UNL     1       1.030   4.535  -4.197  0.00  0.00    -0.074 C 
ATOM     20  C   UNL     1       0.337   3.170  -4.140  0.00  0.00    +0.018 C 
ATOM     21  C   UNL     1       0.852   6.775  -5.035  0.00  0.00    -0.096 C 
ATOM     22  H   UNL     1      -0.651   0.072  -2.380  0.00  0.00    +0.156 HD
ATOM     23  H   UNL     1      -0.613   5.356  -5.085  0.00  0.00    -0.082 HD
ENDROOT
BRANCH   1  29
ATOM     24  C   UNL     1      -1.401  -1.131  -0.113  0.00  0.00    -0.026 A 
ATOM     25  C   UNL     1      -2.017  -1.460   1.079  0.00  0.00    +0.005 A 
ATOM     26  C   UNL     1      -3.387  -1.329   1.210  0.00  0.00    +0.000 A 
ATOM     27  C   UNL     1      -4.145  -0.869   0.149  0.00  0.00    +0.002 A 
ATOM     28  C   UNL     1      -3.535  -0.539  -1.045  0.00  0.00    +0.023 A 
ATOM     29  C   UNL     1      -2.158  -0.663  -1.178  0.00  0.00    +0.038 A 
BRANCH  24  31
ATOM     30  C   UNL     1       0.765   0.067   0.047  0.00  0.00    +0.009 C 
ATOM     31  C   UNL     1       0.093  -1.274  -0.255  0.00  0.00    +0.033 C 
ENDBRANCH  24  31
ENDBRANCH   1  29
BRANCH  16  32
ATOM     32  C   UNL     1      -2.718   0.775  -6.554  0.00  0.00    -0.018 A 
ATOM     33  C   UNL     1      -2.817   0.979  -7.918  0.00  0.00    +0.006 A 
ATOM     34  C   UNL     1      -3.296   2.181  -8.406  0.00  0.00    +0.004 A 
ATOM     35  C   UNL     1      -3.675   3.181  -7.532  0.00  0.00    +0.045 A 
ATOM     36  C   UNL     1      -3.577   2.978  -6.163  0.00  0.00    +0.120 A 
ATOM     37  C   UNL     1      -3.102   1.769  -5.676  0.00  0.00    +0.051 A 
BRANCH  36  38
ATOM     38  O   UNL     1      -3.950   3.960  -5.301  0.00  0.00    -0.495 OA
ATOM     39  C   UNL     1      -4.434   5.177  -5.873  0.00  0.00    +0.277 C 
ENDBRANCH  36  38
ENDBRANCH  16  32
TORSDOF 4
