REMARK  Name = ZINC07738112
REMARK  9 active torsions:
REMARK  status: ('A' for Active; 'I' for Inactive)
REMARK    1  A    between atoms: C_1  and  O_2
REMARK    2  A    between atoms: O_2  and  C_3
REMARK    3  A    between atoms: C_6  and  C_9
REMARK    4  A    between atoms: C_9  and  C_11
REMARK    5  A    between atoms: C_9  and  N_48
REMARK    6  A    between atoms: C_17  and  C_18
REMARK    7  A    between atoms: C_17  and  N_48
REMARK    8  A    between atoms: N_20  and  C_21
REMARK    9  A    between atoms: C_22  and  C_26
REMARK                            x       y       z     vdW  Elec       q    Type
REMARK                         _______ _______ _______ _____ _____    ______ ____
ROOT
ATOM      1  N   UNL     1      -0.709   1.566   1.217  0.00  0.00    +0.392 N 
ATOM      2  H   UNL     1      -0.723   2.592   1.214  0.00  0.00    -0.084 HD
ATOM      3  H   UNL     1      -1.672   1.210   1.216  0.00  0.00    -0.084 HD
ENDROOT
BRANCH   1   4
ATOM      4  C   UNL     1      -0.016   1.091   2.429  0.00  0.00    -0.009 C 
BRANCH   4   8
ATOM      5  C   UNL     1      -2.800   0.942   5.668  0.00  0.00    +0.120 A 
ATOM      6  C   UNL     1      -1.855  -0.063   5.517  0.00  0.00    +0.046 A 
ATOM      7  C   UNL     1      -0.957  -0.012   4.469  0.00  0.00    +0.006 A 
ATOM      8  C   UNL     1      -0.998   1.038   3.571  0.00  0.00    -0.057 A 
ATOM      9  C   UNL     1      -1.935   2.044   3.723  0.00  0.00    +0.006 A 
ATOM     10  C   UNL     1      -2.840   1.995   4.766  0.00  0.00    +0.046 A 
BRANCH   5  12
ATOM     11  C   UNL     1      -4.629   1.963   6.792  0.00  0.00    +0.277 C 
ATOM     12  O   UNL     1      -3.685   0.895   6.698  0.00  0.00    -0.495 OA
ENDBRANCH   5  12
ENDBRANCH   4   8
BRANCH   4  13
ATOM     13  C   UNL     1       1.103   2.040   2.773  0.00  0.00    -0.057 A 
ATOM     14  C   UNL     1       0.923   3.403   2.628  0.00  0.00    +0.002 A 
ATOM     15  C   UNL     1       1.949   4.273   2.947  0.00  0.00    +0.000 A 
ATOM     16  C   UNL     1       3.158   3.780   3.402  0.00  0.00    +0.000 A 
ATOM     17  C   UNL     1       3.339   2.417   3.542  0.00  0.00    +0.000 A 
ATOM     18  C   UNL     1       2.312   1.546   3.227  0.00  0.00    +0.002 A 
ENDBRANCH   4  13
ENDBRANCH   1   4
BRANCH   1  19
ATOM     19  C   UNL     1      -0.013   1.086   0.008  0.00  0.00    +0.016 C 
BRANCH  19  20
ATOM     20  C   UNL     1      -0.742   1.585  -1.213  0.00  0.00    +0.201 C 
ATOM     21  O   UNL     1      -1.736   2.268  -1.088  0.00  0.00    -0.278 OA
ATOM     22  N   UNL     1      -0.288   1.272  -2.443  0.00  0.00    -0.281 N 
ATOM     23  H   UNL     1       0.507   0.726  -2.543  0.00  0.00    +0.155 HD
BRANCH  22  24
ATOM     24  C   UNL     1      -0.959   1.732  -3.566  0.00  0.00    +0.084 A 
ATOM     25  C   UNL     1      -0.646   1.522  -4.904  0.00  0.00    +0.065 A 
ATOM     26  C   UNL     1      -1.528   2.120  -5.878  0.00  0.00    +0.022 A 
ATOM     27  C   UNL     1      -2.567   2.835  -5.410  0.00  0.00    +0.048 A 
ATOM     28  S   UNL     1      -2.385   2.712  -3.642  0.00  0.00    -0.081 S 
BRANCH  25  29
ATOM     29  C   UNL     1       0.519   0.730  -5.307  0.00  0.00    +0.244 C 
ATOM     30  O   UNL     1       1.241   0.236  -4.460  0.00  0.00    -0.270 OA
ATOM     31  N   UNL     1       0.792   0.547  -6.614  0.00  0.00    -0.325 N 
ATOM     32  H   UNL     1       0.217   0.941  -7.289  0.00  0.00    +0.145 HD
ATOM     33  H   UNL     1       1.563   0.023  -6.880  0.00  0.00    +0.145 HD
ENDBRANCH  25  29
ENDBRANCH  22  24
ENDBRANCH  19  20
ENDBRANCH   1  19
TORSDOF 8
