REMARK  Name = ZINC01048749
REMARK  7 active torsions:
REMARK  status: ('A' for Active; 'I' for Inactive)
REMARK    1  A    between atoms: C_1  and  C_2
REMARK    2  A    between atoms: C_3  and  N_15
REMARK    3  A    between atoms: C_4  and  C_7
REMARK    4  A    between atoms: N_18  and  N_19
REMARK    5  A    between atoms: N_19  and  C_20
REMARK    6  A    between atoms: N_19  and  C_21
REMARK    7  A    between atoms: C_26  and  C_27
REMARK                            x       y       z     vdW  Elec       q    Type
REMARK                         _______ _______ _______ _____ _____    ______ ____
ROOT
ATOM      1  N   UNL     1      -2.664   6.007   0.388  0.00  0.00    -0.264 N 
ATOM      2  C   UNL     1      -3.741   6.802   0.545  0.00  0.00    +0.320 C 
ATOM      3  O   UNL     1      -3.607   8.010   0.571  0.00  0.00    -0.251 OA
ATOM      4  N   UNL     1      -4.967   6.257   0.675  0.00  0.00    -0.218 N 
ATOM      5  H   UNL     1      -2.778   5.049   0.289  0.00  0.00    +0.157 HD
ATOM      6  H   UNL     1      -5.734   6.825   0.848  0.00  0.00    +0.175 HD
ENDROOT
BRANCH   1   9
ATOM      7  C   UNL     1      -0.144   4.820  -1.044  0.00  0.00    +0.091 C 
ATOM      8  C   UNL     1      -0.257   6.089  -0.239  0.00  0.00    +0.156 A 
ATOM      9  C   UNL     1      -1.374   6.567   0.366  0.00  0.00    +0.105 A 
ATOM     10  C   UNL     1      -0.908   7.813   0.994  0.00  0.00    +0.138 A 
ATOM     11  N   UNL     1       0.363   7.903   0.684  0.00  0.00    -0.076 NA
ATOM     12  O   UNL     1       0.728   6.964   0.017  0.00  0.00    -0.357 OA
BRANCH  10  13
ATOM     13  C   UNL     1      -1.707   8.768   1.800  0.00  0.00    +0.042 A 
ATOM     14  C   UNL     1      -2.461   8.313   2.881  0.00  0.00    +0.052 A 
ATOM     15  C   UNL     1      -3.203   9.207   3.628  0.00  0.00    +0.021 A 
ATOM     16  C   UNL     1      -3.199  10.552   3.306  0.00  0.00    +0.003 A 
ATOM     17  C   UNL     1      -2.458  11.009   2.231  0.00  0.00    +0.021 A 
ATOM     18  C   UNL     1      -1.708  10.126   1.480  0.00  0.00    +0.052 A 
ATOM     19 CL   UNL     1      -0.773  10.703   0.136  0.00  0.00    -0.083 Cl
ATOM     20 CL   UNL     1      -2.466   6.625   3.288  0.00  0.00    -0.083 Cl
ENDBRANCH  10  13
ENDBRANCH   1   9
BRANCH   4  21
ATOM     21  N   UNL     1      -5.134   4.871   0.558  0.00  0.00    -0.252 N 
ATOM     22  C   UNL     1      -4.972   4.220  -0.744  0.00  0.00    +0.154 C 
BRANCH  21  23
ATOM     23  C   UNL     1      -5.452   4.113   1.680  0.00  0.00    +0.067 A 
ATOM     24  C   UNL     1      -6.780   3.853   1.992  0.00  0.00    +0.026 A 
ATOM     25  C   UNL     1      -7.095   3.100   3.105  0.00  0.00    +0.005 A 
ATOM     26  C   UNL     1      -6.095   2.597   3.919  0.00  0.00    +0.040 A 
ATOM     27  C   UNL     1      -4.768   2.843   3.626  0.00  0.00    +0.143 A 
ATOM     28  C   UNL     1      -4.433   3.601   2.498  0.00  0.00    +0.109 A 
ATOM     29  F   UNL     1      -3.795   2.350   4.424  0.00  0.00    -0.204 F 
BRANCH  28  30
ATOM     30  C   UNL     1      -3.059   3.856   2.183  0.00  0.00    +0.104 C 
ATOM     31  N   UNL     1      -1.970   4.059   1.934  0.00  0.00    -0.191 NA
ENDBRANCH  28  30
ENDBRANCH  21  23
ENDBRANCH   4  21
TORSDOF 5
