REMARK  Name = ZINC07685068
REMARK  12 active torsions:
REMARK  status: ('A' for Active; 'I' for Inactive)
REMARK    1  A    between atoms: C_1  and  C_2
REMARK    2  A    between atoms: C_2  and  N_57
REMARK    3  A    between atoms: C_3  and  C_4
REMARK    4  A    between atoms: C_3  and  N_57
REMARK    5  A    between atoms: N_6  and  C_7
REMARK    6  A    between atoms: C_8  and  C_16
REMARK    7  A    between atoms: C_19  and  C_20
REMARK    8  A    between atoms: C_19  and  N_57
REMARK    9  A    between atoms: N_22  and  C_23
REMARK   10  A    between atoms: C_23  and  C_24
REMARK   11  A    between atoms: C_23  and  C_25
REMARK   12  A    between atoms: C_23  and  C_26
REMARK                            x       y       z     vdW  Elec       q    Type
REMARK                         _______ _______ _______ _____ _____    ______ ____
ROOT
ATOM      1  C   UNL     1      -0.012   1.210   0.013  0.00  0.00    +0.201 C 
ATOM      2  O   UNL     1       0.000  -0.001   0.064  0.00  0.00    -0.278 OA
ATOM      3  N   UNL     1      -1.185   1.872  -0.015  0.00  0.00    -0.281 N 
ATOM      4  H   UNL     1      -1.195   2.841  -0.055  0.00  0.00    +0.155 HD
ENDROOT
BRANCH   3   5
ATOM      5  C   UNL     1      -2.379   1.168   0.015  0.00  0.00    +0.084 A 
ATOM      6  C   UNL     1      -3.675   1.666  -0.000  0.00  0.00    +0.068 A 
ATOM      7  C   UNL     1      -4.764   0.705   0.035  0.00  0.00    -0.023 A 
ATOM      8  C   UNL     1      -4.386  -0.591   0.090  0.00  0.00    -0.004 A 
ATOM      9  S   UNL     1      -2.616  -0.547   0.088  0.00  0.00    -0.077 S 
ATOM     10  C   UNL     1      -5.281  -1.791   0.142  0.00  0.00    +0.043 C 
ATOM     11  C   UNL     1      -6.698  -1.323   0.501  0.00  0.00    +0.005 C 
ATOM     12  C   UNL     1      -7.063  -0.129  -0.387  0.00  0.00    +0.005 C 
ATOM     13  C   UNL     1      -6.237   1.093   0.018  0.00  0.00    +0.037 C 
BRANCH   6  14
ATOM     14  C   UNL     1      -3.934   3.108  -0.053  0.00  0.00    +0.244 C 
ATOM     15  O   UNL     1      -4.045   3.667  -1.129  0.00  0.00    -0.270 OA
ATOM     16  N   UNL     1      -4.050   3.814   1.089  0.00  0.00    -0.325 N 
ATOM     17  H   UNL     1      -3.962   3.369   1.946  0.00  0.00    +0.145 HD
ATOM     18  H   UNL     1      -4.222   4.768   1.054  0.00  0.00    +0.145 HD
ENDBRANCH   6  14
ENDBRANCH   3   5
BRANCH   1  19
ATOM     19  C   UNL     1       1.286   1.975  -0.026  0.00  0.00    +0.020 C 
BRANCH  19  20
ATOM     20  N   UNL     1       2.404   1.020   0.127  0.00  0.00    +0.391 N 
ATOM     21  H   UNL     1       2.157   0.331   0.846  0.00  0.00    -0.080 HD
BRANCH  20  23
ATOM     22  C   UNL     1       3.526   2.043   2.042  0.00  0.00    -0.017 C 
ATOM     23  C   UNL     1       3.627   1.736   0.547  0.00  0.00    -0.081 C 
ENDBRANCH  20  23
BRANCH  20  24
ATOM     24  C   UNL     1       2.644   0.316  -1.151  0.00  0.00    +0.019 C 
BRANCH  24  25
ATOM     25  C   UNL     1       3.630  -0.799  -0.913  0.00  0.00    +0.197 C 
ATOM     26  O   UNL     1       4.093  -0.973   0.194  0.00  0.00    -0.278 OA
ATOM     27  N   UNL     1       3.998  -1.601  -1.931  0.00  0.00    -0.312 N 
ATOM     28  H   UNL     1       3.628  -1.462  -2.817  0.00  0.00    +0.149 HD
BRANCH  27  29
ATOM     29  C   UNL     1       4.956  -2.685  -1.700  0.00  0.00    +0.026 C 
ATOM     30  C   UNL     1       4.393  -3.649  -0.654  0.00  0.00    +0.031 C 
ATOM     31  C   UNL     1       5.199  -3.438  -3.010  0.00  0.00    +0.031 C 
ATOM     32  C   UNL     1       6.277  -2.099  -1.196  0.00  0.00    +0.031 C 
ENDBRANCH  27  29
ENDBRANCH  24  25
ENDBRANCH  20  24
ENDBRANCH  19  20
ENDBRANCH   1  19
TORSDOF 8
