REMARK  Name = ZINC08789395
REMARK  8 active torsions:
REMARK  status: ('A' for Active; 'I' for Inactive)
REMARK    1  A    between atoms: C_1  and  C_2
REMARK    2  A    between atoms: C_2  and  O_3
REMARK    3  A    between atoms: O_3  and  C_4
REMARK    4  A    between atoms: C_4  and  C_6
REMARK    5  A    between atoms: C_9  and  N_12
REMARK    6  A    between atoms: C_17  and  C_35
REMARK    7  A    between atoms: C_28  and  C_33
REMARK    8  A    between atoms: C_35  and  C_36
REMARK                            x       y       z     vdW  Elec       q    Type
REMARK                         _______ _______ _______ _____ _____    ______ ____
ROOT
ATOM      1  N   UNL     1       1.996  -0.285   8.382  0.00  0.00    -0.210 N 
ATOM      2  C   UNL     1       1.600   0.107   9.598  0.00  0.00    +0.228 C 
ATOM      3  O   UNL     1       0.679   0.862   9.825  0.00  0.00    -0.275 OA
ATOM      4  C   UNL     1       2.479  -0.538  10.645  0.00  0.00    +0.074 C 
ATOM      5  C   UNL     1       3.344   0.545  11.323  0.00  0.00    -0.049 C 
ATOM      6  C   UNL     1       4.841  -0.720  10.052  0.00  0.00    +0.050 C 
ATOM      7  C   UNL     1       3.479  -1.380   9.805  0.00  0.00    +0.088 C 
ATOM      8  C   UNL     1       3.037  -1.126   8.381  0.00  0.00    +0.229 C 
ATOM      9  O   UNL     1       3.548  -1.607   7.392  0.00  0.00    -0.275 OA
ATOM     10  C   UNL     1       5.625  -1.451  11.104  0.00  0.00    -0.027 A 
ATOM     11  C   UNL     1       5.384  -1.755  12.426  0.00  0.00    +0.006 A 
ATOM     12  C   UNL     1       6.323  -2.461  13.157  0.00  0.00    +0.020 A 
ATOM     13  C   UNL     1       7.504  -2.861  12.556  0.00  0.00    +0.046 A 
ATOM     14  C   UNL     1       7.749  -2.559  11.231  0.00  0.00    -0.011 A 
ATOM     15  C   UNL     1       6.809  -1.849  10.489  0.00  0.00    +0.040 A 
ATOM     16  N   UNL     1       6.824  -1.431   9.157  0.00  0.00    -0.286 N 
ATOM     17  C   UNL     1       5.705  -0.760   8.821  0.00  0.00    +0.211 C 
ATOM     18  O   UNL     1       5.444  -0.283   7.737  0.00  0.00    -0.277 OA
ATOM     19  C   UNL     1       9.037  -3.001  10.586  0.00  0.00    +0.047 C 
ATOM     20 CL   UNL     1       8.683  -3.747  13.473  0.00  0.00    -0.083 Cl
ATOM     21  H   UNL     1       7.556  -1.603   8.544  0.00  0.00    +0.155 HD
ATOM     22  N   UNL     1       4.531   0.636  10.470  0.00  0.00    +0.394 N 
ATOM     23  H   UNL     1       5.317   1.033  10.998  0.00  0.00    -0.083 HD
ATOM     24  H   UNL     1       4.336   1.224   9.652  0.00  0.00    -0.083 HD
ENDROOT
BRANCH   1  28
ATOM     25  C   UNL     1       0.130   0.995   4.881  0.00  0.00    +0.059 A 
ATOM     26  C   UNL     1       0.847   1.903   5.665  0.00  0.00    +0.017 A 
ATOM     27  C   UNL     1       1.457   1.478   6.824  0.00  0.00    +0.025 A 
ATOM     28  C   UNL     1       1.370   0.144   7.208  0.00  0.00    +0.044 A 
ATOM     29  C   UNL     1       0.662  -0.764   6.428  0.00  0.00    +0.025 A 
ATOM     30  C   UNL     1       0.045  -0.345   5.271  0.00  0.00    +0.017 A 
BRANCH  25  31
ATOM     31  C   UNL     1      -0.531   1.447   3.642  0.00  0.00    +0.339 C 
ATOM     32  O   UNL     1      -1.149   0.656   2.959  0.00  0.00    -0.245 OA
BRANCH  31  33
ATOM     33  O   UNL     1      -0.448   2.739   3.268  0.00  0.00    -0.461 OA
BRANCH  33  35
ATOM     34  C   UNL     1      -0.918   4.608   1.778  0.00  0.00    +0.048 C 
ATOM     35  C   UNL     1      -1.122   3.114   2.038  0.00  0.00    +0.229 C 
ENDBRANCH  33  35
ENDBRANCH  31  33
ENDBRANCH  25  31
ENDBRANCH   1  28
BRANCH   5  36
ATOM     36  C   UNL     1       2.589   1.875  11.373  0.00  0.00    +0.080 C 
BRANCH  36  37
ATOM     37  C   UNL     1       3.399   2.883  12.146  0.00  0.00    +0.209 C 
ATOM     38  O   UNL     1       4.474   2.570  12.611  0.00  0.00    -0.276 OA
ATOM     39  N   UNL     1       2.929   4.134  12.321  0.00  0.00    -0.329 N 
ATOM     40  H   UNL     1       2.069   4.385  11.949  0.00  0.00    +0.145 HD
ATOM     41  H   UNL     1       3.450   4.784  12.818  0.00  0.00    +0.145 HD
ENDBRANCH  36  37
ENDBRANCH   5  36
TORSDOF 6
