REMARK  Name = ZINC39634688
REMARK  15 active torsions:
REMARK  status: ('A' for Active; 'I' for Inactive)
REMARK    1  A    between atoms: C_1  and  C_2
REMARK    2  A    between atoms: C_2  and  C_3
REMARK    3  A    between atoms: C_2  and  N_4
REMARK    4  A    between atoms: N_4  and  C_5
REMARK    5  A    between atoms: N_4  and  C_33
REMARK    6  A    between atoms: C_5  and  C_6
REMARK    7  A    between atoms: C_6  and  N_7
REMARK    8  A    between atoms: C_8  and  C_10
REMARK    9  A    between atoms: C_21  and  C_23
REMARK   10  A    between atoms: C_25  and  O_31
REMARK   11  A    between atoms: C_27  and  O_29
REMARK   12  A    between atoms: O_29  and  C_30
REMARK   13  A    between atoms: O_31  and  C_32
REMARK   14  A    between atoms: C_33  and  C_34
REMARK   15  A    between atoms: C_33  and  C_35
REMARK                            x       y       z     vdW  Elec       q    Type
REMARK                         _______ _______ _______ _____ _____    ______ ____
ROOT
ATOM      1  C   UNL     1      -8.542  -1.022  -4.280  0.00  0.00    +0.100 C 
ATOM      2  C   UNL     1      -8.688  -2.468  -4.804  0.00  0.00    +0.121 C 
ATOM      3  N   UNL     1     -10.143  -2.741  -4.751  0.00  0.00    -0.296 N 
ATOM      4  C   UNL     1     -10.772  -1.470  -5.186  0.00  0.00    +0.115 C 
ATOM      5  C   UNL     1      -9.911  -0.369  -4.535  0.00  0.00    -0.004 C 
ATOM      6  C   UNL     1     -10.537   0.079  -3.218  0.00  0.00    -0.010 C 
ATOM      7  C   UNL     1     -11.871   0.775  -3.502  0.00  0.00    -0.082 C 
ATOM      8  N   UNL     1     -11.644   1.931  -4.378  0.00  0.00    +0.379 N 
ATOM      9  C   UNL     1     -11.129   1.482  -5.677  0.00  0.00    -0.082 C 
ATOM     10  C   UNL     1      -9.764   0.816  -5.484  0.00  0.00    -0.010 C 
ATOM     11  C   UNL     1     -10.757  -3.885  -4.390  0.00  0.00    +0.247 C 
ATOM     12  O   UNL     1     -10.105  -4.811  -3.948  0.00  0.00    -0.270 OA
ATOM     13  H   UNL     1     -12.514   2.423  -4.515  0.00  0.00    -0.086 HD
ATOM     14  H   UNL     1     -10.975   2.551  -3.948  0.00  0.00    -0.086 HD
ENDROOT
BRANCH  11  15
ATOM     15  C   UNL     1     -12.223  -4.014  -4.531  0.00  0.00    +0.044 A 
ATOM     16  C   UNL     1     -12.921  -3.162  -5.387  0.00  0.00    +0.059 A 
ATOM     17  C   UNL     1     -14.294  -3.287  -5.517  0.00  0.00    +0.124 A 
ATOM     18  C   UNL     1     -14.976  -4.258  -4.797  0.00  0.00    +0.091 A 
ATOM     19  C   UNL     1     -14.286  -5.107  -3.945  0.00  0.00    +0.124 A 
ATOM     20  C   UNL     1     -12.911  -4.993  -3.814  0.00  0.00    +0.059 A 
BRANCH  19  21
ATOM     21  O   UNL     1     -14.958  -6.056  -3.242  0.00  0.00    -0.495 OA
ATOM     22  C   UNL     1     -16.373  -6.122  -3.430  0.00  0.00    +0.277 C 
ENDBRANCH  19  21
BRANCH  17  23
ATOM     23  O   UNL     1     -14.976  -2.458  -6.351  0.00  0.00    -0.495 OA
ATOM     24  C   UNL     1     -16.390  -2.642  -6.437  0.00  0.00    +0.277 C 
ENDBRANCH  17  23
ENDBRANCH  11  15
BRANCH   1  26
ATOM     25  N   UNL     1      -7.627   0.038  -2.240  0.00  0.00    -0.317 N 
ATOM     26  C   UNL     1      -8.230  -1.027  -2.805  0.00  0.00    +0.218 C 
ATOM     27  O   UNL     1      -8.522  -1.989  -2.127  0.00  0.00    -0.275 OA
ATOM     28  H   UNL     1      -7.394   0.807  -2.783  0.00  0.00    +0.149 HD
BRANCH  25  29
ATOM     29  C   UNL     1      -7.324   0.033  -0.807  0.00  0.00    +0.085 C 
BRANCH  29  30
ATOM     30  C   UNL     1      -6.646   1.350  -0.424  0.00  0.00    -0.059 C 
BRANCH  30  31
ATOM     31  N   UNL     1      -6.278   1.316   0.997  0.00  0.00    +0.384 N 
ATOM     32  H   UNL     1      -7.099   1.130   1.553  0.00  0.00    -0.081 HD
BRANCH  31  34
ATOM     33  C   UNL     1      -6.740   3.716   1.149  0.00  0.00    -0.014 C 
ATOM     34  C   UNL     1      -5.707   2.613   1.386  0.00  0.00    -0.074 C 
ATOM     35  C   UNL     1      -5.328   2.579   2.868  0.00  0.00    -0.014 C 
ENDBRANCH  31  34
BRANCH  31  36
ATOM     36  C   UNL     1      -5.285   0.257   1.222  0.00  0.00    -0.074 C 
ATOM     37  C   UNL     1      -3.890   0.785   0.878  0.00  0.00    -0.014 C 
ATOM     38  C   UNL     1      -5.320  -0.173   2.689  0.00  0.00    -0.014 C 
ENDBRANCH  31  36
ENDBRANCH  30  31
ENDBRANCH  29  30
ENDBRANCH  25  29
ENDBRANCH   1  26
TORSDOF 9
