REMARK  Name = ZINC42528972
REMARK  9 active torsions:
REMARK  status: ('A' for Active; 'I' for Inactive)
REMARK    1  A    between atoms: C_1  and  C_2
REMARK    2  A    between atoms: C_2  and  C_3
REMARK    3  A    between atoms: C_2  and  N_4
REMARK    4  A    between atoms: N_4  and  C_5
REMARK    5  A    between atoms: N_4  and  S_10
REMARK    6  A    between atoms: C_5  and  C_6
REMARK    7  A    between atoms: C_6  and  C_7
REMARK    8  A    between atoms: C_7  and  N_9
REMARK    9  A    between atoms: S_10  and  C_13
REMARK                            x       y       z     vdW  Elec       q    Type
REMARK                         _______ _______ _______ _____ _____    ______ ____
ROOT
ATOM      1  N   UNL     1      -1.371  -0.516   0.130  0.00  0.00    -0.173 NA
ENDROOT
BRANCH   1   3
ATOM      2  C   UNL     1      -0.130   1.579  -0.102  0.00  0.00    +0.025 C 
ATOM      3  C   UNL     1      -0.034   0.052  -0.054  0.00  0.00    +0.074 C 
ATOM      4  C   UNL     1       0.863  -0.365   1.114  0.00  0.00    +0.025 C 
ENDBRANCH   1   3
BRANCH   1   5
ATOM      5  S   UNL     1      -1.946  -1.643  -0.938  0.00  0.00    +0.067 S 
ATOM      6  O   UNL     1      -3.365  -1.585  -0.865  0.00  0.00    -0.152 OA
ATOM      7  O   UNL     1      -1.238  -1.448  -2.155  0.00  0.00    -0.152 OA
BRANCH   5   8
ATOM      8  C   UNL     1      -1.475  -3.227  -0.329  0.00  0.00    +0.144 A 
ATOM      9  C   UNL     1      -2.148  -4.055   0.507  0.00  0.00    +0.038 A 
ATOM     10  C   UNL     1      -1.578  -5.265   0.855  0.00  0.00    +0.030 A 
ATOM     11  C   UNL     1      -0.362  -5.588   0.348  0.00  0.00    +0.080 A 
ATOM     12  S   UNL     1       0.010  -4.162  -0.658  0.00  0.00    -0.057 S 
ATOM     13 CL   UNL     1       0.585  -7.021   0.607  0.00  0.00    -0.076 Cl
ENDBRANCH   5   8
ENDBRANCH   1   5
BRANCH   1  14
ATOM     14  C   UNL     1      -2.200  -0.087   1.260  0.00  0.00    +0.116 C 
BRANCH  14  15
ATOM     15  C   UNL     1      -2.978   1.172   0.873  0.00  0.00    +0.075 C 
BRANCH  15  16
ATOM     16  C   UNL     1      -3.926   1.539   1.985  0.00  0.00    +0.047 C 
ATOM     17  S   UNL     1      -3.991   0.643   3.308  0.00  0.00    -0.041 S 
BRANCH  16  18
ATOM     18  N   UNL     1      -4.720   2.621   1.865  0.00  0.00    -0.355 N 
ATOM     19  H   UNL     1      -4.680   3.165   1.062  0.00  0.00    +0.143 HD
ATOM     20  H   UNL     1      -5.331   2.857   2.580  0.00  0.00    +0.143 HD
ENDBRANCH  16  18
ENDBRANCH  15  16
ENDBRANCH  14  15
ENDBRANCH   1  14
TORSDOF 7
