REMARK  Name = ZINC28933274
REMARK  9 active torsions:
REMARK  status: ('A' for Active; 'I' for Inactive)
REMARK    1  A    between atoms: C_1  and  C_2
REMARK    2  A    between atoms: C_9  and  C_16
REMARK    3  A    between atoms: C_11  and  O_12
REMARK    4  A    between atoms: C_16  and  S_17
REMARK    5  A    between atoms: S_17  and  C_18
REMARK    6  A    between atoms: C_21  and  C_29
REMARK    7  A    between atoms: N_22  and  C_23
REMARK    8  A    between atoms: C_32  and  O_35
REMARK    9  A    between atoms: O_35  and  C_36
REMARK                            x       y       z     vdW  Elec       q    Type
REMARK                         _______ _______ _______ _____ _____    ______ ____
ROOT
ATOM      1  S   UNL     1      -6.591   0.658  -0.180  0.00  0.00    -0.081 S 
ENDROOT
BRANCH   1   2
ATOM      2  C   UNL     1      -4.840   0.547  -0.018  0.00  0.00    +0.197 A 
ATOM      3  N   UNL     1      -4.142  -0.550   0.171  0.00  0.00    -0.122 NA
ATOM      4  N   UNL     1      -2.890  -0.271   0.245  0.00  0.00    -0.128 NA
ATOM      5  C   UNL     1      -2.709   1.023   0.109  0.00  0.00    +0.169 A 
ATOM      6  N   UNL     1      -3.954   1.589  -0.058  0.00  0.00    -0.270 N 
BRANCH   6   7
ATOM      7  C   UNL     1      -4.250   2.948  -0.235  0.00  0.00    +0.051 A 
ATOM      8  C   UNL     1      -4.083   3.839   0.817  0.00  0.00    +0.026 A 
ATOM      9  C   UNL     1      -4.370   5.178   0.638  0.00  0.00    +0.002 A 
ATOM     10  C   UNL     1      -4.834   5.630  -0.584  0.00  0.00    +0.000 A 
ATOM     11  C   UNL     1      -5.007   4.744  -1.632  0.00  0.00    +0.002 A 
ATOM     12  C   UNL     1      -4.716   3.405  -1.460  0.00  0.00    +0.026 A 
ENDBRANCH   6   7
BRANCH   5  13
ATOM     13  C   UNL     1      -1.415   1.736   0.136  0.00  0.00    +0.020 A 
ATOM     14  C   UNL     1      -1.313   3.021  -0.401  0.00  0.00    +0.015 A 
ATOM     15  C   UNL     1      -0.106   3.686  -0.369  0.00  0.00    +0.046 A 
ATOM     16  C   UNL     1       1.010   3.076   0.191  0.00  0.00    +0.120 A 
ATOM     17  C   UNL     1       0.914   1.796   0.721  0.00  0.00    +0.046 A 
ATOM     18  C   UNL     1      -0.290   1.125   0.694  0.00  0.00    +0.015 A 
BRANCH  16  19
ATOM     19  O   UNL     1       2.198   3.734   0.221  0.00  0.00    -0.495 OA
ATOM     20  C   UNL     1       3.305   3.049   0.811  0.00  0.00    +0.277 C 
ENDBRANCH  16  19
ENDBRANCH   5  13
ENDBRANCH   1   2
BRANCH   1  21
ATOM     21  C   UNL     1      -7.033  -1.090  -0.014  0.00  0.00    +0.113 C 
BRANCH  21  30
ATOM     22  C   UNL     1     -13.910  -1.590   5.636  0.00  0.00    +0.109 C 
ATOM     23  C   UNL     1     -12.955  -1.751   4.482  0.00  0.00    +0.214 C 
ATOM     24  O   UNL     1     -13.182  -2.571   3.617  0.00  0.00    -0.276 OA
ATOM     25  N   UNL     1     -11.849  -0.985   4.410  0.00  0.00    -0.286 N 
ATOM     26  C   UNL     1     -11.027  -1.049   3.285  0.00  0.00    +0.037 A 
ATOM     27  C   UNL     1      -9.647  -0.903   3.426  0.00  0.00    +0.024 A 
ATOM     28  C   UNL     1      -8.831  -0.964   2.335  0.00  0.00    +0.013 A 
ATOM     29  C   UNL     1      -9.380  -1.179   1.065  0.00  0.00    +0.022 A 
ATOM     30  C   UNL     1      -8.528  -1.242  -0.124  0.00  0.00    -0.020 A 
ATOM     31  C   UNL     1      -9.122  -1.448  -1.328  0.00  0.00    +0.092 A 
ATOM     32  C   UNL     1     -10.523  -1.589  -1.405  0.00  0.00    +0.285 A 
ATOM     33  O   UNL     1     -11.299  -1.525  -0.312  0.00  0.00    -0.425 OA
ATOM     34  C   UNL     1     -10.772  -1.322   0.915  0.00  0.00    +0.141 A 
ATOM     35  C   UNL     1     -11.588  -1.258   2.034  0.00  0.00    +0.070 A 
ATOM     36  H   UNL     1     -11.594  -0.309   5.240  0.00  0.00    +0.155 HD
BRANCH  32  37
ATOM     37  O   UNL     1     -11.042  -1.772  -2.491  0.00  0.00    -0.480 OA
ATOM     38  H   UNL     1     -12.134  -1.884  -2.567  0.00  0.00    +0.295 HD
ENDBRANCH  32  37
ENDBRANCH  21  30
ENDBRANCH   1  21
TORSDOF 7
