REMARK  Name = ZINC49166051
REMARK  8 active torsions:
REMARK  status: ('A' for Active; 'I' for Inactive)
REMARK    1  A    between atoms: C_1  and  C_2
REMARK    2  A    between atoms: C_3  and  C_7
REMARK    3  A    between atoms: C_9  and  C_10
REMARK    4  A    between atoms: C_9  and  C_12
REMARK    5  A    between atoms: C_12  and  C_14
REMARK    6  A    between atoms: C_14  and  C_16
REMARK    7  A    between atoms: C_14  and  N_17
REMARK    8  A    between atoms: C_18  and  C_20
REMARK                            x       y       z     vdW  Elec       q    Type
REMARK                         _______ _______ _______ _____ _____    ______ ____
ROOT
ATOM      1  C   UNL     1      -2.071   1.751  -0.258  0.00  0.00    +0.197 C 
ATOM      2  O   UNL     1      -0.882   1.506  -0.310  0.00  0.00    -0.289 OA
ENDROOT
BRANCH   1   5
ATOM      3  C   UNL     1      -2.534  -0.562   0.334  0.00  0.00    +0.210 C 
ATOM      4  O   UNL     1      -3.407  -1.584   0.446  0.00  0.00    -0.286 OA
ATOM      5  C   UNL     1      -2.993   0.717   0.007  0.00  0.00    +0.143 C 
BRANCH   3   8
ATOM      6  C   UNL     1      -0.801   0.621   2.669  0.00  0.00    +0.087 C 
ATOM      7  C   UNL     1      -0.328  -0.289   1.565  0.00  0.00    +0.113 A 
ATOM      8  C   UNL     1      -1.103  -0.793   0.555  0.00  0.00    +0.064 A 
ATOM      9  C   UNL     1      -0.197  -1.617  -0.263  0.00  0.00    +0.053 A 
ATOM     10  C   UNL     1       1.007  -1.530   0.321  0.00  0.00    +0.196 A 
ATOM     11  O   UNL     1       0.920  -0.737   1.400  0.00  0.00    -0.467 OA
ENDBRANCH   3   8
BRANCH   5  12
ATOM     12  C   UNL     1      -4.400   0.977  -0.058  0.00  0.00    +0.107 C 
ATOM     13  N   UNL     1      -5.516   1.184  -0.111  0.00  0.00    -0.191 NA
ENDBRANCH   5  12
ENDBRANCH   1   5
BRANCH   1  14
ATOM     14  C   UNL     1      -2.561   3.159  -0.476  0.00  0.00    +0.142 C 
ATOM     15  C   UNL     1      -2.849   3.815   0.876  0.00  0.00    +0.036 C 
BRANCH  14  16
ATOM     16  N   UNL     1      -1.534   3.929  -1.183  0.00  0.00    -0.301 N 
ATOM     17  C   UNL     1      -1.884   5.000  -1.922  0.00  0.00    +0.251 C 
ATOM     18  O   UNL     1      -3.054   5.328  -2.002  0.00  0.00    -0.270 OA
ATOM     19  H   UNL     1      -0.602   3.668  -1.119  0.00  0.00    +0.150 HD
BRANCH  17  20
ATOM     20  C   UNL     1      -0.857   5.771  -2.629  0.00  0.00    +0.074 A 
ATOM     21  C   UNL     1      -1.002   6.894  -3.428  0.00  0.00    +0.021 A 
ATOM     22  C   UNL     1       0.158   7.402  -3.962  0.00  0.00    +0.008 A 
ATOM     23  C   UNL     1       1.335   6.789  -3.682  0.00  0.00    +0.046 A 
ATOM     24  S   UNL     1       0.906   5.511  -2.680  0.00  0.00    -0.092 S 
ENDBRANCH  17  20
ENDBRANCH  14  16
ENDBRANCH   1  14
TORSDOF 6
