REMARK  Name = ZINC37376740
REMARK  6 active torsions:
REMARK  status: ('A' for Active; 'I' for Inactive)
REMARK    1  A    between atoms: C_6  and  N_7
REMARK    2  A    between atoms: C_8  and  N_32
REMARK    3  A    between atoms: C_10  and  C_24
REMARK    4  A    between atoms: N_16  and  C_17
REMARK    5  A    between atoms: C_17  and  C_18
REMARK    6  A    between atoms: C_18  and  N_19
REMARK                            x       y       z     vdW  Elec       q    Type
REMARK                         _______ _______ _______ _____ _____    ______ ____
ROOT
ATOM      1  N   UNL     1      -1.384  -0.600  -0.332  0.00  0.00    -0.216 N 
ATOM      2  C   UNL     1      -1.469  -1.895  -0.696  0.00  0.00    +0.131 A 
ATOM      3  C   UNL     1      -2.640  -2.407  -0.150  0.00  0.00    +0.086 A 
ATOM      4  C   UNL     1      -3.296  -3.658  -0.154  0.00  0.00    +0.089 A 
ATOM      5  N   UNL     1      -4.442  -3.769   0.505  0.00  0.00    -0.214 NA
ATOM      6  C   UNL     1      -4.983  -2.746   1.160  0.00  0.00    +0.218 A 
ATOM      7  N   UNL     1      -4.440  -1.548   1.216  0.00  0.00    -0.193 NA
ATOM      8  C   UNL     1      -3.274  -1.300   0.589  0.00  0.00    +0.189 A 
ATOM      9  N   UNL     1      -2.488  -0.254   0.455  0.00  0.00    -0.144 NA
ATOM     10  N   UNL     1      -6.181  -2.953   1.820  0.00  0.00    -0.315 N 
ATOM     11  H   UNL     1      -6.604  -3.825   1.796  0.00  0.00    +0.149 HD
ENDROOT
BRANCH   4  12
ATOM     12  C   UNL     1      -2.720  -4.815  -0.875  0.00  0.00    +0.003 A 
ATOM     13  C   UNL     1      -1.366  -5.125  -0.733  0.00  0.00    +0.013 A 
ATOM     14  C   UNL     1      -0.834  -6.204  -1.406  0.00  0.00    +0.040 A 
ATOM     15  C   UNL     1      -1.640  -6.981  -2.224  0.00  0.00    +0.142 A 
ATOM     16  C   UNL     1      -2.985  -6.677  -2.369  0.00  0.00    +0.077 A 
ATOM     17  C   UNL     1      -3.529  -5.603  -1.695  0.00  0.00    +0.033 A 
ATOM     18 CL   UNL     1      -3.988  -7.654  -3.396  0.00  0.00    -0.081 Cl
ATOM     19  F   UNL     1      -1.113  -8.037  -2.882  0.00  0.00    -0.204 F 
ENDBRANCH   4  12
BRANCH   1  25
ATOM     20  C   UNL     1      -0.607   1.610  -0.924  0.00  0.00    +0.029 A 
ATOM     21  C   UNL     1       0.422   2.463  -1.270  0.00  0.00    +0.022 A 
ATOM     22  C   UNL     1       1.715   1.983  -1.379  0.00  0.00    +0.041 A 
ATOM     23  C   UNL     1       1.981   0.645  -1.141  0.00  0.00    +0.022 A 
ATOM     24  C   UNL     1       0.956  -0.213  -0.794  0.00  0.00    +0.029 A 
ATOM     25  C   UNL     1      -0.343   0.268  -0.684  0.00  0.00    +0.068 A 
ATOM     26 CL   UNL     1       3.006   3.059  -1.814  0.00  0.00    -0.084 Cl
ENDBRANCH   1  25
BRANCH   2  27
ATOM     27  N   UNL     1      -0.557  -2.587  -1.471  0.00  0.00    -0.342 N 
ATOM     28  H   UNL     1       0.307  -2.195  -1.670  0.00  0.00    +0.144 HD
ATOM     29  H   UNL     1      -0.783  -3.465  -1.816  0.00  0.00    +0.144 HD
ENDBRANCH   2  27
BRANCH  10  30
ATOM     30  C   UNL     1      -6.811  -1.853   2.555  0.00  0.00    +0.086 C 
BRANCH  30  31
ATOM     31  C   UNL     1      -8.115  -2.344   3.187  0.00  0.00    -0.060 C 
BRANCH  31  32
ATOM     32  N   UNL     1      -8.748  -1.241   3.924  0.00  0.00    +0.381 N 
ATOM     33  C   UNL     1      -9.234  -0.205   2.977  0.00  0.00    -0.079 C 
ATOM     34  C   UNL     1     -10.317   0.542   3.796  0.00  0.00    -0.020 C 
ATOM     35  C   UNL     1     -10.987  -0.594   4.601  0.00  0.00    -0.020 C 
ATOM     36  C   UNL     1      -9.946  -1.728   4.641  0.00  0.00    -0.079 C 
ATOM     37  H   UNL     1      -8.092  -0.837   4.576  0.00  0.00    -0.082 HD
ENDBRANCH  31  32
ENDBRANCH  30  31
ENDBRANCH  10  30
TORSDOF 6
