REMARK  Name = ZINC36643407
REMARK  12 active torsions:
REMARK  status: ('A' for Active; 'I' for Inactive)
REMARK    1  A    between atoms: C_1  and  C_2
REMARK    2  A    between atoms: N_11  and  C_12
REMARK    3  A    between atoms: C_12  and  C_13
REMARK    4  A    between atoms: C_13  and  C_14
REMARK    5  A    between atoms: C_14  and  N_15
REMARK    6  A    between atoms: N_15  and  C_16
REMARK    7  A    between atoms: N_15  and  C_17
REMARK    8  A    between atoms: C_18  and  C_20
REMARK    9  A    between atoms: C_23  and  S_26
REMARK   10  A    between atoms: S_26  and  N_29
REMARK   11  A    between atoms: C_31  and  C_38
REMARK   12  A    between atoms: C_34  and  C_37
REMARK                            x       y       z     vdW  Elec       q    Type
REMARK                         _______ _______ _______ _____ _____    ______ ____
ROOT
ATOM      1  C   UNL     1       0.194  -3.794   0.709  0.00  0.00    +0.046 C 
ATOM      2  C   UNL     1      -1.099  -3.021   0.721  0.00  0.00    -0.024 A 
ATOM      3  C   UNL     1      -1.946  -3.100  -0.354  0.00  0.00    +0.005 A 
ATOM      4  C   UNL     1      -3.146  -2.405  -0.384  0.00  0.00    +0.001 A 
ATOM      5  C   UNL     1      -3.498  -1.614   0.695  0.00  0.00    +0.017 A 
ATOM      6  C   UNL     1      -2.656  -1.529   1.775  0.00  0.00    +0.041 A 
ATOM      7  C   UNL     1      -1.429  -2.227   1.843  0.00  0.00    +0.083 A 
ATOM      8  N   UNL     1      -0.714  -2.045   2.975  0.00  0.00    -0.224 NA
ATOM      9  C   UNL     1      -1.128  -1.276   3.955  0.00  0.00    +0.168 A 
ATOM     10  S   UNL     1      -2.689  -0.669   3.330  0.00  0.00    -0.052 S 
ATOM     11  N   UNL     1      -0.509  -0.997   5.161  0.00  0.00    -0.246 N 
ATOM     12  C   UNL     1      -0.077   0.252   5.424  0.00  0.00    +0.252 C 
ATOM     13  O   UNL     1       0.540   0.478   6.447  0.00  0.00    -0.270 OA
ENDROOT
BRANCH  12  14
ATOM     14  C   UNL     1      -0.353   1.346   4.470  0.00  0.00    +0.037 A 
ATOM     15  C   UNL     1      -0.370   1.091   3.098  0.00  0.00    +0.015 A 
ATOM     16  C   UNL     1      -0.629   2.117   2.212  0.00  0.00    +0.029 A 
ATOM     17  C   UNL     1      -0.871   3.396   2.682  0.00  0.00    +0.106 A 
ATOM     18  C   UNL     1      -0.856   3.655   4.041  0.00  0.00    +0.029 A 
ATOM     19  C   UNL     1      -0.604   2.637   4.938  0.00  0.00    +0.015 A 
BRANCH  17  20
ATOM     20  S   UNL     1      -1.200   4.701   1.544  0.00  0.00    +0.061 S 
ATOM     21  O   UNL     1      -0.856   5.911   2.204  0.00  0.00    -0.153 OA
ATOM     22  O   UNL     1      -0.620   4.316   0.306  0.00  0.00    -0.153 OA
BRANCH  20  23
ATOM     23  N   UNL     1      -2.839   4.741   1.306  0.00  0.00    -0.176 NA
ATOM     24  C   UNL     1      -3.460   3.945   0.239  0.00  0.00    +0.112 C 
ATOM     25  C   UNL     1      -4.572   3.086   0.849  0.00  0.00    +0.002 C 
ATOM     26  C   UNL     1      -5.548   3.987   1.610  0.00  0.00    +0.009 C 
ATOM     27  C   UNL     1      -4.808   4.697   2.747  0.00  0.00    +0.002 C 
ATOM     28  C   UNL     1      -3.699   5.570   2.162  0.00  0.00    +0.112 C 
ATOM     29  C   UNL     1      -4.194   3.657   3.685  0.00  0.00    +0.009 C 
ATOM     30  C   UNL     1      -5.319   2.351  -0.266  0.00  0.00    +0.009 C 
ENDBRANCH  20  23
ENDBRANCH  17  20
ENDBRANCH  12  14
BRANCH  11  31
ATOM     31  C   UNL     1      -0.323  -2.061   6.151  0.00  0.00    +0.114 C 
BRANCH  31  32
ATOM     32  C   UNL     1       1.021  -2.751   5.913  0.00  0.00    +0.001 C 
BRANCH  32  33
ATOM     33  C   UNL     1       1.215  -3.861   6.947  0.00  0.00    -0.078 C 
BRANCH  33  34
ATOM     34  N   UNL     1       2.506  -4.524   6.718  0.00  0.00    +0.376 N 
ATOM     35  C   UNL     1       3.596  -3.570   6.963  0.00  0.00    -0.097 C 
ATOM     36  C   UNL     1       2.640  -5.665   7.633  0.00  0.00    -0.097 C 
ATOM     37  H   UNL     1       2.552  -4.850   5.764  0.00  0.00    -0.083 HD
ENDBRANCH  33  34
ENDBRANCH  32  33
ENDBRANCH  31  32
ENDBRANCH  11  31
TORSDOF 7
