REMARK  Name = ZINC34735050
REMARK  6 active torsions:
REMARK  status: ('A' for Active; 'I' for Inactive)
REMARK    1  A    between atoms: C_1  and  C_2
REMARK    2  A    between atoms: C_2  and  C_36
REMARK    3  A    between atoms: N_11  and  C_26
REMARK    4  A    between atoms: N_17  and  C_20
REMARK    5  A    between atoms: C_20  and  C_21
REMARK    6  A    between atoms: C_26  and  C_27
REMARK                            x       y       z     vdW  Elec       q    Type
REMARK                         _______ _______ _______ _____ _____    ______ ____
ROOT
ATOM      1  C   UNL     1      -0.064   1.199   0.947  0.00  0.00    +0.041 C 
ATOM      2  C   UNL     1      -0.001  -0.285   1.315  0.00  0.00    +0.068 C 
ATOM      3  C   UNL     1      -1.397  -0.900   1.186  0.00  0.00    +0.071 C 
ATOM      4  C   UNL     1      -2.272  -0.331   2.301  0.00  0.00    -0.018 A 
ATOM      5  C   UNL     1      -1.685   0.258   3.370  0.00  0.00    +0.021 A 
ATOM      6  S   UNL     1      -3.025   0.773   4.410  0.00  0.00    -0.071 S 
ATOM      7  C   UNL     1      -4.365   0.201   3.413  0.00  0.00    +0.118 A 
ATOM      8  C   UNL     1      -3.722  -0.377   2.294  0.00  0.00    +0.076 A 
ATOM      9  C   UNL     1      -4.560  -0.944   1.279  0.00  0.00    +0.264 A 
ATOM     10  O   UNL     1      -4.100  -1.466   0.278  0.00  0.00    -0.267 OA
ATOM     11  N   UNL     1      -5.893  -0.865   1.500  0.00  0.00    -0.276 N 
ATOM     12  C   UNL     1      -6.427  -0.287   2.611  0.00  0.00    +0.202 A 
ATOM     13  N   UNL     1      -5.683   0.246   3.569  0.00  0.00    -0.208 NA
ATOM     14  N   UNL     1      -7.793  -0.256   2.744  0.00  0.00    -0.304 N 
ATOM     15  C   UNL     1      -8.439  -0.658   4.003  0.00  0.00    +0.089 C 
ATOM     16  C   UNL     1      -9.423   0.442   4.416  0.00  0.00    -0.059 C 
ATOM     17  N   UNL     1     -10.355   0.704   3.312  0.00  0.00    +0.387 N 
ATOM     18  C   UNL     1      -9.625   1.240   2.157  0.00  0.00    -0.059 C 
ATOM     19  C   UNL     1      -8.651   0.185   1.633  0.00  0.00    +0.089 C 
ATOM     20  C   UNL     1      -0.214   0.421   3.595  0.00  0.00    +0.203 C 
ATOM     21  O   UNL     1       0.474  -0.421   2.657  0.00  0.00    -0.368 OA
ATOM     22  C   UNL     1       0.957  -1.004   0.362  0.00  0.00    +0.041 C 
ATOM     23  H   UNL     1     -10.813  -0.156   3.049  0.00  0.00    -0.081 HD
ENDROOT
BRANCH  17  24
ATOM     24  C   UNL     1     -11.365   1.679   3.747  0.00  0.00    +0.019 C 
BRANCH  24  25
ATOM     25  C   UNL     1     -12.393   1.856   2.659  0.00  0.00    +0.199 C 
ATOM     26  O   UNL     1     -12.294   1.232   1.624  0.00  0.00    -0.278 OA
ATOM     27  N   UNL     1     -13.422   2.708   2.837  0.00  0.00    -0.300 N 
ATOM     28  C   UNL     1     -14.107   3.678   3.695  0.00  0.00    +0.126 C 
ATOM     29  C   UNL     1     -14.641   3.323   2.306  0.00  0.00    +0.126 C 
ENDBRANCH  24  25
ENDBRANCH  17  24
BRANCH  11  30
ATOM     30  C   UNL     1      -6.802  -1.425   0.498  0.00  0.00    +0.164 C 
BRANCH  30  31
ATOM     31  C   UNL     1      -6.473  -2.880   0.279  0.00  0.00    -0.009 A 
ATOM     32  C   UNL     1      -5.832  -3.277  -0.879  0.00  0.00    +0.007 A 
ATOM     33  C   UNL     1      -5.530  -4.611  -1.080  0.00  0.00    +0.000 A 
ATOM     34  C   UNL     1      -5.870  -5.548  -0.123  0.00  0.00    +0.001 A 
ATOM     35  C   UNL     1      -6.511  -5.153   1.036  0.00  0.00    +0.020 A 
ATOM     36  C   UNL     1      -6.808  -3.817   1.240  0.00  0.00    +0.046 A 
ATOM     37 CL   UNL     1      -7.608  -3.318   2.698  0.00  0.00    -0.083 Cl
ENDBRANCH  30  31
ENDBRANCH  11  30
TORSDOF 4
