REMARK  Name = ZINC42398702
REMARK  7 active torsions:
REMARK  status: ('A' for Active; 'I' for Inactive)
REMARK    1  A    between atoms: C_1  and  N_2
REMARK    2  A    between atoms: N_2  and  C_3
REMARK    3  A    between atoms: N_2  and  C_10
REMARK    4  A    between atoms: C_3  and  C_4
REMARK    5  A    between atoms: C_10  and  C_12
REMARK    6  A    between atoms: C_10  and  C_14
REMARK    7  A    between atoms: C_12  and  N_13
REMARK                            x       y       z     vdW  Elec       q    Type
REMARK                         _______ _______ _______ _____ _____    ______ ____
ROOT
ATOM      1  C   UNL     1      -1.335  -0.641  -0.133  0.00  0.00    +0.076 C 
ENDROOT
BRANCH   1   2
ATOM      2  C   UNL     1      -1.905  -0.203  -1.457  0.00  0.00    +0.006 A 
ATOM      3  C   UNL     1      -3.184   0.117  -1.772  0.00  0.00    +0.028 A 
ATOM      4  C   UNL     1      -3.480   0.497  -3.068  0.00  0.00    +0.025 A 
ATOM      5  C   UNL     1      -2.483   0.537  -3.985  0.00  0.00    +0.060 A 
ATOM      6  S   UNL     1      -1.069   0.036  -3.016  0.00  0.00    -0.099 S 
ATOM      7 BR   UNL     1      -5.250   0.952  -3.554  0.00  0.00    -0.050 Br
ENDBRANCH   1   2
BRANCH   1   9
ATOM      8  C   UNL     1      -0.124   1.455  -0.094  0.00  0.00    +0.105 C 
ATOM      9  N   UNL     1      -0.029  -0.002   0.075  0.00  0.00    -0.295 NA
BRANCH   9  10
ATOM     10  C   UNL     1       0.522  -0.344   1.393  0.00  0.00    +0.127 C 
BRANCH  10  11
ATOM     11  C   UNL     1       2.006  -0.084   1.399  0.00  0.00    +0.005 A 
ATOM     12  C   UNL     1       2.673   1.047   1.738  0.00  0.00    +0.027 A 
ATOM     13  C   UNL     1       4.053   1.058   1.667  0.00  0.00    +0.025 A 
ATOM     14  C   UNL     1       4.700  -0.064   1.262  0.00  0.00    +0.060 A 
ATOM     15  S   UNL     1       3.343  -1.187   0.972  0.00  0.00    -0.099 S 
ATOM     16 BR   UNL     1       5.026   2.612   2.129  0.00  0.00    -0.050 Br
ENDBRANCH  10  11
ENDBRANCH   9  10
ENDBRANCH   1   9
BRANCH   1  17
ATOM     17  C   UNL     1      -1.165  -2.162  -0.129  0.00  0.00    -0.062 C 
BRANCH  17  18
ATOM     18  N   UNL     1      -0.138  -2.542  -1.108  0.00  0.00    +0.379 N 
ATOM     19  H   UNL     1       0.027  -3.536  -1.055  0.00  0.00    -0.090 HD
ATOM     20  H   UNL     1      -0.453  -2.302  -2.036  0.00  0.00    -0.090 HD
ATOM     21  H   UNL     1       0.719  -2.048  -0.906  0.00  0.00    -0.090 HD
ENDBRANCH  17  18
ENDBRANCH   1  17
TORSDOF 6
