REMARK  Name = ZINC50395077
REMARK  6 active torsions:
REMARK  status: ('A' for Active; 'I' for Inactive)
REMARK    1  A    between atoms: C_2  and  C_3
REMARK    2  A    between atoms: C_3  and  O_4
REMARK    3  A    between atoms: O_4  and  C_5
REMARK    4  A    between atoms: C_10  and  C_11
REMARK    5  A    between atoms: C_11  and  N_12
REMARK    6  A    between atoms: N_12  and  C_13
REMARK                            x       y       z     vdW  Elec       q    Type
REMARK                         _______ _______ _______ _____ _____    ______ ____
ROOT
ATOM      1  C   UNL     1       3.911   2.874  -0.002  0.00  0.00    -0.042 C 
ENDROOT
BRANCH   1   7
ATOM      2  C   UNL     1       1.431   3.239  -0.055  0.00  0.00    +0.123 A 
ATOM      3  C   UNL     1       0.323   4.073  -0.026  0.00  0.00    +0.047 A 
ATOM      4  C   UNL     1       0.492   5.441   0.074  0.00  0.00    +0.019 A 
ATOM      5  C   UNL     1       1.766   5.978   0.145  0.00  0.00    +0.018 A 
ATOM      6  C   UNL     1       2.871   5.147   0.116  0.00  0.00    +0.020 A 
ATOM      7  C   UNL     1       2.707   3.779   0.022  0.00  0.00    -0.022 A 
ATOM      8 BR   UNL     1       1.994   7.850   0.281  0.00  0.00    -0.050 Br
BRANCH   2   9
ATOM      9  O   UNL     1       1.267   1.893  -0.153  0.00  0.00    -0.479 OA
BRANCH   9  10
ATOM     10  C   UNL     1      -0.075   1.407  -0.228  0.00  0.00    +0.317 C 
BRANCH  10  12
ATOM     11  C   UNL     1      -0.048  -1.233  -0.410  0.00  0.00    +0.007 C 
ATOM     12  C   UNL     1      -0.060  -0.061  -0.329  0.00  0.00    -0.065 C 
ENDBRANCH  10  12
ENDBRANCH   9  10
ENDBRANCH   2   9
ENDBRANCH   1   7
BRANCH   1  13
ATOM     13  N   UNL     1       4.201   2.482  -1.388  0.00  0.00    +0.389 N 
ATOM     14  H   UNL     1       3.442   1.921  -1.744  0.00  0.00    -0.084 HD
ATOM     15  H   UNL     1       4.304   3.309  -1.957  0.00  0.00    -0.084 HD
BRANCH  13  16
ATOM     16  C   UNL     1       5.446   1.703  -1.426  0.00  0.00    +0.016 C 
ATOM     17  C   UNL     1       5.244   0.385  -0.674  0.00  0.00    -0.005 C 
ATOM     18  C   UNL     1       6.446  -0.524  -0.957  0.00  0.00    +0.018 C 
ATOM     19  C   UNL     1       6.417  -0.930  -2.431  0.00  0.00    +0.104 C 
ATOM     20  N   UNL     1       6.269   0.244  -3.281  0.00  0.00    -0.317 N 
ATOM     21  C   UNL     1       5.815   1.422  -2.854  0.00  0.00    +0.199 C 
ATOM     22  O   UNL     1       5.696   2.317  -3.664  0.00  0.00    -0.278 OA
ATOM     23  H   UNL     1       6.516   0.163  -4.216  0.00  0.00    +0.149 HD
ENDBRANCH  13  16
ENDBRANCH   1  13
TORSDOF 6
