REMARK  Name = ZINC64040260
REMARK  6 active torsions:
REMARK  status: ('A' for Active; 'I' for Inactive)
REMARK    1  A    between atoms: C_1  and  C_2
REMARK    2  A    between atoms: C_5  and  C_19
REMARK    3  A    between atoms: C_10  and  C_12
REMARK    4  A    between atoms: C_19  and  N_20
REMARK    5  A    between atoms: C_21  and  C_23
REMARK    6  A    between atoms: C_23  and  C_24
REMARK                            x       y       z     vdW  Elec       q    Type
REMARK                         _______ _______ _______ _____ _____    ______ ____
ROOT
ATOM      1  C   UNL     1      -0.018   1.503   0.010  0.00  0.00    +0.042 C 
ATOM      2  C   UNL     1       0.002  -0.004   0.002  0.00  0.00    -0.037 C 
ATOM      3  C   UNL     1       0.009  -0.811  -1.083  0.00  0.00    -0.000 A 
ATOM      4  C   UNL     1      -0.002  -0.538  -2.525  0.00  0.00    +0.015 A 
ATOM      5  C   UNL     1       0.008  -1.579  -3.390  0.00  0.00    -0.030 A 
ATOM      6  C   UNL     1       0.028  -2.907  -2.944  0.00  0.00    +0.007 A 
ATOM      7  C   UNL     1       0.039  -3.237  -1.635  0.00  0.00    +0.026 A 
ATOM      8  C   UNL     1       0.030  -2.223  -0.638  0.00  0.00    +0.043 A 
ATOM      9  N   UNL     1       0.037  -2.286   0.671  0.00  0.00    -0.373 N 
ATOM     10  C   UNL     1       0.026  -0.920   1.206  0.00  0.00    +0.139 C 
ATOM     11  H   UNL     1       0.050  -3.100   1.199  0.00  0.00    +0.161 HD
ENDROOT
BRANCH  10  12
ATOM     12  C   UNL     1       1.266  -0.669   2.024  0.00  0.00    +0.014 A 
ATOM     13  C   UNL     1       2.393  -1.445   1.827  0.00  0.00    +0.009 A 
ATOM     14  C   UNL     1       3.531  -1.216   2.578  0.00  0.00    +0.001 A 
ATOM     15  C   UNL     1       3.543  -0.210   3.527  0.00  0.00    +0.003 A 
ATOM     16  C   UNL     1       2.418   0.567   3.725  0.00  0.00    +0.039 A 
ATOM     17  C   UNL     1       1.279   0.342   2.970  0.00  0.00    +0.129 A 
ATOM     18  F   UNL     1       0.180   1.104   3.160  0.00  0.00    -0.205 F 
ENDBRANCH  10  12
BRANCH   5  19
ATOM     19  C   UNL     1      -0.003  -1.302  -4.871  0.00  0.00    +0.139 C 
BRANCH  19  20
ATOM     20  N   UNL     1       1.375  -1.193  -5.358  0.00  0.00    -0.311 N 
ATOM     21  C   UNL     1       1.612  -0.946  -6.661  0.00  0.00    +0.215 C 
ATOM     22  O   UNL     1       0.684  -0.814  -7.432  0.00  0.00    -0.276 OA
ATOM     23  H   UNL     1       2.117  -1.299  -4.742  0.00  0.00    +0.149 HD
BRANCH  21  24
ATOM     24  C   UNL     1       3.029  -0.834  -7.162  0.00  0.00    +0.118 C 
BRANCH  24  25
ATOM     25  C   UNL     1       3.018  -0.553  -8.666  0.00  0.00    +0.082 C 
ATOM     26  C   UNL     1       4.459  -0.342  -9.181  0.00  0.00    +0.032 C 
ATOM     27  C   UNL     1       4.389  -0.983 -10.586  0.00  0.00    +0.097 C 
ATOM     28  C   UNL     1       3.256  -1.980 -10.483  0.00  0.00    +0.213 C 
ATOM     29  O   UNL     1       3.053  -2.883 -11.266  0.00  0.00    -0.276 OA
ATOM     30  N   UNL     1       2.506  -1.719  -9.397  0.00  0.00    -0.312 N 
ATOM     31  H   UNL     1       1.729  -2.234  -9.130  0.00  0.00    +0.149 HD
ENDBRANCH  24  25
ENDBRANCH  21  24
ENDBRANCH  19  20
ENDBRANCH   5  19
TORSDOF 5
