REMARK  Name = ZINC05287622
REMARK  9 active torsions:
REMARK  status: ('A' for Active; 'I' for Inactive)
REMARK    1  A    between atoms: C_1  and  O_2
REMARK    2  A    between atoms: O_2  and  C_3
REMARK    3  A    between atoms: C_7  and  C_8
REMARK    4  A    between atoms: N_9  and  C_10
REMARK    5  A    between atoms: C_10  and  C_11
REMARK    6  A    between atoms: C_11  and  C_12
REMARK    7  A    between atoms: C_15  and  S_18
REMARK    8  A    between atoms: S_18  and  N_21
REMARK    9  A    between atoms: C_22  and  O_23
REMARK                            x       y       z     vdW  Elec       q    Type
REMARK                         _______ _______ _______ _____ _____    ______ ____
ROOT
ATOM      1  C   UNL     1       0.763  -6.281   1.481  0.00  0.00    +0.117 C 
ENDROOT
BRANCH   1   3
ATOM      2  C   UNL     1       1.401  -4.104   2.236  0.00  0.00    +0.090 C 
ATOM      3  N   UNL     1       0.785  -4.822   1.353  0.00  0.00    -0.389 N 
ATOM      4  H   UNL     1       0.337  -4.394   0.606  0.00  0.00    +0.159 HD
BRANCH   2   9
ATOM      5  C   UNL     1       0.635  -0.619   1.037  0.00  0.00    +0.162 A 
ATOM      6  C   UNL     1       1.200   0.138   2.051  0.00  0.00    +0.049 A 
ATOM      7  C   UNL     1       1.827  -0.481   3.119  0.00  0.00    +0.004 A 
ATOM      8  C   UNL     1       1.896  -1.856   3.184  0.00  0.00    +0.013 A 
ATOM      9  C   UNL     1       1.330  -2.633   2.170  0.00  0.00    +0.036 A 
ATOM     10  C   UNL     1       0.692  -2.007   1.092  0.00  0.00    +0.167 A 
BRANCH   5  12
ATOM     11  C   UNL     1       0.000   1.425  -0.000  0.00  0.00    +0.277 C 
ATOM     12  O   UNL     1       0.021  -0.004  -0.009  0.00  0.00    -0.491 OA
ENDBRANCH   5  12
BRANCH  10  13
ATOM     13  O   UNL     1       0.134  -2.752   0.103  0.00  0.00    -0.503 OA
ATOM     14  H   UNL     1       0.738  -2.954  -0.625  0.00  0.00    +0.292 HD
ENDBRANCH  10  13
ENDBRANCH   2   9
ENDBRANCH   1   3
BRANCH   1  15
ATOM     15  C   UNL     1      -0.674  -6.750   1.718  0.00  0.00    +0.056 C 
BRANCH  15  16
ATOM     16  C   UNL     1      -0.697  -8.251   1.850  0.00  0.00    -0.046 A 
ATOM     17  C   UNL     1      -0.863  -9.041   0.728  0.00  0.00    +0.005 A 
ATOM     18  C   UNL     1      -0.884 -10.418   0.849  0.00  0.00    +0.029 A 
ATOM     19  C   UNL     1      -0.738 -11.005   2.092  0.00  0.00    +0.105 A 
ATOM     20  C   UNL     1      -0.571 -10.215   3.214  0.00  0.00    +0.029 A 
ATOM     21  C   UNL     1      -0.546  -8.838   3.092  0.00  0.00    +0.005 A 
BRANCH  19  22
ATOM     22  S   UNL     1      -0.766 -12.760   2.247  0.00  0.00    +0.056 S 
ATOM     23  O   UNL     1      -1.155 -13.044   3.583  0.00  0.00    -0.153 OA
ATOM     24  O   UNL     1      -1.481 -13.255   1.123  0.00  0.00    -0.153 OA
BRANCH  22  25
ATOM     25  N   UNL     1       0.795 -13.291   2.085  0.00  0.00    -0.204 NA
ATOM     26  H   UNL     1       1.511 -12.653   1.935  0.00  0.00    +0.144 HD
ATOM     27  H   UNL     1       0.993 -14.239   2.140  0.00  0.00    +0.144 HD
ENDBRANCH  22  25
ENDBRANCH  19  22
ENDBRANCH  15  16
ENDBRANCH   1  15
TORSDOF 8
