REMARK  Name = ZINC03279250
REMARK  12 active torsions:
REMARK  status: ('A' for Active; 'I' for Inactive)
REMARK    1  A    between atoms: C_1  and  C_2
REMARK    2  A    between atoms: C_5  and  N_9
REMARK    3  A    between atoms: C_6  and  C_8
REMARK    4  A    between atoms: C_10  and  C_12
REMARK    5  A    between atoms: C_12  and  N_69
REMARK    6  A    between atoms: C_13  and  C_14
REMARK    7  A    between atoms: C_13  and  N_69
REMARK    8  A    between atoms: C_25  and  C_26
REMARK    9  A    between atoms: C_25  and  N_69
REMARK   10  A    between atoms: N_28  and  C_29
REMARK   11  A    between atoms: C_32  and  C_36
REMARK   12  A    between atoms: C_34  and  C_35
REMARK                            x       y       z     vdW  Elec       q    Type
REMARK                         _______ _______ _______ _____ _____    ______ ____
ROOT
ATOM      1  N   UNL     1      -3.291  -2.176  -0.010  0.00  0.00    +0.394 N 
ATOM      2  H   UNL     1      -2.727  -2.367   0.826  0.00  0.00    -0.080 HD
ENDROOT
BRANCH   1   3
ATOM      3  C   UNL     1      -3.296  -0.720  -0.264  0.00  0.00    +0.020 C 
BRANCH   3   5
ATOM      4  N   UNL     1      -1.639   1.117  -0.269  0.00  0.00    -0.287 N 
ATOM      5  C   UNL     1      -1.888  -0.200  -0.129  0.00  0.00    +0.201 C 
ATOM      6  O   UNL     1      -0.978  -0.967   0.106  0.00  0.00    -0.278 OA
ATOM      7  H   UNL     1      -2.374   1.740  -0.385  0.00  0.00    +0.155 HD
BRANCH   4  12
ATOM      8  C   UNL     1       3.707   3.014  -0.194  0.00  0.00    +0.044 C 
ATOM      9  C   UNL     1       2.286   2.512  -0.211  0.00  0.00    -0.050 A 
ATOM     10  C   UNL     1       1.960   1.341   0.448  0.00  0.00    +0.005 A 
ATOM     11  C   UNL     1       0.659   0.878   0.434  0.00  0.00    +0.024 A 
ATOM     12  C   UNL     1      -0.322   1.587  -0.248  0.00  0.00    +0.036 A 
ATOM     13  C   UNL     1       0.008   2.764  -0.906  0.00  0.00    -0.029 A 
ATOM     14  C   UNL     1       1.311   3.222  -0.887  0.00  0.00    +0.008 A 
ATOM     15  C   UNL     1      -1.053   3.539  -1.643  0.00  0.00    +0.045 C 
ENDBRANCH   4  12
ENDBRANCH   3   5
ENDBRANCH   1   3
BRANCH   1  16
ATOM     16  C   UNL     1      -2.698  -2.887  -1.162  0.00  0.00    -0.029 C 
BRANCH  16  17
ATOM     17  C   UNL     1      -3.405  -2.491  -2.460  0.00  0.00    +0.195 C 
ATOM     18  C   UNL     1      -2.641  -3.063  -3.661  0.00  0.00    +0.271 C 
ATOM     19  O   UNL     1      -3.335  -2.685  -4.855  0.00  0.00    -0.485 OA
ATOM     20  C   UNL     1      -4.686  -2.853  -4.857  0.00  0.00    +0.162 A 
ATOM     21  C   UNL     1      -5.371  -2.852  -6.063  0.00  0.00    +0.049 A 
ATOM     22  C   UNL     1      -6.743  -3.017  -6.080  0.00  0.00    +0.004 A 
ATOM     23  C   UNL     1      -7.436  -3.184  -4.896  0.00  0.00    +0.004 A 
ATOM     24  C   UNL     1      -6.760  -3.188  -3.691  0.00  0.00    +0.049 A 
ATOM     25  C   UNL     1      -5.383  -3.023  -3.667  0.00  0.00    +0.162 A 
ATOM     26  O   UNL     1      -4.731  -3.031  -2.472  0.00  0.00    -0.484 OA
ENDBRANCH  16  17
ENDBRANCH   1  16
BRANCH   1  27
ATOM     27  C   UNL     1      -4.670  -2.653   0.222  0.00  0.00    +0.020 C 
BRANCH  27  28
ATOM     28  C   UNL     1      -4.612  -4.054   0.775  0.00  0.00    +0.201 C 
ATOM     29  O   UNL     1      -3.541  -4.597   0.940  0.00  0.00    -0.278 OA
ATOM     30  N   UNL     1      -5.752  -4.703   1.087  0.00  0.00    -0.287 N 
ATOM     31  H   UNL     1      -6.610  -4.287   0.912  0.00  0.00    +0.155 HD
BRANCH  30  32
ATOM     32  C   UNL     1      -5.696  -5.977   1.662  0.00  0.00    +0.036 A 
ATOM     33  C   UNL     1      -4.633  -6.824   1.376  0.00  0.00    +0.024 A 
ATOM     34  C   UNL     1      -4.580  -8.081   1.946  0.00  0.00    +0.005 A 
ATOM     35  C   UNL     1      -5.585  -8.496   2.801  0.00  0.00    -0.050 A 
ATOM     36  C   UNL     1      -6.644  -7.655   3.088  0.00  0.00    +0.008 A 
ATOM     37  C   UNL     1      -6.700  -6.395   2.525  0.00  0.00    -0.029 A 
ATOM     38  C   UNL     1      -7.852  -5.478   2.843  0.00  0.00    +0.045 C 
ATOM     39  C   UNL     1      -5.524  -9.868   3.421  0.00  0.00    +0.044 C 
ENDBRANCH  30  32
ENDBRANCH  27  28
ENDBRANCH   1  27
TORSDOF 8
