REMARK  Name = ZINC09629770
REMARK  8 active torsions:
REMARK  status: ('A' for Active; 'I' for Inactive)
REMARK    1  A    between atoms: C_1  and  C_2
REMARK    2  A    between atoms: C_2  and  C_3
REMARK    3  A    between atoms: C_3  and  N_51
REMARK    4  A    between atoms: C_9  and  N_14
REMARK    5  A    between atoms: C_10  and  C_11
REMARK    6  A    between atoms: C_15  and  C_17
REMARK    7  A    between atoms: C_17  and  S_18
REMARK    8  A    between atoms: S_18  and  C_21
REMARK                            x       y       z     vdW  Elec       q    Type
REMARK                         _______ _______ _______ _____ _____    ______ ____
ROOT
ATOM      1  C   UNL     1       4.580   5.500   0.430  0.00  0.00    -0.074 C 
ATOM      2  C   UNL     1       3.113   5.395   0.004  0.00  0.00    +0.018 C 
ATOM      3  C   UNL     1       2.724   3.921  -0.002  0.00  0.00    -0.027 A 
ATOM      4  C   UNL     1       3.682   2.967  -0.018  0.00  0.00    -0.021 A 
ATOM      5  S   UNL     1       2.795   1.437  -0.018  0.00  0.00    -0.079 S 
ATOM      6  C   UNL     1       1.175   2.053   0.002  0.00  0.00    +0.084 A 
ATOM      7  C   UNL     1       1.359   3.430   0.002  0.00  0.00    +0.068 A 
ATOM      8  C   UNL     1       5.162   3.194  -0.033  0.00  0.00    -0.035 C 
ATOM      9  N   UNL     1       5.400   4.607  -0.414  0.00  0.00    +0.383 N 
ATOM     10  H   UNL     1       5.133   4.737  -1.397  0.00  0.00    -0.081 HD
ENDROOT
BRANCH   7  11
ATOM     11  C   UNL     1       0.218   4.350   0.010  0.00  0.00    +0.244 C 
ATOM     12  O   UNL     1      -0.248   4.732   1.068  0.00  0.00    -0.270 OA
ATOM     13  N   UNL     1      -0.314   4.774  -1.153  0.00  0.00    -0.325 N 
ATOM     14  H   UNL     1       0.057   4.470  -1.996  0.00  0.00    +0.145 HD
ATOM     15  H   UNL     1      -1.069   5.383  -1.148  0.00  0.00    +0.145 HD
ENDBRANCH   7  11
BRANCH   6  16
ATOM     16  N   UNL     1      -0.016   1.344   0.009  0.00  0.00    -0.278 N 
ATOM     17  C   UNL     1       0.002  -0.004   0.002  0.00  0.00    +0.239 C 
ATOM     18  O   UNL     1       1.060  -0.596  -0.011  0.00  0.00    -0.274 OA
ATOM     19  H   UNL     1      -0.863   1.817   0.016  0.00  0.00    +0.155 HD
BRANCH  17  20
ATOM     20  C   UNL     1      -1.293  -0.775   0.010  0.00  0.00    +0.267 C 
BRANCH  20  21
ATOM     21  S   UNL     1      -0.937  -2.554  -0.003  0.00  0.00    +0.005 S 
ATOM     22  O   UNL     1      -0.357  -2.928  -1.245  0.00  0.00    -0.169 OA
ATOM     23  O   UNL     1      -0.334  -2.942   1.224  0.00  0.00    -0.169 OA
BRANCH  21  24
ATOM     24  C   UNL     1      -2.518  -3.332   0.008  0.00  0.00    +0.089 A 
ATOM     25  C   UNL     1      -3.124  -3.648   1.210  0.00  0.00    +0.028 A 
ATOM     26  C   UNL     1      -4.367  -4.254   1.219  0.00  0.00    +0.022 A 
ATOM     27  C   UNL     1      -4.999  -4.553   0.025  0.00  0.00    +0.041 A 
ATOM     28  C   UNL     1      -4.389  -4.241  -1.177  0.00  0.00    +0.022 A 
ATOM     29  C   UNL     1      -3.149  -3.631  -1.185  0.00  0.00    +0.028 A 
ATOM     30 CL   UNL     1      -6.557  -5.319   0.036  0.00  0.00    -0.084 Cl
ENDBRANCH  21  24
ENDBRANCH  20  21
ENDBRANCH  17  20
ENDBRANCH   6  16
BRANCH   9  31
ATOM     31  C   UNL     1       6.833   4.938  -0.259  0.00  0.00    -0.079 C 
BRANCH  31  33
ATOM     32  C   UNL     1       8.727   5.206   1.349  0.00  0.00    +0.002 C 
ATOM     33  C   UNL     1       7.243   4.857   1.213  0.00  0.00    -0.022 C 
ENDBRANCH  31  33
ENDBRANCH   9  31
TORSDOF 7
