REMARK  Name = ZINC20685408
REMARK  7 active torsions:
REMARK  status: ('A' for Active; 'I' for Inactive)
REMARK    1  A    between atoms: C_1  and  C_2
REMARK    2  A    between atoms: C_2  and  N_3
REMARK    3  A    between atoms: C_14  and  C_16
REMARK    4  A    between atoms: C_27  and  S_32
REMARK    5  A    between atoms: S_32  and  N_35
REMARK    6  A    between atoms: N_35  and  C_36
REMARK    7  A    between atoms: C_36  and  C_37
REMARK                            x       y       z     vdW  Elec       q    Type
REMARK                         _______ _______ _______ _____ _____    ______ ____
ROOT
ATOM      1  C   UNL     1      -0.767   8.924   0.061  0.00  0.00    +0.105 C 
ATOM      2  C   UNL     1      -0.805   9.513   1.460  0.00  0.00    +0.029 C 
ATOM      3  C   UNL     1      -1.554   8.722   2.535  0.00  0.00    +0.033 C 
ATOM      4  C   UNL     1      -2.027   9.838   3.468  0.00  0.00    -0.030 C 
ATOM      5  C   UNL     1      -2.134  10.977   2.794  0.00  0.00    -0.023 C 
ATOM      6  C   UNL     1      -1.783  10.723   1.374  0.00  0.00    +0.049 C 
ATOM      7  C   UNL     1      -1.158  11.758   0.523  0.00  0.00    -0.018 A 
ATOM      8  C   UNL     1      -1.333  13.107   0.749  0.00  0.00    +0.034 A 
ATOM      9  C   UNL     1      -0.746  14.037  -0.088  0.00  0.00    +0.106 A 
ATOM     10  C   UNL     1       0.022  13.615  -1.159  0.00  0.00    +0.030 A 
ATOM     11  C   UNL     1       0.209  12.268  -1.389  0.00  0.00    +0.025 A 
ATOM     12  C   UNL     1      -0.372  11.325  -0.550  0.00  0.00    +0.031 A 
ATOM     13  N   UNL     1      -0.157   9.963  -0.797  0.00  0.00    -0.336 N 
ATOM     14  H   UNL     1       0.479   9.673  -1.646  0.00  0.00    +0.147 HD
ENDROOT
BRANCH   1  26
ATOM     15  N   UNL     1       2.180   4.106   0.004  0.00  0.00    -0.340 N 
ATOM     16  C   UNL     1       1.164   3.167   0.008  0.00  0.00    +0.050 A 
ATOM     17  C   UNL     1       1.175   1.775   0.000  0.00  0.00    +0.026 A 
ATOM     18  C   UNL     1      -0.013   1.076   0.008  0.00  0.00    +0.002 A 
ATOM     19  C   UNL     1      -1.226   1.747   0.017  0.00  0.00    +0.001 A 
ATOM     20  C   UNL     1      -1.257   3.124   0.031  0.00  0.00    +0.010 A 
ATOM     21  C   UNL     1      -0.065   3.844   0.024  0.00  0.00    +0.008 A 
ATOM     22  C   UNL     1       0.252   5.284   0.029  0.00  0.00    +0.008 A 
ATOM     23  C   UNL     1       1.651   5.384   0.016  0.00  0.00    +0.050 A 
ATOM     24  C   UNL     1       2.244   6.643   0.017  0.00  0.00    +0.027 A 
ATOM     25  C   UNL     1       1.459   7.776   0.033  0.00  0.00    +0.007 A 
ATOM     26  C   UNL     1       0.077   7.675   0.045  0.00  0.00    -0.026 A 
ATOM     27  C   UNL     1      -0.529   6.437   0.043  0.00  0.00    +0.016 A 
BRANCH  15  29
ATOM     28  C   UNL     1       4.096   3.690  -1.458  0.00  0.00    +0.027 C 
ATOM     29  C   UNL     1       3.611   3.792  -0.010  0.00  0.00    +0.119 C 
ENDBRANCH  15  29
ENDBRANCH   1  26
BRANCH   9  30
ATOM     30  S   UNL     1      -0.975  15.758   0.208  0.00  0.00    +0.058 S 
ATOM     31  O   UNL     1      -0.772  16.415  -1.036  0.00  0.00    -0.153 OA
ATOM     32  O   UNL     1      -2.181  15.886   0.948  0.00  0.00    -0.153 OA
BRANCH  30  33
ATOM     33  N   UNL     1       0.249  16.251   1.209  0.00  0.00    -0.187 NA
ATOM     34  H   UNL     1       0.030  16.446   2.269  0.00  0.00    +0.148 HD
BRANCH  33  35
ATOM     35  C   UNL     1       1.637  16.214   0.742  0.00  0.00    +0.137 C 
BRANCH  35  36
ATOM     36  C   UNL     1       2.513  17.048   1.678  0.00  0.00    +0.134 C 
ATOM     37  C   UNL     1       3.955  17.109   1.131  0.00  0.00    +0.035 C 
ATOM     38  C   UNL     1       4.804  16.999   2.426  0.00  0.00    +0.031 C 
ATOM     39  C   UNL     1       3.918  16.057   3.279  0.00  0.00    +0.160 C 
ATOM     40  O   UNL     1       2.567  16.432   2.970  0.00  0.00    -0.375 OA
ENDBRANCH  35  36
ENDBRANCH  33  35
ENDBRANCH  30  33
ENDBRANCH   9  30
TORSDOF 6
