REMARK  Name = ZINC16610187
REMARK  13 active torsions:
REMARK  status: ('A' for Active; 'I' for Inactive)
REMARK    1  A    between atoms: C_1  and  C_2
REMARK    2  A    between atoms: C_2  and  C_3
REMARK    3  A    between atoms: C_7  and  N_9
REMARK    4  A    between atoms: N_12  and  C_13
REMARK    5  A    between atoms: C_16  and  C_19
REMARK    6  A    between atoms: C_21  and  C_29
REMARK    7  A    between atoms: C_22  and  C_28
REMARK    8  A    between atoms: N_23  and  C_27
REMARK    9  A    between atoms: C_29  and  O_31
REMARK   10  A    between atoms: O_31  and  C_32
REMARK   11  A    between atoms: C_32  and  C_33
REMARK   12  A    between atoms: C_33  and  C_34
REMARK   13  A    between atoms: C_33  and  C_35
REMARK                            x       y       z     vdW  Elec       q    Type
REMARK                         _______ _______ _______ _____ _____    ______ ____
ROOT
ATOM      1  C   UNL     1      -1.877   2.385  -3.611  0.00  0.00    +0.035 A 
ATOM      2  C   UNL     1      -2.099   1.097  -3.145  0.00  0.00    +0.024 A 
ATOM      3  C   UNL     1      -1.504   0.676  -1.971  0.00  0.00    +0.007 A 
ATOM      4  C   UNL     1      -0.688   1.537  -1.261  0.00  0.00    -0.022 A 
ATOM      5  C   UNL     1      -0.469   2.823  -1.720  0.00  0.00    +0.007 A 
ATOM      6  C   UNL     1      -1.056   3.248  -2.896  0.00  0.00    +0.024 A 
ENDROOT
BRANCH   4   7
ATOM      7  C   UNL     1      -0.041   1.076   0.019  0.00  0.00    +0.141 C 
ATOM      8  C   UNL     1      -0.906   1.540   1.173  0.00  0.00    +0.078 C 
ATOM      9  C   UNL     1      -0.336   2.334   2.106  0.00  0.00    +0.021 C 
ATOM     10  N   UNL     1       0.974   2.704   2.011  0.00  0.00    -0.289 N 
ATOM     11  C   UNL     1       1.783   2.323   1.014  0.00  0.00    +0.137 C 
ATOM     12  S   UNL     1       3.409   2.860   1.017  0.00  0.00    -0.018 S 
ATOM     13  N   UNL     1       1.360   1.531   0.010  0.00  0.00    -0.315 N 
ATOM     14  C   UNL     1       1.527   3.566   3.059  0.00  0.00    +0.137 C 
ATOM     15  C   UNL     1      -1.160   2.819   3.271  0.00  0.00    +0.061 C 
ATOM     16  H   UNL     1       1.963   1.267  -0.703  0.00  0.00    +0.149 HD
BRANCH   8  17
ATOM     17  C   UNL     1      -2.264   1.156   1.270  0.00  0.00    +0.339 C 
ATOM     18  O   UNL     1      -2.939   1.542   2.206  0.00  0.00    -0.245 OA
BRANCH  17  19
ATOM     19  O   UNL     1      -2.809   0.363   0.325  0.00  0.00    -0.461 OA
BRANCH  19  20
ATOM     20  C   UNL     1      -4.186   0.014   0.487  0.00  0.00    +0.235 C 
BRANCH  20  21
ATOM     21  C   UNL     1      -4.624  -0.883  -0.672  0.00  0.00    +0.020 C 
ATOM     22  C   UNL     1      -3.861  -2.208  -0.609  0.00  0.00    +0.010 C 
ATOM     23  C   UNL     1      -6.126  -1.154  -0.568  0.00  0.00    +0.010 C 
ENDBRANCH  20  21
ENDBRANCH  19  20
ENDBRANCH  17  19
ENDBRANCH   8  17
ENDBRANCH   4   7
BRANCH   1  27
ATOM     24  N   UNL     1      -3.145   2.383  -6.995  0.00  0.00    -0.269 N 
ATOM     25  C   UNL     1      -2.651   1.949  -5.818  0.00  0.00    +0.308 C 
ATOM     26  O   UNL     1      -2.363   0.776  -5.675  0.00  0.00    -0.252 OA
ATOM     27  N   UNL     1      -2.478   2.814  -4.800  0.00  0.00    -0.269 N 
ATOM     28  H   UNL     1      -3.312   3.328  -7.131  0.00  0.00    +0.156 HD
ATOM     29  H   UNL     1      -2.770   3.735  -4.891  0.00  0.00    +0.156 HD
BRANCH  24  34
ATOM     30  C   UNL     1      -4.764   0.769  -9.875  0.00  0.00    -0.046 A 
ATOM     31  C   UNL     1      -3.951  -0.337 -10.046  0.00  0.00    +0.004 A 
ATOM     32  C   UNL     1      -2.872  -0.542  -9.207  0.00  0.00    +0.002 A 
ATOM     33  C   UNL     1      -2.599   0.360  -8.197  0.00  0.00    +0.023 A 
ATOM     34  C   UNL     1      -3.416   1.469  -8.020  0.00  0.00    +0.035 A 
ATOM     35  C   UNL     1      -4.499   1.672  -8.865  0.00  0.00    +0.027 A 
BRANCH  30  37
ATOM     36  C   UNL     1      -5.496   1.819 -11.999  0.00  0.00    +0.009 C 
ATOM     37  C   UNL     1      -5.939   0.989 -10.793  0.00  0.00    +0.032 C 
ENDBRANCH  30  37
ENDBRANCH  24  34
ENDBRANCH   1  27
TORSDOF 8
