REMARK  Name = ZINC20872428
REMARK  14 active torsions:
REMARK  status: ('A' for Active; 'I' for Inactive)
REMARK    1  A    between atoms: C_1  and  C_2
REMARK    2  A    between atoms: C_2  and  C_3
REMARK    3  A    between atoms: C_2  and  C_4
REMARK    4  A    between atoms: C_2  and  N_5
REMARK    5  A    between atoms: C_6  and  C_8
REMARK    6  A    between atoms: C_8  and  O_9
REMARK    7  A    between atoms: O_9  and  C_10
REMARK    8  A    between atoms: C_15  and  C_16
REMARK    9  A    between atoms: C_16  and  N_17
REMARK   10  A    between atoms: N_17  and  C_18
REMARK   11  A    between atoms: C_18  and  C_19
REMARK   12  A    between atoms: C_19  and  N_20
REMARK   13  A    between atoms: N_20  and  C_21
REMARK   14  A    between atoms: C_24  and  N_28
REMARK                            x       y       z     vdW  Elec       q    Type
REMARK                         _______ _______ _______ _____ _____    ______ ____
ROOT
ATOM      1  C   UNL     1      -6.086   2.461   0.044  0.00  0.00    -0.043 C 
ENDROOT
BRANCH   1   7
ATOM      2  C   UNL     1      -7.831   1.104   1.228  0.00  0.00    +0.123 A 
ATOM      3  C   UNL     1      -9.005   0.365   1.226  0.00  0.00    +0.046 A 
ATOM      4  C   UNL     1      -9.703   0.182   0.048  0.00  0.00    +0.004 A 
ATOM      5  C   UNL     1      -9.232   0.734  -1.129  0.00  0.00    +0.000 A 
ATOM      6  C   UNL     1      -8.065   1.475  -1.129  0.00  0.00    +0.005 A 
ATOM      7  C   UNL     1      -7.361   1.657   0.046  0.00  0.00    -0.023 A 
BRANCH   2   8
ATOM      8  O   UNL     1      -7.143   1.286   2.386  0.00  0.00    -0.483 OA
BRANCH   8   9
ATOM      9  C   UNL     1      -7.687   0.688   3.564  0.00  0.00    +0.324 C 
BRANCH   9  11
ATOM     10  N   UNL     1      -7.111   0.529   5.965  0.00  0.00    -0.308 N 
ATOM     11  C   UNL     1      -6.795   0.995   4.740  0.00  0.00    +0.251 C 
ATOM     12  O   UNL     1      -5.793   1.660   4.584  0.00  0.00    -0.272 OA
ATOM     13  H   UNL     1      -8.020  -0.074   6.106  0.00  0.00    +0.149 HD
BRANCH  10  15
ATOM     14  C   UNL     1      -6.156   2.343   7.299  0.00  0.00    +0.031 C 
ATOM     15  C   UNL     1      -6.245   0.827   7.108  0.00  0.00    +0.026 C 
ATOM     16  C   UNL     1      -6.827   0.187   8.370  0.00  0.00    +0.031 C 
ATOM     17  C   UNL     1      -4.846   0.264   6.848  0.00  0.00    +0.031 C 
ENDBRANCH  10  15
ENDBRANCH   9  11
ENDBRANCH   8   9
ENDBRANCH   2   8
ENDBRANCH   1   7
BRANCH   1  18
ATOM     18  N   UNL     1      -4.933   1.550   0.034  0.00  0.00    +0.383 N 
ATOM     19  H   UNL     1      -4.963   0.911   0.929  0.00  0.00    -0.085 HD
ATOM     20  H   UNL     1      -4.971   0.921  -0.868  0.00  0.00    -0.085 HD
BRANCH  18  21
ATOM     21  C   UNL     1      -3.670   2.300   0.032  0.00  0.00    -0.063 C 
BRANCH  21  22
ATOM     22  C   UNL     1      -2.495   1.321   0.021  0.00  0.00    +0.082 C 
BRANCH  22  23
ATOM     23  N   UNL     1      -1.236   2.068   0.019  0.00  0.00    -0.345 N 
ATOM     24  H   UNL     1      -1.249   3.168   0.025  0.00  0.00    +0.146 HD
BRANCH  23  25
ATOM     25  C   UNL     1      -0.017   1.385   0.010  0.00  0.00    +0.046 A 
ATOM     26  C   UNL     1       0.002  -0.004   0.002  0.00  0.00    +0.026 A 
ATOM     27  C   UNL     1       1.208  -0.677  -0.013  0.00  0.00    +0.034 A 
ATOM     28  C   UNL     1       2.397   0.030  -0.021  0.00  0.00    +0.128 A 
ATOM     29  C   UNL     1       2.382   1.413  -0.014  0.00  0.00    +0.054 A 
ATOM     30  C   UNL     1       1.179   2.093   0.002  0.00  0.00    +0.064 A 
ATOM     31 CL   UNL     1       1.162   3.829   0.011  0.00  0.00    -0.082 Cl
BRANCH  28  32
ATOM     32  N   UNL     1       3.687  -0.695  -0.038  0.00  0.00    +0.056 N 
ATOM     33  O   UNL     1       3.701  -1.913  -0.045  0.00  0.00    -0.126 OA
ATOM     34  O   UNL     1       4.734  -0.074  -0.045  0.00  0.00    -0.126 OA
ENDBRANCH  28  32
ENDBRANCH  23  25
ENDBRANCH  22  23
ENDBRANCH  21  22
ENDBRANCH  18  21
ENDBRANCH   1  18
TORSDOF 11
