REMARK  Name = ZINC13006213
REMARK  13 active torsions:
REMARK  status: ('A' for Active; 'I' for Inactive)
REMARK    1  A    between atoms: C_1  and  C_2
REMARK    2  A    between atoms: C_2  and  C_3
REMARK    3  A    between atoms: C_2  and  C_4
REMARK    4  A    between atoms: C_4  and  C_6
REMARK    5  A    between atoms: C_4  and  N_18
REMARK    6  A    between atoms: N_8  and  C_9
REMARK    7  A    between atoms: C_11  and  C_16
REMARK    8  A    between atoms: C_11  and  C_17
REMARK    9  A    between atoms: C_12  and  C_14
REMARK   10  A    between atoms: C_12  and  C_15
REMARK   11  A    between atoms: N_18  and  S_19
REMARK   12  A    between atoms: S_19  and  C_22
REMARK   13  A    between atoms: C_23  and  C_24
REMARK                            x       y       z     vdW  Elec       q    Type
REMARK                         _______ _______ _______ _____ _____    ______ ____
ROOT
ATOM      1  C   UNL     1       1.198   4.574  -5.758  0.00  0.00    +0.165 C 
ENDROOT
BRANCH   1   2
ATOM      2  C   UNL     1       0.950   4.026  -4.376  0.00  0.00    +0.232 C 
ATOM      3  O   UNL     1       0.029   4.452  -3.711  0.00  0.00    -0.274 OA
ATOM      4  N   UNL     1       1.750   3.062  -3.879  0.00  0.00    -0.311 N 
ATOM      5  H   UNL     1       2.445   2.674  -4.435  0.00  0.00    +0.149 HD
BRANCH   4   6
ATOM      6  C   UNL     1       1.571   2.599  -2.498  0.00  0.00    +0.070 C 
ATOM      7  C   UNL     1       2.891   2.023  -1.985  0.00  0.00    +0.009 C 
ATOM      8  C   UNL     1       2.729   1.514  -0.555  0.00  0.00    -0.072 C 
ATOM      9  C   UNL     1       0.326   0.976  -1.046  0.00  0.00    -0.072 C 
ATOM     10  C   UNL     1       0.516   1.493  -2.470  0.00  0.00    +0.009 C 
ATOM     11  C   UNL     1      -0.521  -0.314  -1.130  0.00  0.00    -0.010 C 
ATOM     12  C   UNL     1      -0.482   1.995  -0.234  0.00  0.00    -0.010 C 
ATOM     13  C   UNL     1       2.676   2.704   0.410  0.00  0.00    -0.010 C 
ATOM     14  C   UNL     1       3.993   0.697  -0.205  0.00  0.00    -0.010 C 
ATOM     15  N   UNL     1       1.580   0.592  -0.345  0.00  0.00    +0.386 N 
ATOM     16  H   UNL     1       1.383   0.554   0.662  0.00  0.00    -0.084 HD
ATOM     17  H   UNL     1       1.857  -0.340  -0.675  0.00  0.00    -0.084 HD
ENDBRANCH   4   6
ENDBRANCH   1   2
BRANCH   1  19
ATOM     18  C   UNL     1      -0.903   3.553  -6.645  0.00  0.00    +0.009 C 
ATOM     19  C   UNL     1       0.618   3.614  -6.799  0.00  0.00    +0.010 C 
ATOM     20  C   UNL     1       0.969   4.111  -8.202  0.00  0.00    +0.009 C 
ENDBRANCH   1  19
BRANCH   1  21
ATOM     21  N   UNL     1       0.552   5.882  -5.887  0.00  0.00    -0.178 NA
ATOM     22  H   UNL     1      -0.385   5.939  -6.130  0.00  0.00    +0.149 HD
BRANCH  21  23
ATOM     23  S   UNL     1       1.423   7.265  -5.619  0.00  0.00    +0.052 S 
ATOM     24  O   UNL     1       0.545   8.354  -5.874  0.00  0.00    -0.154 OA
ATOM     25  O   UNL     1       2.083   7.094  -4.373  0.00  0.00    -0.154 OA
BRANCH  23  26
ATOM     26  C   UNL     1       2.682   7.335  -6.850  0.00  0.00    +0.153 C 
ATOM     27  C   UNL     1       2.675   8.309  -7.750  0.00  0.00    +0.028 C 
BRANCH  27  28
ATOM     28  C   UNL     1       3.731   8.367  -8.783  0.00  0.00    -0.024 A 
ATOM     29  C   UNL     1       4.739   7.403  -8.810  0.00  0.00    +0.008 A 
ATOM     30  C   UNL     1       5.719   7.460  -9.780  0.00  0.00    +0.001 A 
ATOM     31  C   UNL     1       5.709   8.477 -10.717  0.00  0.00    +0.000 A 
ATOM     32  C   UNL     1       4.716   9.439 -10.693  0.00  0.00    +0.001 A 
ATOM     33  C   UNL     1       3.727   9.390  -9.732  0.00  0.00    +0.008 A 
ENDBRANCH  27  28
ENDBRANCH  23  26
ENDBRANCH  21  23
ENDBRANCH   1  21
TORSDOF 7
