REMARK  Name = ZINC10578371
REMARK  9 active torsions:
REMARK  status: ('A' for Active; 'I' for Inactive)
REMARK    1  A    between atoms: C_1  and  C_2
REMARK    2  A    between atoms: C_2  and  C_4
REMARK    3  A    between atoms: C_2  and  N_10
REMARK    4  A    between atoms: C_11  and  C_13
REMARK    5  A    between atoms: C_18  and  N_19
REMARK    6  A    between atoms: C_20  and  C_22
REMARK    7  A    between atoms: C_22  and  N_23
REMARK    8  A    between atoms: C_26  and  C_30
REMARK    9  A    between atoms: C_26  and  C_31
REMARK                            x       y       z     vdW  Elec       q    Type
REMARK                         _______ _______ _______ _____ _____    ______ ____
ROOT
ATOM      1  N   UNL     1      -0.283  -0.325  -4.889  0.00  0.00    -0.284 N 
ATOM      2  C   UNL     1       0.444  -0.499  -6.011  0.00  0.00    +0.235 C 
ATOM      3  O   UNL     1       0.415   0.339  -6.888  0.00  0.00    -0.274 OA
ATOM      4  H   UNL     1      -0.202  -0.956  -4.157  0.00  0.00    +0.155 HD
ENDROOT
BRANCH   1  10
ATOM      5  C   UNL     1      -1.341   1.389  -3.543  0.00  0.00    +0.058 A 
ATOM      6  C   UNL     1      -2.208   2.480  -3.450  0.00  0.00    +0.015 A 
ATOM      7  C   UNL     1      -2.873   2.927  -4.571  0.00  0.00    +0.001 A 
ATOM      8  C   UNL     1      -2.685   2.301  -5.792  0.00  0.00    +0.002 A 
ATOM      9  C   UNL     1      -1.832   1.221  -5.900  0.00  0.00    +0.024 A 
ATOM     10  C   UNL     1      -1.149   0.760  -4.782  0.00  0.00    +0.046 A 
BRANCH   5  12
ATOM     11  N   UNL     1      -0.729   1.576  -1.183  0.00  0.00    -0.305 N 
ATOM     12  C   UNL     1      -0.626   0.906  -2.347  0.00  0.00    +0.246 C 
ATOM     13  O   UNL     1       0.058  -0.098  -2.411  0.00  0.00    -0.270 OA
ATOM     14  H   UNL     1      -1.274   2.377  -1.131  0.00  0.00    +0.150 HD
BRANCH  11  16
ATOM     15  C   UNL     1       1.414   1.631  -0.006  0.00  0.00    +0.033 C 
ATOM     16  C   UNL     1      -0.019   1.096   0.005  0.00  0.00    +0.100 C 
BRANCH  16  17
ATOM     17  C   UNL     1      -0.727   1.582   1.244  0.00  0.00    -0.027 A 
ATOM     18  C   UNL     1      -1.237   2.865   1.290  0.00  0.00    +0.005 A 
ATOM     19  C   UNL     1      -1.890   3.309   2.425  0.00  0.00    +0.000 A 
ATOM     20  C   UNL     1      -2.024   2.472   3.517  0.00  0.00    +0.000 A 
ATOM     21  C   UNL     1      -1.510   1.190   3.473  0.00  0.00    +0.000 A 
ATOM     22  C   UNL     1      -0.861   0.745   2.336  0.00  0.00    +0.005 A 
ENDBRANCH  16  17
ENDBRANCH  11  16
ENDBRANCH   5  12
ENDBRANCH   1  10
BRANCH   2  23
ATOM     23  C   UNL     1       1.291  -1.734  -6.177  0.00  0.00    +0.214 C 
BRANCH  23  24
ATOM     24  N   UNL     1       1.976  -1.687  -7.471  0.00  0.00    -0.215 N 
ATOM     25  C   UNL     1       3.191  -1.136  -7.664  0.00  0.00    +0.254 C 
ATOM     26  O   UNL     1       3.895  -0.605  -6.832  0.00  0.00    -0.272 OA
ATOM     27  C   UNL     1       3.493  -1.317  -9.138  0.00  0.00    +0.168 C 
ATOM     28  N   UNL     1       2.302  -2.014  -9.653  0.00  0.00    -0.279 N 
ATOM     29  C   UNL     1       1.476  -2.190  -8.605  0.00  0.00    +0.310 C 
ATOM     30  O   UNL     1       0.396  -2.741  -8.681  0.00  0.00    -0.252 OA
ATOM     31  C   UNL     1       3.660   0.040  -9.824  0.00  0.00    +0.050 C 
ATOM     32  H   UNL     1       2.145  -2.296 -10.568  0.00  0.00    +0.152 HD
BRANCH  27  33
ATOM     33  C   UNL     1       4.728  -2.160  -9.327  0.00  0.00    +0.137 A 
ATOM     34  C   UNL     1       4.972  -2.976 -10.368  0.00  0.00    +0.047 A 
ATOM     35  C   UNL     1       6.237  -3.564 -10.140  0.00  0.00    +0.041 A 
ATOM     36  C   UNL     1       6.687  -3.079  -8.969  0.00  0.00    +0.195 A 
ATOM     37  O   UNL     1       5.769  -2.229  -8.481  0.00  0.00    -0.465 OA
ENDBRANCH  27  33
ENDBRANCH  23  24
ENDBRANCH   2  23
TORSDOF 7
