REMARK  Name = ZINC63349871
REMARK  9 active torsions:
REMARK  status: ('A' for Active; 'I' for Inactive)
REMARK    1  A    between atoms: C_1  and  O_2
REMARK    2  A    between atoms: O_2  and  C_3
REMARK    3  A    between atoms: C_10  and  C_18
REMARK    4  A    between atoms: C_21  and  O_38
REMARK    5  A    between atoms: C_22  and  C_24
REMARK    6  A    between atoms: C_24  and  O_25
REMARK    7  A    between atoms: O_25  and  C_26
REMARK    8  A    between atoms: C_31  and  C_32
REMARK    9  A    between atoms: O_38  and  C_39
REMARK                            x       y       z     vdW  Elec       q    Type
REMARK                         _______ _______ _______ _____ _____    ______ ____
ROOT
ATOM      1  C   UNL     1       0.299  -4.108  -5.269  0.00  0.00    -0.028 A 
ATOM      2  C   UNL     1      -0.843  -4.270  -4.506  0.00  0.00    +0.009 A 
ATOM      3  C   UNL     1      -2.018  -3.649  -4.879  0.00  0.00    +0.046 A 
ATOM      4  C   UNL     1      -2.053  -2.861  -6.021  0.00  0.00    +0.126 A 
ATOM      5  C   UNL     1      -0.906  -2.699  -6.784  0.00  0.00    +0.032 A 
ATOM      6  C   UNL     1       0.269  -3.319  -6.403  0.00  0.00    +0.015 A 
ENDROOT
BRANCH   1  13
ATOM      7  C   UNL     1      -0.968  -2.969  -0.054  0.00  0.00    +0.121 A 
ATOM      8  C   UNL     1      -0.383  -1.745  -0.419  0.00  0.00    +0.047 A 
ATOM      9  C   UNL     1       0.537  -1.646  -1.403  0.00  0.00    +0.029 A 
ATOM     10  C   UNL     1       0.958  -2.845  -2.132  0.00  0.00    +0.043 A 
ATOM     11  N   UNL     1       1.800  -3.016  -3.125  0.00  0.00    -0.376 N 
ATOM     12  C   UNL     1       1.903  -4.445  -3.402  0.00  0.00    +0.128 C 
ATOM     13  C   UNL     1       1.580  -4.788  -4.859  0.00  0.00    +0.111 C 
ATOM     14  N   UNL     1       1.424  -6.247  -4.968  0.00  0.00    -0.307 NA
ATOM     15  C   UNL     1       0.253  -6.759  -4.250  0.00  0.00    +0.086 C 
ATOM     16  C   UNL     1       0.425  -6.542  -2.735  0.00  0.00    +0.048 C 
ATOM     17  C   UNL     1       0.835  -5.099  -2.540  0.00  0.00    -0.035 C 
ATOM     18  C   UNL     1       0.334  -4.139  -1.754  0.00  0.00    +0.003 A 
ATOM     19  C   UNL     1      -0.648  -4.135  -0.664  0.00  0.00    +0.055 A 
ATOM     20  H   UNL     1       1.413  -6.539  -5.933  0.00  0.00    +0.123 HD
ATOM     21  H   UNL     1       2.273  -2.312  -3.595  0.00  0.00    +0.160 HD
BRANCH   7  23
ATOM     22  C   UNL     1      -2.191  -1.733   1.567  0.00  0.00    +0.277 C 
ATOM     23  O   UNL     1      -1.883  -2.985   0.951  0.00  0.00    -0.495 OA
ENDBRANCH   7  23
ENDBRANCH   1  13
BRANCH   4  24
ATOM     24  O   UNL     1      -3.208  -2.248  -6.391  0.00  0.00    -0.495 OA
ATOM     25  C   UNL     1      -4.350  -2.459  -5.558  0.00  0.00    +0.277 C 
ENDBRANCH   4  24
BRANCH   5  26
ATOM     26  C   UNL     1      -0.940  -1.844  -8.024  0.00  0.00    +0.268 C 
BRANCH  26  27
ATOM     27  O   UNL     1       0.354  -1.835  -8.632  0.00  0.00    -0.487 OA
BRANCH  27  28
ATOM     28  C   UNL     1       0.496  -1.105  -9.769  0.00  0.00    +0.124 A 
ATOM     29  C   UNL     1      -0.586  -0.407 -10.287  0.00  0.00    +0.046 A 
ATOM     30  C   UNL     1      -0.438   0.335 -11.443  0.00  0.00    +0.004 A 
ATOM     31  C   UNL     1       0.786   0.382 -12.084  0.00  0.00    +0.001 A 
ATOM     32  C   UNL     1       1.865  -0.312 -11.570  0.00  0.00    +0.007 A 
ATOM     33  C   UNL     1       1.724  -1.051 -10.411  0.00  0.00    -0.003 A 
BRANCH  33  34
ATOM     34  C   UNL     1       2.903  -1.803  -9.849  0.00  0.00    +0.023 C 
ATOM     35  C   UNL     1       4.026  -0.818  -9.518  0.00  0.00    +0.008 C 
ATOM     36  C   UNL     1       5.223  -1.581  -8.947  0.00  0.00    +0.001 C 
ATOM     37  C   UNL     1       5.721  -2.595  -9.979  0.00  0.00    +0.000 C 
ATOM     38  C   UNL     1       4.598  -3.580 -10.309  0.00  0.00    +0.001 C 
ATOM     39  C   UNL     1       3.401  -2.817 -10.881  0.00  0.00    +0.008 C 
ENDBRANCH  33  34
ENDBRANCH  27  28
ENDBRANCH  26  27
ENDBRANCH   5  26
TORSDOF 7
