REMARK  Name = ZINC02214189
REMARK  7 active torsions:
REMARK  status: ('A' for Active; 'I' for Inactive)
REMARK    1  A    between atoms: C_3  and  C_8
REMARK    2  A    between atoms: C_11  and  S_20
REMARK    3  A    between atoms: N_12  and  C_13
REMARK    4  A    between atoms: S_20  and  C_21
REMARK    5  A    between atoms: C_21  and  C_22
REMARK    6  A    between atoms: N_24  and  C_25
REMARK    7  A    between atoms: C_28  and  C_31
REMARK                            x       y       z     vdW  Elec       q    Type
REMARK                         _______ _______ _______ _____ _____    ______ ____
ROOT
ATOM      1  C   UNL     1      -0.529  -0.582  -0.864  0.00  0.00    +0.169 A 
ATOM      2  N   UNL     1      -0.317  -1.829  -0.513  0.00  0.00    -0.128 NA
ATOM      3  N   UNL     1       0.345  -1.871   0.587  0.00  0.00    -0.122 NA
ATOM      4  C   UNL     1       0.602  -0.651   1.007  0.00  0.00    +0.197 A 
ATOM      5  N   UNL     1       0.058   0.213   0.097  0.00  0.00    -0.270 N 
ENDROOT
BRANCH   1   8
ATOM      6  C   UNL     1      -1.773   1.618  -3.642  0.00  0.00    +0.002 A 
ATOM      7  C   UNL     1      -1.095   1.192  -2.518  0.00  0.00    +0.012 A 
ATOM      8  C   UNL     1      -1.257  -0.117  -2.063  0.00  0.00    +0.021 A 
ATOM      9  C   UNL     1      -2.113  -0.985  -2.743  0.00  0.00    +0.031 A 
ATOM     10  C   UNL     1      -2.790  -0.545  -3.863  0.00  0.00    +0.042 A 
ATOM     11  C   UNL     1      -2.621   0.754  -4.311  0.00  0.00    +0.020 A 
ATOM     12 CL   UNL     1      -3.856  -1.622  -4.710  0.00  0.00    -0.084 Cl
ENDBRANCH   1   8
BRANCH   5  13
ATOM     13  C   UNL     1       0.087   1.614   0.136  0.00  0.00    +0.051 A 
ATOM     14  C   UNL     1      -1.087   2.328   0.339  0.00  0.00    +0.028 A 
ATOM     15  C   UNL     1      -1.055   3.708   0.382  0.00  0.00    +0.022 A 
ATOM     16  C   UNL     1       0.143   4.380   0.212  0.00  0.00    +0.041 A 
ATOM     17  C   UNL     1       1.313   3.670   0.006  0.00  0.00    +0.022 A 
ATOM     18  C   UNL     1       1.288   2.290  -0.033  0.00  0.00    +0.028 A 
ATOM     19 CL   UNL     1       0.178   6.115   0.260  0.00  0.00    -0.084 Cl
ENDBRANCH   5  13
BRANCH   4  20
ATOM     20  S   UNL     1       1.484  -0.213   2.468  0.00  0.00    -0.076 S 
BRANCH  20  21
ATOM     21  C   UNL     1       1.865  -1.861   3.112  0.00  0.00    +0.173 C 
BRANCH  21  22
ATOM     22  C   UNL     1       2.640  -1.731   4.398  0.00  0.00    +0.227 C 
ATOM     23  O   UNL     1       2.908  -0.632   4.836  0.00  0.00    -0.275 OA
ATOM     24  N   UNL     1       3.034  -2.836   5.061  0.00  0.00    -0.285 N 
ATOM     25  H   UNL     1       2.879  -3.713   4.678  0.00  0.00    +0.155 HD
BRANCH  24  26
ATOM     26  C   UNL     1       3.665  -2.718   6.300  0.00  0.00    +0.033 A 
ATOM     27  C   UNL     1       4.530  -1.655   6.539  0.00  0.00    +0.024 A 
ATOM     28  C   UNL     1       5.150  -1.532   7.762  0.00  0.00    +0.015 A 
ATOM     29  C   UNL     1       4.918  -2.483   8.760  0.00  0.00    +0.037 A 
ATOM     30  C   UNL     1       4.053  -3.552   8.514  0.00  0.00    +0.015 A 
ATOM     31  C   UNL     1       3.432  -3.666   7.291  0.00  0.00    +0.024 A 
BRANCH  29  32
ATOM     32  C   UNL     1       5.586  -2.358  10.070  0.00  0.00    +0.242 C 
ATOM     33  O   UNL     1       5.383  -3.186  10.937  0.00  0.00    -0.270 OA
ATOM     34  N   UNL     1       6.420  -1.326  10.305  0.00  0.00    -0.325 N 
ATOM     35  H   UNL     1       6.583  -0.666   9.614  0.00  0.00    +0.145 HD
ATOM     36  H   UNL     1       6.859  -1.244  11.167  0.00  0.00    +0.145 HD
ENDBRANCH  29  32
ENDBRANCH  24  26
ENDBRANCH  21  22
ENDBRANCH  20  21
ENDBRANCH   4  20
TORSDOF 7
