REMARK  Name = ZINC40847828
REMARK  9 active torsions:
REMARK  status: ('A' for Active; 'I' for Inactive)
REMARK    1  A    between atoms: C_1  and  O_2
REMARK    2  A    between atoms: O_2  and  C_3
REMARK    3  A    between atoms: C_6  and  N_9
REMARK    4  A    between atoms: C_12  and  C_14
REMARK    5  A    between atoms: N_20  and  C_23
REMARK    6  A    between atoms: C_26  and  C_29
REMARK    7  A    between atoms: C_29  and  C_32
REMARK    8  A    between atoms: C_32  and  C_33
REMARK    9  A    between atoms: C_33  and  N_34
REMARK                            x       y       z     vdW  Elec       q    Type
REMARK                         _______ _______ _______ _____ _____    ______ ____
ROOT
ATOM      1  N   UNL     1       2.478  -3.689  -5.929  0.00  0.00    -0.227 N 
ATOM      2  C   UNL     1       3.208  -4.013  -4.842  0.00  0.00    +0.133 A 
ATOM      3  C   UNL     1       4.221  -3.058  -4.747  0.00  0.00    +0.016 A 
ATOM      4  C   UNL     1       4.022  -2.198  -5.806  0.00  0.00    +0.170 A 
ATOM      5  N   UNL     1       2.972  -2.627  -6.474  0.00  0.00    -0.161 NA
ATOM      6  C   UNL     1       5.253  -3.106  -3.657  0.00  0.00    +0.059 C 
ATOM      7  C   UNL     1       4.641  -3.788  -2.431  0.00  0.00    +0.119 C 
ATOM      8  N   UNL     1       3.914  -5.005  -2.769  0.00  0.00    -0.266 N 
ATOM      9  C   UNL     1       3.118  -5.102  -3.860  0.00  0.00    +0.270 C 
ATOM     10  O   UNL     1       2.366  -6.044  -4.020  0.00  0.00    -0.268 OA
ENDROOT
BRANCH   1  14
ATOM     11  C   UNL     1      -0.841  -5.794  -7.322  0.00  0.00    +0.120 A 
ATOM     12  C   UNL     1      -0.691  -5.557  -5.963  0.00  0.00    +0.048 A 
ATOM     13  C   UNL     1       0.408  -4.860  -5.502  0.00  0.00    +0.031 A 
ATOM     14  C   UNL     1       1.363  -4.396  -6.397  0.00  0.00    +0.066 A 
ATOM     15  C   UNL     1       1.211  -4.634  -7.757  0.00  0.00    +0.031 A 
ATOM     16  C   UNL     1       0.115  -5.335  -8.217  0.00  0.00    +0.048 A 
BRANCH  11  18
ATOM     17  C   UNL     1      -2.868  -6.922  -6.800  0.00  0.00    +0.277 C 
ATOM     18  O   UNL     1      -1.923  -6.480  -7.776  0.00  0.00    -0.495 OA
ENDBRANCH  11  18
ENDBRANCH   1  14
BRANCH   8  19
ATOM     19  C   UNL     1       4.043  -6.118  -1.933  0.00  0.00    +0.037 A 
ATOM     20  C   UNL     1       5.045  -7.051  -2.167  0.00  0.00    +0.024 A 
ATOM     21  C   UNL     1       5.171  -8.150  -1.339  0.00  0.00    +0.006 A 
ATOM     22  C   UNL     1       4.300  -8.321  -0.279  0.00  0.00    -0.041 A 
ATOM     23  C   UNL     1       3.302  -7.394  -0.043  0.00  0.00    +0.006 A 
ATOM     24  C   UNL     1       3.174  -6.290  -0.864  0.00  0.00    +0.024 A 
BRANCH  22  25
ATOM     25  C   UNL     1       4.440  -9.521   0.622  0.00  0.00    -0.006 C 
ATOM     26  C   UNL     1       5.832  -9.832   1.174  0.00  0.00    +0.012 C 
ATOM     27  C   UNL     1       4.753  -9.264   2.098  0.00  0.00    +0.012 C 
BRANCH  25  28
ATOM     28  C   UNL     1       3.530 -10.706   0.289  0.00  0.00    -0.007 C 
BRANCH  28  29
ATOM     29  C   UNL     1       3.912 -11.272  -1.080  0.00  0.00    -0.078 C 
BRANCH  29  30
ATOM     30  N   UNL     1       3.025 -12.395  -1.410  0.00  0.00    +0.380 N 
ATOM     31  C   UNL     1       3.263 -13.510  -0.468  0.00  0.00    -0.079 C 
ATOM     32  C   UNL     1       3.096 -14.791  -1.322  0.00  0.00    -0.020 C 
ATOM     33  C   UNL     1       3.718 -14.351  -2.674  0.00  0.00    -0.020 C 
ATOM     34  C   UNL     1       3.308 -12.867  -2.778  0.00  0.00    -0.079 C 
ATOM     35  H   UNL     1       2.062 -12.099  -1.346  0.00  0.00    -0.082 HD
ENDBRANCH  29  30
ENDBRANCH  28  29
ENDBRANCH  25  28
ENDBRANCH  22  25
ENDBRANCH   8  19
BRANCH   4  36
ATOM     36  C   UNL     1       4.856  -0.988  -6.139  0.00  0.00    +0.436 C 
ATOM     37  F   UNL     1       5.896  -1.362  -6.998  0.00  0.00    -0.164 F 
ATOM     38  F   UNL     1       4.056  -0.028  -6.766  0.00  0.00    -0.164 F 
ATOM     39  F   UNL     1       5.392  -0.453  -4.963  0.00  0.00    -0.164 F 
ENDBRANCH   4  36
TORSDOF 8
