REMARK  Name = ZINC36581322
REMARK  13 active torsions:
REMARK  status: ('A' for Active; 'I' for Inactive)
REMARK    1  A    between atoms: C_1  and  C_2
REMARK    2  A    between atoms: C_7  and  C_8
REMARK    3  A    between atoms: C_8  and  C_9
REMARK    4  A    between atoms: N_11  and  C_12
REMARK    5  A    between atoms: N_11  and  C_31
REMARK    6  A    between atoms: C_12  and  C_14
REMARK    7  A    between atoms: C_12  and  C_22
REMARK    8  A    between atoms: C_17  and  O_20
REMARK    9  A    between atoms: O_20  and  C_21
REMARK   10  A    between atoms: N_24  and  C_25
REMARK   11  A    between atoms: C_31  and  C_32
REMARK   12  A    between atoms: C_31  and  C_33
REMARK   13  A    between atoms: C_31  and  C_34
REMARK                            x       y       z     vdW  Elec       q    Type
REMARK                         _______ _______ _______ _____ _____    ______ ____
ROOT
ATOM      1  C   UNL     1      -2.901   1.575   3.136  0.00  0.00    +0.193 C 
ENDROOT
BRANCH   1   2
ATOM      2  C   UNL     1      -3.078   2.893   2.427  0.00  0.00    -0.018 A 
ATOM      3  C   UNL     1      -2.394   4.011   2.867  0.00  0.00    +0.009 A 
ATOM      4  C   UNL     1      -2.555   5.220   2.219  0.00  0.00    +0.046 A 
ATOM      5  C   UNL     1      -3.403   5.312   1.125  0.00  0.00    +0.120 A 
ATOM      6  C   UNL     1      -4.087   4.189   0.684  0.00  0.00    +0.046 A 
ATOM      7  C   UNL     1      -3.919   2.981   1.333  0.00  0.00    +0.009 A 
BRANCH   5   8
ATOM      8  O   UNL     1      -3.563   6.501   0.485  0.00  0.00    -0.495 OA
ATOM      9  C   UNL     1      -4.452   6.521  -0.633  0.00  0.00    +0.277 C 
ENDBRANCH   5   8
ENDBRANCH   1   2
BRANCH   1  10
ATOM     10  C   UNL     1      -4.102   1.309   4.007  0.00  0.00    +0.238 C 
ATOM     11  O   UNL     1      -3.955   1.075   5.188  0.00  0.00    -0.273 OA
ATOM     12  N   UNL     1      -5.340   1.330   3.474  0.00  0.00    -0.311 N 
ATOM     13  H   UNL     1      -5.457   1.516   2.529  0.00  0.00    +0.149 HD
BRANCH  12  14
ATOM     14  C   UNL     1      -6.507   1.071   4.320  0.00  0.00    +0.073 C 
ATOM     15  C   UNL     1      -6.736  -0.439   4.424  0.00  0.00    +0.022 C 
ATOM     16  C   UNL     1      -7.955  -0.709   5.309  0.00  0.00    +0.002 C 
ATOM     17  C   UNL     1      -9.189  -0.047   4.692  0.00  0.00    +0.000 C 
ATOM     18  C   UNL     1      -8.960   1.462   4.588  0.00  0.00    +0.002 C 
ATOM     19  C   UNL     1      -7.741   1.733   3.704  0.00  0.00    +0.022 C 
ENDBRANCH  12  14
ENDBRANCH   1  10
BRANCH   1  22
ATOM     20  C   UNL     1      -1.664   2.416   5.060  0.00  0.00    +0.221 C 
ATOM     21  O   UNL     1      -2.665   3.002   5.414  0.00  0.00    -0.275 OA
ATOM     22  N   UNL     1      -1.696   1.626   3.968  0.00  0.00    -0.281 N 
BRANCH  22  23
ATOM     23  C   UNL     1      -0.526   0.819   3.613  0.00  0.00    +0.030 C 
ATOM     24  C   UNL     1      -0.304  -0.254   4.680  0.00  0.00    +0.031 C 
ATOM     25  C   UNL     1      -0.761   0.150   2.257  0.00  0.00    +0.031 C 
ATOM     26  C   UNL     1       0.708   1.720   3.530  0.00  0.00    +0.031 C 
ENDBRANCH  22  23
BRANCH  20  27
ATOM     27  C   UNL     1      -0.385   2.570   5.841  0.00  0.00    +0.131 C 
BRANCH  27  34
ATOM     28  C   UNL     1      -1.364   1.278   8.233  0.00  0.00    +0.044 C 
ATOM     29  C   UNL     1      -1.117   2.764   8.227  0.00  0.00    -0.047 A 
ATOM     30  C   UNL     1      -1.353   3.509   9.367  0.00  0.00    +0.003 A 
ATOM     31  C   UNL     1      -1.127   4.872   9.361  0.00  0.00    +0.000 A 
ATOM     32  C   UNL     1      -0.663   5.492   8.216  0.00  0.00    +0.000 A 
ATOM     33  C   UNL     1      -0.426   4.747   7.076  0.00  0.00    +0.004 A 
ATOM     34  C   UNL     1      -0.649   3.382   7.082  0.00  0.00    -0.036 A 
ENDBRANCH  27  34
ENDBRANCH  20  27
ENDBRANCH   1  22
TORSDOF 8
