REMARK  Name = ZINC02553982
REMARK  10 active torsions:
REMARK  status: ('A' for Active; 'I' for Inactive)
REMARK    1  A    between atoms: C_1  and  C_2
REMARK    2  A    between atoms: C_2  and  C_33
REMARK    3  A    between atoms: C_7  and  C_11
REMARK    4  A    between atoms: C_11  and  S_12
REMARK    5  A    between atoms: S_12  and  N_15
REMARK    6  A    between atoms: N_15  and  C_16
REMARK    7  A    between atoms: C_16  and  C_18
REMARK    8  A    between atoms: C_16  and  C_24
REMARK    9  A    between atoms: C_24  and  C_26
REMARK   10  A    between atoms: C_24  and  N_32
REMARK                            x       y       z     vdW  Elec       q    Type
REMARK                         _______ _______ _______ _____ _____    ______ ____
ROOT
ATOM      1  C   UNL     1      -3.073   0.926   1.442  0.00  0.00    +0.096 C 
ENDROOT
BRANCH   1   2
ATOM      2  C   UNL     1      -2.138   0.136   2.321  0.00  0.00    -0.030 A 
ATOM      3  C   UNL     1      -2.170  -1.246   2.299  0.00  0.00    +0.005 A 
ATOM      4  C   UNL     1      -1.308  -1.970   3.101  0.00  0.00    +0.000 A 
ATOM      5  C   UNL     1      -0.421  -1.313   3.933  0.00  0.00    +0.000 A 
ATOM      6  C   UNL     1      -0.393   0.069   3.959  0.00  0.00    +0.000 A 
ATOM      7  C   UNL     1      -1.251   0.794   3.153  0.00  0.00    +0.005 A 
ENDBRANCH   1   2
BRANCH   1   8
ATOM      8  N   UNL     1      -4.389   0.281   1.426  0.00  0.00    -0.188 NA
ATOM      9  H   UNL     1      -4.646  -0.422   0.620  0.00  0.00    +0.148 HD
BRANCH   8  10
ATOM     10  S   UNL     1      -5.572   0.788   2.467  0.00  0.00    +0.031 S 
ATOM     11  O   UNL     1      -6.681  -0.058   2.195  0.00  0.00    -0.158 OA
ATOM     12  O   UNL     1      -4.955   0.785   3.747  0.00  0.00    -0.158 OA
BRANCH  10  13
ATOM     13  C   UNL     1      -5.945   2.489   1.957  0.00  0.00    +0.200 C 
BRANCH  13  19
ATOM     14  C   UNL     1      -6.365   5.542   2.722  0.00  0.00    +0.012 C 
ATOM     15  C   UNL     1      -7.498   4.530   2.540  0.00  0.00    -0.018 C 
ATOM     16  C   UNL     1      -8.573   4.609   3.682  0.00  0.00    +0.003 C 
ATOM     17  C   UNL     1      -7.706   4.224   4.920  0.00  0.00    +0.005 C 
ATOM     18  C   UNL     1      -6.680   3.176   4.374  0.00  0.00    +0.017 C 
ATOM     19  C   UNL     1      -7.038   3.064   2.860  0.00  0.00    +0.055 C 
ATOM     20  C   UNL     1      -8.384   2.326   2.835  0.00  0.00    +0.142 C 
ATOM     21  O   UNL     1      -8.592   1.196   2.465  0.00  0.00    -0.297 OA
ATOM     22  C   UNL     1      -9.399   3.323   3.375  0.00  0.00    +0.079 C 
ATOM     23  C   UNL     1      -8.143   4.641   1.157  0.00  0.00    +0.012 C 
ENDBRANCH  13  19
ENDBRANCH  10  13
ENDBRANCH   8  10
ENDBRANCH   1   8
BRANCH   1  24
ATOM     24  C   UNL     1      -2.514   0.980   0.019  0.00  0.00    -0.021 C 
BRANCH  24  25
ATOM     25  C   UNL     1      -1.219   1.751   0.017  0.00  0.00    -0.060 A 
ATOM     26  C   UNL     1      -0.013   1.076   0.008  0.00  0.00    +0.002 A 
ATOM     27  C   UNL     1       1.175   1.783   0.000  0.00  0.00    +0.000 A 
ATOM     28  C   UNL     1       1.156   3.165   0.008  0.00  0.00    +0.000 A 
ATOM     29  C   UNL     1      -0.050   3.840   0.023  0.00  0.00    +0.000 A 
ATOM     30  C   UNL     1      -1.238   3.133   0.029  0.00  0.00    +0.002 A 
ENDBRANCH  24  25
BRANCH  24  31
ATOM     31  N   UNL     1      -3.482   1.645  -0.863  0.00  0.00    +0.384 N 
ATOM     32  H   UNL     1      -3.079   1.684  -1.886  0.00  0.00    -0.089 HD
ATOM     33  H   UNL     1      -3.663   2.668  -0.501  0.00  0.00    -0.089 HD
ATOM     34  H   UNL     1      -4.427   1.082  -0.861  0.00  0.00    -0.089 HD
ENDBRANCH  24  31
ENDBRANCH   1  24
TORSDOF 8
