REMARK  Name = ZINC13407702
REMARK  10 active torsions:
REMARK  status: ('A' for Active; 'I' for Inactive)
REMARK    1  A    between atoms: C_2  and  C_3
REMARK    2  A    between atoms: C_3  and  N_4
REMARK    3  A    between atoms: C_5  and  C_24
REMARK    4  A    between atoms: C_8  and  S_9
REMARK    5  A    between atoms: S_9  and  C_10
REMARK    6  A    between atoms: C_10  and  C_11
REMARK    7  A    between atoms: N_13  and  C_14
REMARK    8  A    between atoms: C_16  and  C_22
REMARK    9  A    between atoms: C_19  and  C_20
REMARK   10  A    between atoms: C_28  and  N_30
REMARK                            x       y       z     vdW  Elec       q    Type
REMARK                         _______ _______ _______ _____ _____    ______ ____
ROOT
ATOM      1  S   UNL     1      -1.505   3.372  -2.861  0.00  0.00    -0.077 S 
ENDROOT
BRANCH   1   6
ATOM      2  N   UNL     1      -2.200   1.227  -1.206  0.00  0.00    -0.298 N 
ATOM      3  C   UNL     1      -2.921   0.062  -1.342  0.00  0.00    +0.165 A 
ATOM      4  N   UNL     1      -3.348   0.016  -2.582  0.00  0.00    -0.128 NA
ATOM      5  N   UNL     1      -2.950   1.056  -3.223  0.00  0.00    -0.122 NA
ATOM      6  C   UNL     1      -2.248   1.834  -2.429  0.00  0.00    +0.193 A 
BRANCH   3   7
ATOM      7  C   UNL     1      -3.167  -0.946  -0.289  0.00  0.00    +0.021 A 
ATOM      8  C   UNL     1      -4.180  -1.893  -0.449  0.00  0.00    +0.012 A 
ATOM      9  C   UNL     1      -4.404  -2.832   0.537  0.00  0.00    +0.003 A 
ATOM     10  C   UNL     1      -3.627  -2.836   1.682  0.00  0.00    +0.033 A 
ATOM     11  C   UNL     1      -2.621  -1.901   1.846  0.00  0.00    +0.127 A 
ATOM     12  C   UNL     1      -2.383  -0.960   0.865  0.00  0.00    +0.044 A 
BRANCH  11  13
ATOM     13  N   UNL     1      -1.795  -1.913   3.074  0.00  0.00    +0.056 N 
ATOM     14  O   UNL     1      -2.001  -2.745   3.938  0.00  0.00    -0.126 OA
ATOM     15  O   UNL     1      -0.909  -1.090   3.220  0.00  0.00    -0.126 OA
ENDBRANCH  11  13
ENDBRANCH   3   7
BRANCH   2  16
ATOM     16  C   UNL     1      -1.528   1.716  -0.000  0.00  0.00    +0.152 C 
BRANCH  16  18
ATOM     17  C   UNL     1       0.900   1.878   0.196  0.00  0.00    +0.005 C 
ATOM     18  C   UNL     1      -0.153   1.106   0.091  0.00  0.00    -0.013 C 
ENDBRANCH  16  18
ENDBRANCH   2  16
ENDBRANCH   1   6
BRANCH   1  19
ATOM     19  C   UNL     1      -2.004   3.485  -4.598  0.00  0.00    +0.173 C 
BRANCH  19  20
ATOM     20  C   UNL     1      -1.464   4.759  -5.193  0.00  0.00    +0.228 C 
ATOM     21  O   UNL     1      -0.808   5.517  -4.511  0.00  0.00    -0.275 OA
ATOM     22  N   UNL     1      -1.712   5.057  -6.484  0.00  0.00    -0.284 N 
ATOM     23  H   UNL     1      -2.297   4.489  -7.010  0.00  0.00    +0.155 HD
BRANCH  22  24
ATOM     24  C   UNL     1      -1.128   6.181  -7.064  0.00  0.00    +0.048 A 
ATOM     25  C   UNL     1       0.062   6.685  -6.560  0.00  0.00    +0.039 A 
ATOM     26  C   UNL     1       0.645   7.807  -7.146  0.00  0.00    +0.065 A 
ATOM     27  C   UNL     1       0.027   8.431  -8.233  0.00  0.00    +0.016 A 
ATOM     28  C   UNL     1      -1.157   7.938  -8.733  0.00  0.00    +0.018 A 
ATOM     29  C   UNL     1      -1.746   6.811  -8.155  0.00  0.00    +0.084 A 
BRANCH  29  30
ATOM     30  C   UNL     1      -3.015   6.283  -8.691  0.00  0.00    +0.388 C 
ATOM     31  O   UNL     1      -3.580   5.368  -8.126  0.00  0.00    -0.241 OA
ATOM     32  O   UNL     1      -3.548   6.816  -9.808  0.00  0.00    -0.241 OA
ENDBRANCH  29  30
BRANCH  26  33
ATOM     33  C   UNL     1       1.918   8.341  -6.612  0.00  0.00    +0.387 C 
ATOM     34  O   UNL     1       2.456   7.799  -5.668  0.00  0.00    -0.241 OA
ATOM     35  O   UNL     1       2.480   9.428  -7.175  0.00  0.00    -0.241 OA
ENDBRANCH  26  33
ENDBRANCH  22  24
ENDBRANCH  19  20
ENDBRANCH   1  19
TORSDOF 10
