REMARK  Name = ZINC02869034
REMARK  6 active torsions:
REMARK  status: ('A' for Active; 'I' for Inactive)
REMARK    1  A    between atoms: C_1  and  O_2
REMARK    2  A    between atoms: O_2  and  C_3
REMARK    3  A    between atoms: C_6  and  N_9
REMARK    4  A    between atoms: C_18  and  C_22
REMARK    5  A    between atoms: C_18  and  N_26
REMARK    6  A    between atoms: C_28  and  C_30
REMARK                            x       y       z     vdW  Elec       q    Type
REMARK                         _______ _______ _______ _____ _____    ______ ____
ROOT
ATOM      1  N   UNL     1      -2.472   4.970   1.464  0.00  0.00    -0.249 N 
ATOM      2  C   UNL     1      -2.160   3.625   1.472  0.00  0.00    +0.125 A 
ATOM      3  C   UNL     1      -0.842   3.266   1.529  0.00  0.00    +0.097 A 
ATOM      4  C   UNL     1       0.152   4.247   1.574  0.00  0.00    +0.262 A 
ATOM      5  O   UNL     1       1.328   3.929   1.623  0.00  0.00    -0.267 OA
ATOM      6  N   UNL     1      -0.201   5.550   1.564  0.00  0.00    -0.274 N 
ATOM      7  H   UNL     1       0.504   6.258   1.598  0.00  0.00    +0.173 HD
ATOM      8  C   UNL     1      -1.500   5.897   1.510  0.00  0.00    +0.335 A 
ATOM      9  O   UNL     1      -1.801   7.075   1.502  0.00  0.00    -0.246 OA
ATOM     10  C   UNL     1      -0.810   1.756   1.523  0.00  0.00    +0.240 C 
ATOM     11  C   UNL     1      -2.274   1.367   1.458  0.00  0.00    +0.256 C 
ATOM     12  O   UNL     1      -2.727   0.243   1.435  0.00  0.00    -0.272 OA
ATOM     13  N   UNL     1      -2.971   2.517   1.433  0.00  0.00    -0.269 N 
ATOM     14  H   UNL     1      -3.939   2.559   1.392  0.00  0.00    +0.156 HD
ENDROOT
BRANCH   1  18
ATOM     15  C   UNL     1      -6.465   6.165   1.298  0.00  0.00    +0.120 A 
ATOM     16  C   UNL     1      -5.874   5.563   0.196  0.00  0.00    +0.047 A 
ATOM     17  C   UNL     1      -4.553   5.167   0.251  0.00  0.00    +0.030 A 
ATOM     18  C   UNL     1      -3.814   5.372   1.408  0.00  0.00    +0.053 A 
ATOM     19  C   UNL     1      -4.407   5.970   2.512  0.00  0.00    +0.030 A 
ATOM     20  C   UNL     1      -5.727   6.370   2.455  0.00  0.00    +0.047 A 
BRANCH  15  22
ATOM     21  C   UNL     1      -8.309   7.168   2.414  0.00  0.00    +0.277 C 
ATOM     22  O   UNL     1      -7.766   6.554   1.243  0.00  0.00    -0.495 OA
ENDBRANCH  15  22
ENDBRANCH   1  18
BRANCH  10  23
ATOM     23  C   UNL     1      -0.061   1.238   0.293  0.00  0.00    +0.424 C 
ATOM     24  F   UNL     1      -0.157  -0.157   0.242  0.00  0.00    -0.167 F 
ATOM     25  F   UNL     1       1.285   1.610   0.377  0.00  0.00    -0.167 F 
ATOM     26  F   UNL     1      -0.626   1.787  -0.863  0.00  0.00    -0.167 F 
ENDBRANCH  10  23
BRANCH  10  27
ATOM     27  N   UNL     1      -0.195   1.247   2.752  0.00  0.00    -0.290 N 
ATOM     28  H   UNL     1       0.589   0.679   2.702  0.00  0.00    +0.150 HD
ATOM     29  C   UNL     1      -0.719   1.569   3.951  0.00  0.00    +0.217 C 
ATOM     30  O   UNL     1      -1.752   2.203   4.011  0.00  0.00    -0.275 OA
BRANCH  29  31
ATOM     31  C   UNL     1      -0.023   1.143   5.217  0.00  0.00    +0.075 C 
ATOM     32  C   UNL     1       0.076  -0.384   5.255  0.00  0.00    +0.013 C 
ATOM     33  C   UNL     1       0.784  -0.817   6.540  0.00  0.00    +0.001 C 
ATOM     34  C   UNL     1      -0.013  -0.328   7.751  0.00  0.00    +0.000 C 
ATOM     35  C   UNL     1      -0.112   1.199   7.713  0.00  0.00    +0.001 C 
ATOM     36  C   UNL     1      -0.820   1.632   6.428  0.00  0.00    +0.013 C 
ENDBRANCH  29  31
ENDBRANCH  10  27
TORSDOF 5
