REMARK  Name = ZINC27828729
REMARK  12 active torsions:
REMARK  status: ('A' for Active; 'I' for Inactive)
REMARK    1  A    between atoms: C_1  and  C_2
REMARK    2  A    between atoms: C_2  and  C_3
REMARK    3  A    between atoms: C_3  and  C_4
REMARK    4  A    between atoms: C_4  and  C_5
REMARK    5  A    between atoms: C_8  and  C_12
REMARK    6  A    between atoms: C_8  and  C_13
REMARK    7  A    between atoms: N_18  and  C_19
REMARK    8  A    between atoms: C_19  and  C_20
REMARK    9  A    between atoms: C_20  and  C_21
REMARK   10  A    between atoms: C_21  and  N_22
REMARK   11  A    between atoms: N_22  and  C_23
REMARK   12  A    between atoms: C_23  and  N_25
REMARK                            x       y       z     vdW  Elec       q    Type
REMARK                         _______ _______ _______ _____ _____    ______ ____
ROOT
ATOM      1  C   UNL     1      -2.684   3.685   1.341  0.00  0.00    +0.068 A 
ATOM      2  C   UNL     1      -3.824   4.284   0.920  0.00  0.00    +0.073 A 
ATOM      3  S   UNL     1      -3.965   5.608   2.111  0.00  0.00    -0.062 S 
ATOM      4  C   UNL     1      -2.528   5.249   3.019  0.00  0.00    +0.136 A 
ATOM      5  N   UNL     1      -2.059   4.190   2.388  0.00  0.00    -0.338 N 
ATOM      6  N   UNL     1      -2.009   5.906   4.123  0.00  0.00    -0.325 N 
ATOM      7  H   UNL     1      -1.079   5.549   4.588  0.00  0.00    +0.148 HD
ATOM      8  H   UNL     1      -1.128   3.727   2.748  0.00  0.00    +0.167 HD
ENDROOT
BRANCH   1  11
ATOM      9  C   UNL     1      -0.019   1.526   0.010  0.00  0.00    +0.102 C 
ATOM     10  C   UNL     1      -0.787   2.046   1.246  0.00  0.00    +0.069 C 
ATOM     11  C   UNL     1      -2.140   2.475   0.627  0.00  0.00    +0.151 C 
ATOM     12  O   UNL     1      -1.819   2.802  -0.758  0.00  0.00    -0.452 OA
ATOM     13  C   UNL     1      -0.794   2.049  -1.179  0.00  0.00    +0.311 C 
ATOM     14  O   UNL     1      -0.529   1.821  -2.336  0.00  0.00    -0.251 OA
ATOM     15  C   UNL     1      -3.146   1.324   0.685  0.00  0.00    +0.062 C 
BRANCH   9  16
ATOM     16  C   UNL     1       0.002  -0.004   0.002  0.00  0.00    +0.015 C 
BRANCH  16  17
ATOM     17  C   UNL     1       0.840  -0.496  -1.180  0.00  0.00    +0.001 C 
BRANCH  17  19
ATOM     18  C   UNL     1       1.698  -2.518  -2.371  0.00  0.00    +0.004 C 
ATOM     19  C   UNL     1       0.860  -2.026  -1.188  0.00  0.00    -0.003 C 
ENDBRANCH  17  19
ENDBRANCH  16  17
ENDBRANCH   9  16
ENDBRANCH   1  11
BRANCH   6  20
ATOM     20  C   UNL     1      -2.699   7.077   4.670  0.00  0.00    +0.105 C 
BRANCH  20  21
ATOM     21  C   UNL     1      -1.923   7.609   5.877  0.00  0.00    +0.037 C 
BRANCH  21  22
ATOM     22  C   UNL     1      -2.644   8.832   6.448  0.00  0.00    +0.104 C 
BRANCH  22  23
ATOM     23  N   UNL     1      -1.900   9.341   7.603  0.00  0.00    -0.327 N 
ATOM     24  H   UNL     1      -0.974   8.842   7.925  0.00  0.00    +0.148 HD
BRANCH  23  25
ATOM     25  C   UNL     1      -2.351  10.421   8.271  0.00  0.00    +0.128 C 
ATOM     26  S   UNL     1      -3.792  11.198   7.771  0.00  0.00    -0.019 S 
BRANCH  25  27
ATOM     27  N   UNL     1      -1.667  10.890   9.334  0.00  0.00    -0.341 N 
ATOM     28  H   UNL     1      -2.035  11.771   9.880  0.00  0.00    +0.144 HD
ATOM     29  H   UNL     1      -0.741  10.391   9.656  0.00  0.00    +0.144 HD
ENDBRANCH  25  27
ENDBRANCH  23  25
ENDBRANCH  22  23
ENDBRANCH  21  22
ENDBRANCH  20  21
ENDBRANCH   6  20
TORSDOF 10
