REMARK  Name = ZINC39675136
REMARK  9 active torsions:
REMARK  status: ('A' for Active; 'I' for Inactive)
REMARK    1  A    between atoms: C_1  and  C_2
REMARK    2  A    between atoms: C_2  and  C_4
REMARK    3  A    between atoms: C_2  and  N_14
REMARK    4  A    between atoms: C_4  and  C_5
REMARK    5  A    between atoms: C_5  and  C_6
REMARK    6  A    between atoms: C_9  and  O_12
REMARK    7  A    between atoms: O_12  and  C_13
REMARK    8  A    between atoms: C_15  and  C_17
REMARK    9  A    between atoms: C_28  and  C_30
REMARK                            x       y       z     vdW  Elec       q    Type
REMARK                         _______ _______ _______ _____ _____    ______ ____
ROOT
ATOM      1  C   UNL     1      -3.030  -0.845  -1.470  0.00  0.00    +0.100 C 
ATOM      2  C   UNL     1      -3.974  -0.149  -0.464  0.00  0.00    +0.121 C 
ATOM      3  N   UNL     1      -4.809   0.750  -1.295  0.00  0.00    -0.296 N 
ATOM      4  C   UNL     1      -5.088  -0.035  -2.522  0.00  0.00    +0.115 C 
ATOM      5  C   UNL     1      -3.767  -0.771  -2.819  0.00  0.00    -0.004 C 
ATOM      6  C   UNL     1      -4.051  -2.176  -3.343  0.00  0.00    -0.010 C 
ATOM      7  C   UNL     1      -4.731  -2.077  -4.711  0.00  0.00    -0.082 C 
ATOM      8  N   UNL     1      -3.857  -1.353  -5.643  0.00  0.00    +0.379 N 
ATOM      9  C   UNL     1      -3.665   0.026  -5.179  0.00  0.00    -0.082 C 
ATOM     10  C   UNL     1      -2.940   0.017  -3.830  0.00  0.00    -0.010 C 
ATOM     11  C   UNL     1      -5.223   1.999  -1.002  0.00  0.00    +0.248 C 
ATOM     12  O   UNL     1      -5.988   2.577  -1.749  0.00  0.00    -0.270 OA
ATOM     13  H   UNL     1      -2.963  -1.817  -5.693  0.00  0.00    -0.086 HD
ATOM     14  H   UNL     1      -4.280  -1.342  -6.559  0.00  0.00    -0.086 HD
ENDROOT
BRANCH  11  15
ATOM     15  C   UNL     1      -4.747   2.665   0.228  0.00  0.00    +0.055 A 
ATOM     16  C   UNL     1      -4.535   1.922   1.391  0.00  0.00    +0.014 A 
ATOM     17  C   UNL     1      -4.090   2.550   2.536  0.00  0.00    +0.001 A 
ATOM     18  C   UNL     1      -3.854   3.913   2.534  0.00  0.00    +0.001 A 
ATOM     19  C   UNL     1      -4.062   4.657   1.387  0.00  0.00    +0.021 A 
ATOM     20  C   UNL     1      -4.501   4.040   0.232  0.00  0.00    +0.053 A 
ATOM     21 CL   UNL     1      -4.754   4.973  -1.210  0.00  0.00    -0.083 Cl
ENDBRANCH  11  15
BRANCH   1  23
ATOM     22  N   UNL     1      -0.591  -0.781  -1.874  0.00  0.00    -0.312 N 
ATOM     23  C   UNL     1      -1.716  -0.113  -1.550  0.00  0.00    +0.218 C 
ATOM     24  O   UNL     1      -1.670   1.078  -1.322  0.00  0.00    -0.275 OA
ATOM     25  H   UNL     1      -0.627  -1.733  -2.056  0.00  0.00    +0.149 HD
BRANCH  22  27
ATOM     26  C   UNL     1       1.312   0.011  -0.556  0.00  0.00    +0.028 C 
ATOM     27  C   UNL     1       0.687  -0.069  -1.951  0.00  0.00    +0.070 C 
BRANCH  27  28
ATOM     28  C   UNL     1       1.633  -0.819  -2.891  0.00  0.00    +0.026 C 
BRANCH  28  29
ATOM     29  C   UNL     1       1.068  -0.791  -4.312  0.00  0.00    +0.037 C 
BRANCH  29  30
ATOM     30  C   UNL     1       1.999  -1.530  -5.238  0.00  0.00    -0.047 A 
ATOM     31  C   UNL     1       3.022  -0.852  -5.874  0.00  0.00    +0.007 A 
ATOM     32  C   UNL     1       3.877  -1.527  -6.723  0.00  0.00    +0.046 A 
ATOM     33  C   UNL     1       3.709  -2.887  -6.938  0.00  0.00    +0.120 A 
ATOM     34  C   UNL     1       2.682  -3.566  -6.299  0.00  0.00    +0.046 A 
ATOM     35  C   UNL     1       1.833  -2.887  -5.446  0.00  0.00    +0.007 A 
BRANCH  33  36
ATOM     36  O   UNL     1       4.548  -3.553  -7.774  0.00  0.00    -0.495 OA
ATOM     37  C   UNL     1       4.315  -4.952  -7.947  0.00  0.00    +0.277 C 
ENDBRANCH  33  36
ENDBRANCH  29  30
ENDBRANCH  28  29
ENDBRANCH  27  28
ENDBRANCH  22  27
ENDBRANCH   1  23
TORSDOF 7
