REMARK  Name = ZINC42467735
REMARK  8 active torsions:
REMARK  status: ('A' for Active; 'I' for Inactive)
REMARK    1  A    between atoms: C_1  and  C_2
REMARK    2  A    between atoms: C_2  and  N_3
REMARK    3  A    between atoms: N_3  and  C_4
REMARK    4  A    between atoms: N_3  and  C_11
REMARK    5  A    between atoms: C_4  and  C_5
REMARK    6  A    between atoms: C_11  and  C_13
REMARK    7  A    between atoms: C_11  and  C_15
REMARK    8  A    between atoms: C_13  and  N_14
REMARK                            x       y       z     vdW  Elec       q    Type
REMARK                         _______ _______ _______ _____ _____    ______ ____
ROOT
ATOM      1  C   UNL     1       0.965  -2.075   1.228  0.00  0.00    -0.017 C 
ENDROOT
BRANCH   1   2
ATOM      2  C   UNL     1      -0.197  -3.002   0.978  0.00  0.00    -0.021 A 
ATOM      3  C   UNL     1      -0.254  -4.105   0.192  0.00  0.00    +0.025 A 
ATOM      4  C   UNL     1      -1.440  -4.811   0.113  0.00  0.00    +0.025 A 
ATOM      5  C   UNL     1      -2.511  -4.378   0.824  0.00  0.00    +0.060 A 
ATOM      6  S   UNL     1      -1.851  -2.938   1.646  0.00  0.00    -0.102 S 
ATOM      7 BR   UNL     1      -1.569  -6.355  -0.971  0.00  0.00    -0.050 Br
ENDBRANCH   1   2
BRANCH   1   8
ATOM      8  N   UNL     1       0.594  -0.709   0.835  0.00  0.00    +0.387 N 
ATOM      9  H   UNL     1       1.372  -0.088   1.002  0.00  0.00    -0.081 HD
BRANCH   8  11
ATOM     10  C   UNL     1       1.472  -1.073  -1.421  0.00  0.00    -0.017 C 
ATOM     11  C   UNL     1       0.246  -0.686  -0.592  0.00  0.00    -0.081 C 
ENDBRANCH   8  11
BRANCH   8  12
ATOM     12  C   UNL     1      -0.562  -0.268   1.628  0.00  0.00    -0.046 C 
BRANCH  12  13
ATOM     13  C   UNL     1      -0.800   1.225   1.395  0.00  0.00    +0.102 C 
ATOM     14  C   UNL     1      -1.896   1.736   2.356  0.00  0.00    +0.032 C 
ATOM     15  C   UNL     1      -2.693   2.718   1.454  0.00  0.00    +0.030 C 
ATOM     16  C   UNL     1      -2.582   2.011   0.080  0.00  0.00    +0.160 C 
ATOM     17  O   UNL     1      -1.261   1.441   0.056  0.00  0.00    -0.378 OA
ENDBRANCH  12  13
ENDBRANCH   8  12
ENDBRANCH   1   8
BRANCH   1  18
ATOM     18  C   UNL     1       1.325  -2.098   2.715  0.00  0.00    +0.067 C 
BRANCH  18  19
ATOM     19  N   UNL     1       2.383  -1.113   2.978  0.00  0.00    -0.331 NA
ATOM     20  H   UNL     1       2.059  -0.176   2.791  0.00  0.00    +0.118 HD
ATOM     21  H   UNL     1       2.726  -1.196   3.923  0.00  0.00    +0.118 HD
ENDBRANCH  18  19
ENDBRANCH   1  18
TORSDOF 7
