REMARK  Name = ZINC44737431
REMARK  8 active torsions:
REMARK  status: ('A' for Active; 'I' for Inactive)
REMARK    1  A    between atoms: C_1  and  C_2
REMARK    2  A    between atoms: C_9  and  C_11
REMARK    3  A    between atoms: C_11  and  C_13
REMARK    4  A    between atoms: C_11  and  N_14
REMARK    5  A    between atoms: C_15  and  C_17
REMARK    6  A    between atoms: C_28  and  C_30
REMARK    7  A    between atoms: C_34  and  O_35
REMARK    8  A    between atoms: O_35  and  C_36
REMARK                            x       y       z     vdW  Elec       q    Type
REMARK                         _______ _______ _______ _____ _____    ______ ____
ROOT
ATOM      1  C   UNL     1       1.879  -8.738   0.966  0.00  0.00    +0.100 C 
ATOM      2  C   UNL     1       2.970  -8.099   0.078  0.00  0.00    +0.121 C 
ATOM      3  N   UNL     1       4.237  -8.341   0.807  0.00  0.00    -0.296 N 
ATOM      4  C   UNL     1       4.092  -9.713   1.351  0.00  0.00    +0.115 C 
ATOM      5  C   UNL     1       2.619  -9.800   1.797  0.00  0.00    -0.004 C 
ATOM      6  C   UNL     1       2.059 -11.188   1.502  0.00  0.00    -0.010 C 
ATOM      7  C   UNL     1       2.770 -12.219   2.383  0.00  0.00    -0.082 C 
ATOM      8  N   UNL     1       2.570 -11.879   3.797  0.00  0.00    +0.379 N 
ATOM      9  C   UNL     1       3.193 -10.584   4.093  0.00  0.00    -0.082 C 
ATOM     10  C   UNL     1       2.500  -9.483   3.285  0.00  0.00    -0.010 C 
ATOM     11  C   UNL     1       5.284  -7.504   0.945  0.00  0.00    +0.251 C 
ATOM     12  O   UNL     1       5.213  -6.366   0.520  0.00  0.00    -0.270 OA
ATOM     13  H   UNL     1       1.581 -11.827   3.992  0.00  0.00    -0.086 HD
ATOM     14  H   UNL     1       2.987 -12.592   4.375  0.00  0.00    -0.086 HD
ENDROOT
BRANCH  11  15
ATOM     15  C   UNL     1       6.512  -7.965   1.610  0.00  0.00    +0.087 A 
ATOM     16  C   UNL     1       6.955  -9.264   1.485  0.00  0.00    +0.063 A 
ATOM     17  S   UNL     1       8.360  -9.311   2.401  0.00  0.00    -0.081 S 
ATOM     18  C   UNL     1       8.414  -7.629   2.979  0.00  0.00    +0.120 A 
ATOM     19  C   UNL     1       7.313  -7.077   2.420  0.00  0.00    +0.158 A 
ATOM     20 CL   UNL     1       9.596  -6.878   4.005  0.00  0.00    -0.072 Cl
BRANCH  19  21
ATOM     21  O   UNL     1       6.980  -5.771   2.612  0.00  0.00    -0.492 OA
ATOM     22  C   UNL     1       6.142  -5.473   3.731  0.00  0.00    +0.277 C 
ENDBRANCH  19  21
ENDBRANCH  11  15
BRANCH   1  24
ATOM     23  N   UNL     1      -0.024  -7.821   2.253  0.00  0.00    -0.305 N 
ATOM     24  C   UNL     1       1.263  -7.701   1.869  0.00  0.00    +0.219 C 
ATOM     25  O   UNL     1       1.924  -6.758   2.249  0.00  0.00    -0.275 OA
ATOM     26  H   UNL     1      -0.552  -8.575   1.949  0.00  0.00    +0.149 HD
BRANCH  23  27
ATOM     27  C   UNL     1      -0.623  -6.813   3.131  0.00  0.00    +0.136 C 
ATOM     28  C   UNL     1      -0.308  -7.154   4.589  0.00  0.00    +0.036 C 
BRANCH  27  37
ATOM     29  C   UNL     1      -7.921  -5.468   2.572  0.00  0.00    +0.044 C 
ATOM     30  C   UNL     1      -6.582  -6.157   2.526  0.00  0.00    -0.048 A 
ATOM     31  C   UNL     1      -6.498  -7.473   2.094  0.00  0.00    +0.005 A 
ATOM     32  C   UNL     1      -5.293  -8.115   2.045  0.00  0.00    +0.030 A 
ATOM     33  C   UNL     1      -4.130  -7.444   2.432  0.00  0.00    +0.089 A 
ATOM     34  C   UNL     1      -4.215  -6.112   2.869  0.00  0.00    +0.067 A 
ATOM     35  C   UNL     1      -5.447  -5.474   2.908  0.00  0.00    +0.031 A 
ATOM     36  N   UNL     1      -2.924  -5.729   3.177  0.00  0.00    -0.340 N 
ATOM     37  C   UNL     1      -2.116  -6.796   2.930  0.00  0.00    +0.128 A 
ATOM     38  N   UNL     1      -2.821  -7.799   2.494  0.00  0.00    -0.231 NA
ATOM     39  H   UNL     1      -2.645  -4.861   3.508  0.00  0.00    +0.167 HD
ENDBRANCH  27  37
ENDBRANCH  23  27
ENDBRANCH   1  24
TORSDOF 5
