REMARK  Name = ZINC52094695
REMARK  6 active torsions:
REMARK  status: ('A' for Active; 'I' for Inactive)
REMARK    1  A    between atoms: C_1  and  C_2
REMARK    2  A    between atoms: C_2  and  C_3
REMARK    3  A    between atoms: C_3  and  N_4
REMARK    4  A    between atoms: N_4  and  C_5
REMARK    5  A    between atoms: C_5  and  C_7
REMARK    6  A    between atoms: C_5  and  C_20
REMARK                            x       y       z     vdW  Elec       q    Type
REMARK                         _______ _______ _______ _____ _____    ______ ____
ROOT
ATOM      1  C   UNL     1      -2.737  -4.009  -0.139  0.00  0.00    -0.045 A 
ATOM      2  C   UNL     1      -1.564  -4.686   0.130  0.00  0.00    +0.031 A 
ATOM      3  C   UNL     1      -1.514  -6.064  -0.013  0.00  0.00    +0.067 A 
ATOM      4  C   UNL     1      -2.650  -6.763  -0.427  0.00  0.00    +0.068 A 
ATOM      5  C   UNL     1      -3.824  -6.075  -0.695  0.00  0.00    +0.043 A 
ATOM      6  C   UNL     1      -3.866  -4.702  -0.545  0.00  0.00    +0.022 A 
ATOM      7 BR   UNL     1      -5.469  -3.764  -0.902  0.00  0.00    -0.050 Br
ATOM      8  N   UNL     1      -2.299  -8.110  -0.477  0.00  0.00    -0.306 N 
ATOM      9  H   UNL     1      -2.884  -8.839  -0.733  0.00  0.00    +0.170 HD
ATOM     10  C   UNL     1      -1.009  -8.226  -0.110  0.00  0.00    +0.325 A 
ATOM     11  O   UNL     1      -0.390  -9.271  -0.047  0.00  0.00    -0.247 OA
ATOM     12  N   UNL     1      -0.508  -7.009   0.177  0.00  0.00    -0.306 N 
ATOM     13  H   UNL     1       0.399  -6.823   0.465  0.00  0.00    +0.170 HD
ENDROOT
BRANCH   1  14
ATOM     14  C   UNL     1      -2.792  -2.511   0.015  0.00  0.00    -0.037 C 
BRANCH  14  15
ATOM     15  C   UNL     1      -3.174  -2.160   1.455  0.00  0.00    -0.021 C 
ATOM     16  C   UNL     1      -2.490  -3.049   2.507  0.00  0.00    +0.002 C 
ATOM     17  C   UNL     1      -3.829  -3.047   3.264  0.00  0.00    +0.000 C 
ATOM     18  C   UNL     1      -4.505  -2.783   1.907  0.00  0.00    +0.002 C 
ENDBRANCH  14  15
BRANCH  14  19
ATOM     19  N   UNL     1      -1.474  -1.939  -0.295  0.00  0.00    +0.384 N 
ATOM     20  H   UNL     1      -1.186  -2.238  -1.214  0.00  0.00    -0.085 HD
ATOM     21  H   UNL     1      -0.802  -2.253   0.388  0.00  0.00    -0.085 HD
BRANCH  19  22
ATOM     22  C   UNL     1      -1.557  -0.472  -0.261  0.00  0.00    -0.082 C 
BRANCH  22  24
ATOM     23  C   UNL     1      -0.272   1.651  -0.548  0.00  0.00    +0.002 C 
ATOM     24  C   UNL     1      -0.186   0.123  -0.584  0.00  0.00    -0.022 C 
ENDBRANCH  22  24
ENDBRANCH  19  22
ENDBRANCH  14  19
ENDBRANCH   1  14
TORSDOF 5
