REMARK  Name = ZINC32505721
REMARK  7 active torsions:
REMARK  status: ('A' for Active; 'I' for Inactive)
REMARK    1  A    between atoms: C_1  and  C_2
REMARK    2  A    between atoms: C_6  and  C_8
REMARK    3  A    between atoms: C_8  and  C_9
REMARK    4  A    between atoms: C_9  and  N_11
REMARK    5  A    between atoms: N_13  and  C_24
REMARK    6  A    between atoms: C_25  and  C_31
REMARK    7  A    between atoms: C_29  and  C_30
REMARK                            x       y       z     vdW  Elec       q    Type
REMARK                         _______ _______ _______ _____ _____    ______ ____
ROOT
ATOM      1  N   UNL     1       1.913  -3.473   4.329  0.00  0.00    -0.159 NA
ATOM      2  C   UNL     1       3.193  -3.812   4.430  0.00  0.00    +0.154 C 
ATOM      3  N   UNL     1       4.215  -3.529   3.519  0.00  0.00    -0.275 N 
ATOM      4  C   UNL     1       5.172  -4.600   3.506  0.00  0.00    +0.116 C 
ATOM      5  C   UNL     1       6.432  -4.645   2.668  0.00  0.00    +0.190 C 
ATOM      6  S   UNL     1       7.369  -5.968   3.567  0.00  0.00    -0.028 S 
ATOM      7  O   UNL     1       8.613  -5.440   4.004  0.00  0.00    -0.174 OA
ATOM      8  O   UNL     1       7.346  -7.160   2.794  0.00  0.00    -0.174 OA
ATOM      9  C   UNL     1       6.249  -6.173   5.033  0.00  0.00    +0.182 C 
ATOM     10  C   UNL     1       5.619  -4.759   5.011  0.00  0.00    +0.097 C 
ATOM     11  S   UNL     1       3.925  -4.671   5.694  0.00  0.00    -0.086 S 
ENDROOT
BRANCH   3  12
ATOM     12  C   UNL     1       4.294  -2.374   2.735  0.00  0.00    +0.042 A 
ATOM     13  C   UNL     1       4.797  -1.198   3.277  0.00  0.00    -0.029 A 
ATOM     14  C   UNL     1       4.874  -0.059   2.501  0.00  0.00    +0.005 A 
ATOM     15  C   UNL     1       4.450  -0.087   1.185  0.00  0.00    +0.001 A 
ATOM     16  C   UNL     1       3.949  -1.256   0.642  0.00  0.00    +0.005 A 
ATOM     17  C   UNL     1       3.874  -2.401   1.412  0.00  0.00    -0.029 A 
ATOM     18  C   UNL     1       3.333  -3.675   0.818  0.00  0.00    +0.045 C 
ATOM     19  C   UNL     1       5.258  -1.166   4.712  0.00  0.00    +0.045 C 
ENDBRANCH   3  12
BRANCH   1  20
ATOM     20  C   UNL     1       1.516  -2.659   3.353  0.00  0.00    +0.243 C 
ATOM     21  O   UNL     1       2.055  -1.580   3.204  0.00  0.00    -0.273 OA
BRANCH  20  22
ATOM     22  C   UNL     1       0.397  -3.076   2.434  0.00  0.00    +0.133 C 
BRANCH  22  28
ATOM     23  C   UNL     1      -2.228   1.096   1.567  0.00  0.00    +0.044 C 
ATOM     24  C   UNL     1      -1.221   0.070   1.115  0.00  0.00    -0.050 A 
ATOM     25  C   UNL     1      -0.630   0.183  -0.130  0.00  0.00    +0.003 A 
ATOM     26  C   UNL     1       0.293  -0.758  -0.545  0.00  0.00    +0.001 A 
ATOM     27  C   UNL     1       0.626  -1.813   0.285  0.00  0.00    +0.004 A 
ATOM     28  C   UNL     1       0.035  -1.926   1.529  0.00  0.00    -0.038 A 
ATOM     29  C   UNL     1      -0.885  -0.982   1.946  0.00  0.00    +0.007 A 
ENDBRANCH  22  28
ENDBRANCH  20  22
ENDBRANCH   1  20
TORSDOF 4
