REMARK  Name = ZINC39685858
REMARK  15 active torsions:
REMARK  status: ('A' for Active; 'I' for Inactive)
REMARK    1  A    between atoms: C_1  and  C_2
REMARK    2  A    between atoms: C_2  and  C_3
REMARK    3  A    between atoms: C_2  and  C_4
REMARK    4  A    between atoms: C_4  and  C_6
REMARK    5  A    between atoms: C_4  and  N_13
REMARK    6  A    between atoms: N_8  and  C_9
REMARK    7  A    between atoms: C_9  and  C_10
REMARK    8  A    between atoms: C_9  and  C_11
REMARK    9  A    between atoms: C_9  and  C_12
REMARK   10  A    between atoms: C_14  and  C_16
REMARK   11  A    between atoms: C_27  and  C_29
REMARK   12  A    between atoms: C_31  and  O_37
REMARK   13  A    between atoms: C_34  and  O_35
REMARK   14  A    between atoms: O_35  and  C_36
REMARK   15  A    between atoms: O_37  and  C_38
REMARK                            x       y       z     vdW  Elec       q    Type
REMARK                         _______ _______ _______ _____ _____    ______ ____
ROOT
ATOM      1  C   UNL     1      -0.543  -3.998   1.298  0.00  0.00    +0.100 C 
ATOM      2  C   UNL     1      -1.634  -4.798   0.552  0.00  0.00    +0.121 C 
ATOM      3  N   UNL     1      -1.767  -6.058   1.321  0.00  0.00    -0.296 N 
ATOM      4  C   UNL     1      -1.652  -5.639   2.738  0.00  0.00    +0.115 C 
ATOM      5  C   UNL     1      -0.558  -4.552   2.733  0.00  0.00    -0.004 C 
ATOM      6  C   UNL     1      -0.909  -3.446   3.723  0.00  0.00    -0.010 C 
ATOM      7  C   UNL     1      -0.861  -4.007   5.147  0.00  0.00    -0.082 C 
ATOM      8  N   UNL     1       0.482  -4.531   5.423  0.00  0.00    +0.379 N 
ATOM      9  C   UNL     1       0.775  -5.656   4.527  0.00  0.00    -0.082 C 
ATOM     10  C   UNL     1       0.796  -5.165   3.077  0.00  0.00    -0.010 C 
ATOM     11  C   UNL     1      -1.949  -7.304   0.840  0.00  0.00    +0.250 C 
ATOM     12  O   UNL     1      -1.940  -7.500  -0.360  0.00  0.00    -0.270 OA
ATOM     13  H   UNL     1       1.163  -3.801   5.277  0.00  0.00    -0.086 HD
ATOM     14  H   UNL     1       0.529  -4.844   6.381  0.00  0.00    -0.086 HD
ENDROOT
BRANCH  11  15
ATOM     15  C   UNL     1      -2.161  -8.430   1.770  0.00  0.00    +0.082 A 
ATOM     16  C   UNL     1      -2.869  -8.235   2.958  0.00  0.00    +0.062 A 
ATOM     17  C   UNL     1      -3.064  -9.295   3.824  0.00  0.00    +0.121 A 
ATOM     18  C   UNL     1      -2.557 -10.551   3.516  0.00  0.00    +0.049 A 
ATOM     19  C   UNL     1      -1.856 -10.752   2.344  0.00  0.00    +0.050 A 
ATOM     20  C   UNL     1      -1.657  -9.700   1.463  0.00  0.00    +0.132 A 
BRANCH  20  21
ATOM     21  O   UNL     1      -0.972  -9.900   0.308  0.00  0.00    -0.494 OA
ATOM     22  C   UNL     1      -0.488 -11.222   0.061  0.00  0.00    +0.277 C 
ENDBRANCH  20  21
BRANCH  17  23
ATOM     23  O   UNL     1      -3.753  -9.107   4.981  0.00  0.00    -0.495 OA
ATOM     24  C   UNL     1      -3.918 -10.244   5.831  0.00  0.00    +0.277 C 
ENDBRANCH  17  23
ENDBRANCH  11  15
BRANCH   1  26
ATOM     25  N   UNL     1      -2.116  -2.120   1.640  0.00  0.00    -0.303 N 
ATOM     26  C   UNL     1      -0.877  -2.529   1.299  0.00  0.00    +0.219 C 
ATOM     27  O   UNL     1      -0.032  -1.714   0.994  0.00  0.00    -0.275 OA
ATOM     28  H   UNL     1      -2.770  -2.764   1.952  0.00  0.00    +0.149 HD
BRANCH  25  29
ATOM     29  C   UNL     1      -2.473  -0.703   1.539  0.00  0.00    +0.161 C 
BRANCH  29  30
ATOM     30  C   UNL     1      -3.596  -0.399   2.496  0.00  0.00    +0.234 C 
ATOM     31  O   UNL     1      -4.189  -1.304   3.043  0.00  0.00    -0.274 OA
ATOM     32  N   UNL     1      -3.942   0.880   2.744  0.00  0.00    -0.309 N 
ATOM     33  H   UNL     1      -3.425   1.606   2.361  0.00  0.00    +0.149 HD
BRANCH  32  34
ATOM     34  C   UNL     1      -5.099   1.174   3.594  0.00  0.00    +0.026 C 
ATOM     35  C   UNL     1      -4.876   0.575   4.984  0.00  0.00    +0.031 C 
ATOM     36  C   UNL     1      -5.272   2.690   3.714  0.00  0.00    +0.031 C 
ATOM     37  C   UNL     1      -6.357   0.565   2.972  0.00  0.00    +0.031 C 
ENDBRANCH  32  34
ENDBRANCH  29  30
BRANCH  29  39
ATOM     38  C   UNL     1      -1.742  -0.574  -0.847  0.00  0.00    +0.009 C 
ATOM     39  C   UNL     1      -2.922  -0.391   0.110  0.00  0.00    +0.012 C 
ATOM     40  C   UNL     1      -4.054  -1.340  -0.288  0.00  0.00    +0.009 C 
ENDBRANCH  29  39
ENDBRANCH  25  29
ENDBRANCH   1  26
TORSDOF 8
