REMARK  Name = ZINC40376970
REMARK  9 active torsions:
REMARK  status: ('A' for Active; 'I' for Inactive)
REMARK    1  A    between atoms: C_1  and  C_2
REMARK    2  A    between atoms: C_2  and  C_3
REMARK    3  A    between atoms: C_3  and  C_4
REMARK    4  A    between atoms: C_3  and  C_6
REMARK    5  A    between atoms: C_3  and  N_10
REMARK    6  A    between atoms: C_4  and  C_5
REMARK    7  A    between atoms: N_7  and  O_8
REMARK    8  A    between atoms: N_10  and  S_11
REMARK    9  A    between atoms: S_11  and  C_14
REMARK                            x       y       z     vdW  Elec       q    Type
REMARK                         _______ _______ _______ _____ _____    ______ ____
ROOT
ATOM      1  C   UNL     1       0.790  -0.260  -1.332  0.00  0.00    +0.097 C 
ENDROOT
BRANCH   1   2
ATOM      2  C   UNL     1       0.524   0.362  -2.679  0.00  0.00    +0.153 C 
ATOM      3  N   UNL     1      -0.095  -0.312  -3.590  0.00  0.00    -0.075 NA
ATOM      4  N   UNL     1       0.942   1.648  -2.938  0.00  0.00    -0.342 N 
ATOM      5  H   UNL     1       1.472   2.127  -2.282  0.00  0.00    +0.144 HD
ATOM      6  H   UNL     1       0.706   2.075  -3.776  0.00  0.00    +0.144 HD
BRANCH   3   7
ATOM      7  O   UNL     1      -0.345   0.271  -4.856  0.00  0.00    -0.408 OA
ATOM      8  H   UNL     1      -0.813  -0.309  -5.471  0.00  0.00    +0.328 HD
ENDBRANCH   3   7
ENDBRANCH   1   2
BRANCH   1  10
ATOM      9  C   UNL     1      -1.476   0.544  -0.654  0.00  0.00    +0.006 C 
ATOM     10  C   UNL     1       0.001   0.492  -0.258  0.00  0.00    +0.028 C 
ENDBRANCH   1  10
BRANCH   1  11
ATOM     11  C   UNL     1       0.355  -1.726  -1.352  0.00  0.00    +0.028 C 
ATOM     12  C   UNL     1       1.236  -2.507  -2.329  0.00  0.00    +0.006 C 
ENDBRANCH   1  11
BRANCH   1  13
ATOM     13  N   UNL     1       2.222  -0.180  -1.031  0.00  0.00    -0.177 NA
ATOM     14  H   UNL     1       2.841   0.144  -1.704  0.00  0.00    +0.149 HD
BRANCH  13  15
ATOM     15  S   UNL     1       2.783  -0.642   0.457  0.00  0.00    +0.059 S 
ATOM     16  O   UNL     1       2.156  -1.881   0.760  0.00  0.00    -0.153 OA
ATOM     17  O   UNL     1       4.195  -0.491   0.423  0.00  0.00    -0.153 OA
BRANCH  15  18
ATOM     18  C   UNL     1       2.179   0.527   1.628  0.00  0.00    +0.106 A 
ATOM     19  C   UNL     1       2.777   1.769   1.737  0.00  0.00    +0.028 A 
ATOM     20  C   UNL     1       2.304   2.687   2.655  0.00  0.00    +0.003 A 
ATOM     21  C   UNL     1       1.231   2.364   3.465  0.00  0.00    +0.015 A 
ATOM     22  C   UNL     1       0.631   1.123   3.356  0.00  0.00    +0.020 A 
ATOM     23  C   UNL     1       1.102   0.206   2.433  0.00  0.00    +0.043 A 
ATOM     24 BR   UNL     1      -0.836   0.680   4.464  0.00  0.00    -0.050 Br
ENDBRANCH  15  18
ENDBRANCH  13  15
ENDBRANCH   1  13
TORSDOF 7
