REMARK  Name = ZINC34971504
REMARK  9 active torsions:
REMARK  status: ('A' for Active; 'I' for Inactive)
REMARK    1  A    between atoms: C_1  and  C_2
REMARK    2  A    between atoms: C_5  and  S_8
REMARK    3  A    between atoms: S_8  and  N_11
REMARK    4  A    between atoms: N_11  and  C_12
REMARK    5  A    between atoms: N_11  and  C_28
REMARK    6  A    between atoms: C_12  and  C_13
REMARK    7  A    between atoms: C_13  and  C_14
REMARK    8  A    between atoms: C_14  and  N_15
REMARK    9  A    between atoms: C_16  and  C_18
REMARK                            x       y       z     vdW  Elec       q    Type
REMARK                         _______ _______ _______ _____ _____    ______ ____
ROOT
ATOM      1  N   UNL     1       1.644  -4.999  -0.172  0.00  0.00    -0.203 N 
ENDROOT
BRANCH   1   2
ATOM      2  C   UNL     1       2.229  -5.090  -1.437  0.00  0.00    +0.051 A 
ATOM      3  C   UNL     1       3.239  -6.014  -1.672  0.00  0.00    +0.025 A 
ATOM      4  C   UNL     1       3.815  -6.102  -2.924  0.00  0.00    +0.002 A 
ATOM      5  C   UNL     1       3.388  -5.271  -3.943  0.00  0.00    +0.000 A 
ATOM      6  C   UNL     1       2.382  -4.350  -3.713  0.00  0.00    +0.002 A 
ATOM      7  C   UNL     1       1.798  -4.261  -2.465  0.00  0.00    +0.025 A 
ENDBRANCH   1   2
BRANCH   1   8
ATOM      8  S   UNL     1       0.093  -4.441  -0.015  0.00  0.00    +0.075 S 
ATOM      9  O   UNL     1      -0.428  -5.018   1.174  0.00  0.00    -0.150 OA
ATOM     10  O   UNL     1      -0.530  -4.612  -1.281  0.00  0.00    -0.150 OA
BRANCH   8  15
ATOM     11  C   UNL     1       0.421   1.505   0.956  0.00  0.00    +0.044 C 
ATOM     12  C   UNL     1       0.339   0.020   0.713  0.00  0.00    -0.050 A 
ATOM     13  C   UNL     1       0.130  -0.461  -0.566  0.00  0.00    +0.005 A 
ATOM     14  C   UNL     1       0.055  -1.823  -0.788  0.00  0.00    +0.029 A 
ATOM     15  C   UNL     1       0.190  -2.704   0.268  0.00  0.00    +0.109 A 
ATOM     16  C   UNL     1       0.400  -2.224   1.547  0.00  0.00    +0.029 A 
ATOM     17  C   UNL     1       0.479  -0.862   1.769  0.00  0.00    +0.005 A 
ENDBRANCH   8  15
ENDBRANCH   1   8
BRANCH   1  18
ATOM     18  C   UNL     1       2.403  -5.396   1.016  0.00  0.00    +0.133 C 
BRANCH  18  19
ATOM     19  C   UNL     1       2.269  -6.906   1.225  0.00  0.00    +0.039 C 
BRANCH  19  20
ATOM     20  C   UNL     1       3.062  -7.322   2.466  0.00  0.00    +0.106 C 
BRANCH  20  21
ATOM     21  N   UNL     1       2.934  -8.768   2.666  0.00  0.00    -0.311 N 
ATOM     22  C   UNL     1       3.553  -9.361   3.705  0.00  0.00    +0.244 C 
ATOM     23  O   UNL     1       4.217  -8.697   4.478  0.00  0.00    -0.270 OA
ATOM     24  H   UNL     1       2.405  -9.297   2.049  0.00  0.00    +0.149 HD
BRANCH  22  25
ATOM     25  C   UNL     1       3.424 -10.820   3.907  0.00  0.00    +0.037 A 
ATOM     26  C   UNL     1       2.659 -11.584   3.007  0.00  0.00    +0.013 A 
ATOM     27  C   UNL     1       2.526 -12.924   3.171  0.00  0.00    +0.009 A 
ATOM     28  C   UNL     1       3.156 -13.568   4.252  0.00  0.00    -0.018 A 
ATOM     29  C   UNL     1       3.033 -14.954   4.441  0.00  0.00    +0.008 A 
ATOM     30  C   UNL     1       3.655 -15.549   5.496  0.00  0.00    +0.001 A 
ATOM     31  C   UNL     1       4.415 -14.803   6.395  0.00  0.00    +0.001 A 
ATOM     32  C   UNL     1       4.558 -13.458   6.244  0.00  0.00    +0.008 A 
ATOM     33  C   UNL     1       3.930 -12.809   5.166  0.00  0.00    -0.017 A 
ATOM     34  C   UNL     1       4.062 -11.425   4.977  0.00  0.00    +0.021 A 
ENDBRANCH  22  25
ENDBRANCH  20  21
ENDBRANCH  19  20
ENDBRANCH  18  19
ENDBRANCH   1  18
TORSDOF 8
