REMARK  Name = ZINC24985842
REMARK  6 active torsions:
REMARK  status: ('A' for Active; 'I' for Inactive)
REMARK    1  A    between atoms: C_1  and  C_2
REMARK    2  A    between atoms: C_2  and  C_4
REMARK    3  A    between atoms: C_2  and  N_11
REMARK    4  A    between atoms: N_11  and  C_12
REMARK    5  A    between atoms: C_12  and  C_13
REMARK    6  A    between atoms: C_17  and  C_26
REMARK                            x       y       z     vdW  Elec       q    Type
REMARK                         _______ _______ _______ _____ _____    ______ ____
ROOT
ATOM      1  C   UNL     1       3.643   1.279  -0.789  0.00  0.00    +0.203 C 
ATOM      2  O   UNL     1       3.868   2.349  -0.264  0.00  0.00    -0.277 OA
ATOM      3  N   UNL     1       4.643   0.592  -1.376  0.00  0.00    -0.266 N 
ATOM      4  C   UNL     1       4.378  -0.646  -2.130  0.00  0.00    +0.168 C 
ATOM      5  C   UNL     1       5.237  -0.606  -3.402  0.00  0.00    +0.276 C 
ATOM      6  O   UNL     1       6.611  -0.486  -3.027  0.00  0.00    -0.476 OA
ATOM      7  C   UNL     1       6.940   0.479  -2.128  0.00  0.00    +0.143 A 
ATOM      8  C   UNL     1       5.975   1.034  -1.294  0.00  0.00    +0.078 A 
ATOM      9  C   UNL     1       6.326   2.017  -0.383  0.00  0.00    +0.027 A 
ATOM     10  C   UNL     1       7.637   2.451  -0.309  0.00  0.00    +0.002 A 
ATOM     11  C   UNL     1       8.595   1.905  -1.142  0.00  0.00    +0.004 A 
ATOM     12  C   UNL     1       8.252   0.918  -2.043  0.00  0.00    +0.047 A 
ENDROOT
BRANCH   5  13
ATOM     13  C   UNL     1       5.036  -1.877  -4.186  0.00  0.00    +0.253 C 
ATOM     14  O   UNL     1       5.960  -2.649  -4.337  0.00  0.00    -0.272 OA
ATOM     15  N   UNL     1       3.831  -2.157  -4.720  0.00  0.00    -0.326 N 
ATOM     16  H   UNL     1       3.684  -3.085  -5.292  0.00  0.00    +0.145 HD
ATOM     17  H   UNL     1       2.993  -1.457  -4.583  0.00  0.00    +0.145 HD
ENDBRANCH   5  13
BRANCH   1  18
ATOM     18  C   UNL     1       2.244   0.718  -0.786  0.00  0.00    +0.016 C 
BRANCH  18  19
ATOM     19  N   UNL     1       1.370   1.586   0.015  0.00  0.00    +0.389 N 
ATOM     20  H   UNL     1       1.375   2.594  -0.425  0.00  0.00    -0.084 HD
ATOM     21  H   UNL     1       1.764   1.632   1.041  0.00  0.00    -0.084 HD
BRANCH  19  23
ATOM     22  C   UNL     1      -0.758   1.563  -1.196  0.00  0.00    -0.009 C 
ATOM     23  C   UNL     1      -0.004   1.069   0.041  0.00  0.00    -0.042 C 
BRANCH  23  24
ATOM     24  C   UNL     1      -0.702   1.559   1.283  0.00  0.00    -0.043 A 
ATOM     25  C   UNL     1      -0.281   2.723   1.899  0.00  0.00    +0.003 A 
ATOM     26  C   UNL     1      -0.922   3.173   3.038  0.00  0.00    +0.000 A 
ATOM     27  C   UNL     1      -1.983   2.459   3.563  0.00  0.00    +0.001 A 
ATOM     28  C   UNL     1      -2.404   1.295   2.949  0.00  0.00    +0.020 A 
ATOM     29  C   UNL     1      -1.767   0.847   1.805  0.00  0.00    +0.043 A 
ATOM     30 CL   UNL     1      -2.301  -0.611   1.028  0.00  0.00    -0.083 Cl
ENDBRANCH  23  24
ENDBRANCH  19  23
ENDBRANCH  18  19
ENDBRANCH   1  18
TORSDOF 5
