REMARK  Name = ZINC63340088
REMARK  9 active torsions:
REMARK  status: ('A' for Active; 'I' for Inactive)
REMARK    1  A    between atoms: C_1  and  C_2
REMARK    2  A    between atoms: C_2  and  C_3
REMARK    3  A    between atoms: C_7  and  C_32
REMARK    4  A    between atoms: C_8  and  N_9
REMARK    5  A    between atoms: C_10  and  C_12
REMARK    6  A    between atoms: C_12  and  O_13
REMARK    7  A    between atoms: O_13  and  C_14
REMARK    8  A    between atoms: C_19  and  C_20
REMARK    9  A    between atoms: N_22  and  C_23
REMARK                            x       y       z     vdW  Elec       q    Type
REMARK                         _______ _______ _______ _____ _____    ______ ____
ROOT
ATOM      1  C   UNL     1      -5.351  -0.342   5.064  0.00  0.00    +0.133 A 
ATOM      2  C   UNL     1      -6.125   0.202   4.049  0.00  0.00    +0.046 A 
ATOM      3  C   UNL     1      -7.476   0.412   4.246  0.00  0.00    +0.004 A 
ATOM      4  C   UNL     1      -8.067   0.083   5.455  0.00  0.00    +0.001 A 
ATOM      5  C   UNL     1      -7.313  -0.458   6.473  0.00  0.00    +0.017 A 
ATOM      6  C   UNL     1      -5.947  -0.682   6.285  0.00  0.00    +0.078 A 
ENDROOT
BRANCH   6   7
ATOM      7  C   UNL     1      -5.135  -1.266   7.370  0.00  0.00    +0.250 C 
ATOM      8  O   UNL     1      -3.945  -1.454   7.205  0.00  0.00    -0.270 OA
ATOM      9  N   UNL     1      -5.712  -1.591   8.544  0.00  0.00    -0.274 N 
ATOM     10  H   UNL     1      -6.661  -1.441   8.675  0.00  0.00    +0.153 HD
BRANCH   9  11
ATOM     11  C   UNL     1      -4.905  -2.171   9.620  0.00  0.00    +0.269 C 
ATOM     12  N   UNL     1      -4.657  -3.594   9.354  0.00  0.00    -0.348 N 
ATOM     13  C   UNL     1      -5.177  -4.272  10.335  0.00  0.00    +0.061 A 
ATOM     14  C   UNL     1      -5.250  -5.710  10.628  0.00  0.00    +0.027 A 
ATOM     15  C   UNL     1      -5.868  -6.130  11.750  0.00  0.00    +0.002 A 
ATOM     16  C   UNL     1      -6.457  -5.243  12.668  0.00  0.00    +0.002 A 
ATOM     17  C   UNL     1      -6.447  -3.906  12.496  0.00  0.00    +0.027 A 
ATOM     18  C   UNL     1      -5.800  -3.333  11.308  0.00  0.00    +0.061 A 
ATOM     19  N   UNL     1      -5.641  -2.111  10.890  0.00  0.00    -0.348 N 
ATOM     20  H   UNL     1      -4.190  -3.961   8.586  0.00  0.00    +0.163 HD
ATOM     21  H   UNL     1      -5.950  -1.307  11.335  0.00  0.00    +0.163 HD
ENDBRANCH   9  11
ENDBRANCH   6   7
BRANCH   1  22
ATOM     22  O   UNL     1      -4.024  -0.548   4.872  0.00  0.00    -0.482 OA
BRANCH  22  23
ATOM     23  C   UNL     1      -3.487  -0.178   3.600  0.00  0.00    +0.324 C 
BRANCH  23  25
ATOM     24  N   UNL     1      -1.289  -0.209   2.466  0.00  0.00    -0.282 N 
ATOM     25  C   UNL     1      -2.010  -0.478   3.572  0.00  0.00    +0.255 C 
ATOM     26  O   UNL     1      -1.471  -0.962   4.545  0.00  0.00    -0.272 OA
ATOM     27  H   UNL     1      -1.705   0.239   1.713  0.00  0.00    +0.155 HD
BRANCH  24  33
ATOM     28  C   UNL     1       1.050   0.391   2.521  0.00  0.00    -0.026 A 
ATOM     29  C   UNL     1       2.380   0.025   2.465  0.00  0.00    +0.005 A 
ATOM     30  C   UNL     1       2.727  -1.301   2.286  0.00  0.00    +0.001 A 
ATOM     31  C   UNL     1       1.744  -2.266   2.164  0.00  0.00    +0.005 A 
ATOM     32  C   UNL     1       0.411  -1.907   2.219  0.00  0.00    -0.029 A 
ATOM     33  C   UNL     1       0.060  -0.576   2.404  0.00  0.00    +0.040 A 
ATOM     34  C   UNL     1      -0.660  -2.958   2.085  0.00  0.00    +0.045 C 
BRANCH  28  36
ATOM     35  C   UNL     1       0.438   2.107   4.204  0.00  0.00    +0.009 C 
ATOM     36  C   UNL     1       0.673   1.837   2.716  0.00  0.00    +0.033 C 
ENDBRANCH  28  36
ENDBRANCH  24  33
ENDBRANCH  23  25
ENDBRANCH  22  23
ENDBRANCH   1  22
TORSDOF 7
