REMARK  Name = ZINC39672214
REMARK  6 active torsions:
REMARK  status: ('A' for Active; 'I' for Inactive)
REMARK    1  A    between atoms: C_1  and  C_2
REMARK    2  A    between atoms: C_6  and  C_9
REMARK    3  A    between atoms: C_13  and  C_22
REMARK    4  A    between atoms: N_24  and  C_25
REMARK    5  A    between atoms: C_25  and  C_26
REMARK    6  A    between atoms: N_35  and  C_36
REMARK                            x       y       z     vdW  Elec       q    Type
REMARK                         _______ _______ _______ _____ _____    ______ ____
ROOT
ATOM      1  C   UNL     1       0.082  -2.890   2.604  0.00  0.00    +0.252 C 
ATOM      2  O   UNL     1       1.127  -3.242   3.117  0.00  0.00    -0.270 OA
ATOM      3  N   UNL     1      -1.094  -3.263   3.146  0.00  0.00    -0.296 N 
ATOM      4  C   UNL     1      -2.458  -2.941   2.665  0.00  0.00    +0.121 C 
ATOM      5  C   UNL     1      -3.266  -4.239   2.886  0.00  0.00    +0.100 C 
ATOM      6  C   UNL     1      -2.512  -4.986   4.000  0.00  0.00    -0.004 C 
ATOM      7  C   UNL     1      -1.315  -4.092   4.355  0.00  0.00    +0.115 C 
ATOM      8  C   UNL     1      -2.021  -6.338   3.491  0.00  0.00    -0.010 C 
ATOM      9  C   UNL     1      -1.325  -7.085   4.631  0.00  0.00    -0.082 C 
ATOM     10  N   UNL     1      -2.265  -7.270   5.743  0.00  0.00    +0.379 N 
ATOM     11  C   UNL     1      -2.661  -5.966   6.287  0.00  0.00    -0.082 C 
ATOM     12  C   UNL     1      -3.414  -5.171   5.217  0.00  0.00    -0.010 C 
ATOM     13  H   UNL     1      -3.084  -7.757   5.412  0.00  0.00    -0.086 HD
ATOM     14  H   UNL     1      -1.823  -7.816   6.468  0.00  0.00    -0.086 HD
ENDROOT
BRANCH   1  20
ATOM     15  C   UNL     1       0.139   1.617   0.457  0.00  0.00    +0.047 C 
ATOM     16  C   UNL     1       0.130   0.115   0.347  0.00  0.00    -0.014 A 
ATOM     17  C   UNL     1       0.140  -0.486  -0.899  0.00  0.00    +0.009 A 
ATOM     18  C   UNL     1       0.131  -1.864  -1.011  0.00  0.00    +0.039 A 
ATOM     19  C   UNL     1       0.112  -2.654   0.123  0.00  0.00    +0.138 A 
ATOM     20  C   UNL     1       0.102  -2.055   1.387  0.00  0.00    +0.107 A 
ATOM     21  C   UNL     1       0.117  -0.660   1.492  0.00  0.00    +0.141 A 
ATOM     22  F   UNL     1       0.114  -0.071   2.708  0.00  0.00    -0.204 F 
ATOM     23  F   UNL     1       0.103  -4.000   0.011  0.00  0.00    -0.205 F 
ENDBRANCH   1  20
BRANCH   5  24
ATOM     24  C   UNL     1      -4.670  -3.914   3.327  0.00  0.00    +0.218 C 
ATOM     25  O   UNL     1      -4.886  -2.915   3.979  0.00  0.00    -0.275 OA
ATOM     26  N   UNL     1      -5.687  -4.735   2.996  0.00  0.00    -0.311 N 
ATOM     27  H   UNL     1      -5.515  -5.534   2.475  0.00  0.00    +0.149 HD
BRANCH  26  28
ATOM     28  C   UNL     1      -7.052  -4.419   3.425  0.00  0.00    +0.139 C 
BRANCH  28  29
ATOM     29  C   UNL     1      -7.994  -5.487   2.929  0.00  0.00    -0.030 A 
ATOM     30  C   UNL     1      -8.594  -5.356   1.690  0.00  0.00    +0.007 A 
ATOM     31  C   UNL     1      -9.457  -6.333   1.236  0.00  0.00    +0.024 A 
ATOM     32  C   UNL     1      -9.723  -7.447   2.025  0.00  0.00    +0.033 A 
ATOM     33  C   UNL     1      -9.118  -7.579   3.265  0.00  0.00    -0.026 A 
ATOM     34  C   UNL     1      -8.251  -6.596   3.711  0.00  0.00    +0.010 A 
ATOM     35  C   UNL     1      -9.374  -8.777   4.142  0.00  0.00    +0.038 C 
ATOM     36  C   UNL     1     -10.678  -9.466   3.740  0.00  0.00    +0.024 C 
ATOM     37  C   UNL     1     -10.656  -9.726   2.228  0.00  0.00    +0.105 C 
ATOM     38  N   UNL     1     -10.604  -8.424   1.549  0.00  0.00    -0.333 N 
ATOM     39  C   UNL     1     -11.463  -8.152   0.393  0.00  0.00    +0.129 C 
ENDBRANCH  28  29
ENDBRANCH  26  28
ENDBRANCH   5  24
TORSDOF 4
