REMARK  Name = ZINC12431953
REMARK  7 active torsions:
REMARK  status: ('A' for Active; 'I' for Inactive)
REMARK    1  A    between atoms: C_1  and  O_2
REMARK    2  A    between atoms: O_2  and  C_3
REMARK    3  A    between atoms: C_10  and  C_13
REMARK    4  A    between atoms: C_13  and  N_14
REMARK    5  A    between atoms: C_15  and  C_17
REMARK    6  A    between atoms: C_17  and  C_18
REMARK    7  A    between atoms: C_25  and  N_60
REMARK                            x       y       z     vdW  Elec       q    Type
REMARK                         _______ _______ _______ _____ _____    ______ ____
ROOT
ATOM      1  C   UNL     1      -0.617  10.130   7.245  0.00  0.00    +0.089 C 
ENDROOT
BRANCH   1   2
ATOM      2  C   UNL     1      -0.900  11.571   7.673  0.00  0.00    +0.028 C 
ATOM      3  C   UNL     1       0.182  12.036   8.606  0.00  0.00    +0.200 C 
ATOM      4  O   UNL     1       0.571  11.277   9.469  0.00  0.00    -0.278 OA
ATOM      5  N   UNL     1       0.734  13.251   8.526  0.00  0.00    -0.318 N 
ATOM      6  C   UNL     1       0.363  14.225   7.503  0.00  0.00    +0.085 C 
ATOM      7  C   UNL     1      -0.984  13.849   6.885  0.00  0.00    -0.058 C 
ATOM      8  H   UNL     1       1.411  13.497   9.176  0.00  0.00    +0.149 HD
ATOM      9  N   UNL     1      -0.918  12.432   6.475  0.00  0.00    +0.391 N 
ATOM     10  H   UNL     1      -0.057  12.278   5.938  0.00  0.00    -0.080 HD
BRANCH   9  11
ATOM     11  C   UNL     1      -2.082  12.095   5.626  0.00  0.00    -0.059 C 
ATOM     12  C   UNL     1      -1.763  10.868   4.747  0.00  0.00    +0.020 C 
ATOM     13  C   UNL     1      -2.464  11.136   3.428  0.00  0.00    -0.046 A 
ATOM     14  C   UNL     1      -2.791  10.273   2.396  0.00  0.00    +0.004 A 
ATOM     15  C   UNL     1      -3.441  10.747   1.273  0.00  0.00    +0.000 A 
ATOM     16  C   UNL     1      -3.768  12.087   1.179  0.00  0.00    +0.000 A 
ATOM     17  C   UNL     1      -3.443  12.949   2.208  0.00  0.00    +0.004 A 
ATOM     18  C   UNL     1      -2.790  12.476   3.335  0.00  0.00    -0.046 A 
ATOM     19  C   UNL     1      -2.330  13.203   4.580  0.00  0.00    +0.020 C 
ENDBRANCH   9  11
ENDBRANCH   1   2
BRANCH   1  21
ATOM     20  N   UNL     1       1.064   8.927   5.886  0.00  0.00    -0.310 N 
ATOM     21  C   UNL     1       0.664  10.083   6.453  0.00  0.00    +0.212 C 
ATOM     22  O   UNL     1       1.335  11.085   6.325  0.00  0.00    -0.276 OA
ATOM     23  H   UNL     1       0.493   8.144   5.926  0.00  0.00    +0.149 HD
BRANCH  20  24
ATOM     24  C   UNL     1       2.361   8.854   5.210  0.00  0.00    +0.157 C 
BRANCH  24  32
ATOM     25  C   UNL     1       3.201   3.257   2.944  0.00  0.00    +0.121 A 
ATOM     26  C   UNL     1       3.699   3.010   4.221  0.00  0.00    +0.047 A 
ATOM     27  C   UNL     1       3.736   4.011   5.165  0.00  0.00    +0.030 A 
ATOM     28  C   UNL     1       3.264   5.282   4.850  0.00  0.00    +0.047 A 
ATOM     29  C   UNL     1       2.756   5.533   3.564  0.00  0.00    +0.003 A 
ATOM     30  C   UNL     1       2.728   4.511   2.612  0.00  0.00    +0.055 A 
ATOM     31  C   UNL     1       2.350   6.941   3.556  0.00  0.00    +0.032 A 
ATOM     32  C   UNL     1       2.621   7.434   4.774  0.00  0.00    +0.034 A 
ATOM     33  N   UNL     1       3.168   6.459   5.562  0.00  0.00    -0.357 N 
ATOM     34  H   UNL     1       3.447   6.578   6.484  0.00  0.00    +0.166 HD
BRANCH  25  36
ATOM     35  C   UNL     1       3.680   0.985   2.431  0.00  0.00    +0.277 C 
ATOM     36  O   UNL     1       3.175   2.258   2.022  0.00  0.00    -0.495 OA
ENDBRANCH  25  36
ENDBRANCH  24  32
ENDBRANCH  20  24
ENDBRANCH   1  21
TORSDOF 6
