REMARK  Name = ZINC59170993
REMARK  5 active torsions:
REMARK  status: ('A' for Active; 'I' for Inactive)
REMARK    1  A    between atoms: C_1  and  O_2
REMARK    2  A    between atoms: O_2  and  C_3
REMARK    3  A    between atoms: C_8  and  C_21
REMARK    4  A    between atoms: N_10  and  C_11
REMARK    5  A    between atoms: C_21  and  N_23
REMARK                            x       y       z     vdW  Elec       q    Type
REMARK                         _______ _______ _______ _____ _____    ______ ____
ROOT
ATOM      1  C   UNL     1       0.737  -0.147  -1.741  0.00  0.00    +0.124 A 
ATOM      2  C   UNL     1       1.515   0.375  -2.773  0.00  0.00    +0.046 A 
ATOM      3  C   UNL     1       2.157  -0.457  -3.643  0.00  0.00    +0.015 A 
ATOM      4  C   UNL     1       2.027  -1.847  -3.507  0.00  0.00    +0.018 A 
ATOM      5  C   UNL     1       2.660  -2.721  -4.427  0.00  0.00    +0.027 A 
ATOM      6  C   UNL     1       2.342  -4.071  -4.374  0.00  0.00    +0.064 A 
ATOM      7  C   UNL     1       1.337  -4.492  -3.378  0.00  0.00    +0.209 A 
ATOM      8  N   UNL     1       0.616  -5.578  -3.554  0.00  0.00    -0.325 N 
ATOM      9  O   UNL     1       1.184  -3.719  -2.272  0.00  0.00    -0.439 OA
ATOM     10  C   UNL     1       1.266  -2.377  -2.447  0.00  0.00    +0.141 A 
ATOM     11  C   UNL     1       0.619  -1.518  -1.574  0.00  0.00    +0.092 A 
ATOM     12  H   UNL     1       0.672  -6.067  -4.391  0.00  0.00    +0.169 HD
ENDROOT
BRANCH   8  13
ATOM     13  C   UNL     1      -0.211  -6.019  -2.559  0.00  0.00    +0.043 A 
ATOM     14  C   UNL     1       0.239  -6.058  -1.237  0.00  0.00    +0.026 A 
ATOM     15  C   UNL     1      -0.601  -6.503  -0.238  0.00  0.00    +0.003 A 
ATOM     16  C   UNL     1      -1.888  -6.911  -0.542  0.00  0.00    +0.015 A 
ATOM     17  C   UNL     1      -2.342  -6.876  -1.850  0.00  0.00    +0.020 A 
ATOM     18  C   UNL     1      -1.513  -6.427  -2.859  0.00  0.00    +0.041 A 
ATOM     19 BR   UNL     1      -4.102  -7.436  -2.253  0.00  0.00    -0.050 Br
ENDBRANCH   8  13
BRANCH   1  21
ATOM     20  C   UNL     1       0.257   2.095  -1.118  0.00  0.00    +0.277 C 
ATOM     21  O   UNL     1       0.094   0.694  -0.891  0.00  0.00    -0.495 OA
ENDBRANCH   1  21
BRANCH   6  22
ATOM     22  C   UNL     1       2.980  -5.042  -5.274  0.00  0.00    +0.082 C 
ATOM     23  S   UNL     1       2.682  -6.716  -5.077  0.00  0.00    -0.035 S 
BRANCH  22  24
ATOM     24  N   UNL     1       3.800  -4.615  -6.255  0.00  0.00    -0.352 N 
ATOM     25  H   UNL     1       3.969  -3.666  -6.367  0.00  0.00    +0.143 HD
ATOM     26  H   UNL     1       4.221  -5.256  -6.849  0.00  0.00    +0.143 HD
ENDBRANCH  22  24
ENDBRANCH   6  22
TORSDOF 4
