REMARK  Name = ZINC06090577
REMARK  8 active torsions:
REMARK  status: ('A' for Active; 'I' for Inactive)
REMARK    1  A    between atoms: C_1  and  C_2
REMARK    2  A    between atoms: C_7  and  N_8
REMARK    3  A    between atoms: C_12  and  S_16
REMARK    4  A    between atoms: S_16  and  C_17
REMARK    5  A    between atoms: N_19  and  N_20
REMARK    6  A    between atoms: C_21  and  C_22
REMARK    7  A    between atoms: C_25  and  O_29
REMARK    8  A    between atoms: C_26  and  O_28
REMARK                            x       y       z     vdW  Elec       q    Type
REMARK                         _______ _______ _______ _____ _____    ______ ____
ROOT
ATOM      1  C   UNL     1       3.209   0.467   5.642  0.00  0.00    +0.146 C 
ATOM      2  N   UNL     1       3.700   1.173   4.660  0.00  0.00    -0.380 N 
ATOM      3  N   UNL     1       4.050  -0.071   6.590  0.00  0.00    -0.217 N 
ATOM      4  H   UNL     1       4.657   1.318   4.598  0.00  0.00    +0.158 HD
ATOM      5  H   UNL     1       3.686  -0.596   7.320  0.00  0.00    +0.176 HD
ATOM      6  H   UNL     1       3.107   1.552   3.993  0.00  0.00    +0.158 HD
ENDROOT
BRANCH   3   7
ATOM      7  N   UNL     1       5.433   0.138   6.500  0.00  0.00    -0.188 NA
ATOM      8  C   UNL     1       6.225  -0.369   7.394  0.00  0.00    +0.138 C 
BRANCH   8   9
ATOM      9  C   UNL     1       7.680  -0.149   7.299  0.00  0.00    -0.002 A 
ATOM     10  C   UNL     1       8.207   0.611   6.252  0.00  0.00    +0.013 A 
ATOM     11  C   UNL     1       9.568   0.817   6.165  0.00  0.00    +0.050 A 
ATOM     12  C   UNL     1      10.417   0.270   7.117  0.00  0.00    +0.158 A 
ATOM     13  C   UNL     1       9.899  -0.489   8.164  0.00  0.00    +0.159 A 
ATOM     14  C   UNL     1       8.535  -0.694   8.260  0.00  0.00    +0.058 A 
BRANCH  13  15
ATOM     15  O   UNL     1      10.734  -1.024   9.094  0.00  0.00    -0.503 OA
ATOM     16  H   UNL     1      10.897  -0.448   9.854  0.00  0.00    +0.292 HD
ENDBRANCH  13  15
BRANCH  12  17
ATOM     17  O   UNL     1      11.758   0.476   7.027  0.00  0.00    -0.503 OA
ATOM     18  H   UNL     1      12.066   1.266   7.491  0.00  0.00    +0.292 HD
ENDBRANCH  12  17
ENDBRANCH   8   9
ENDBRANCH   3   7
BRANCH   1  19
ATOM     19  S   UNL     1       1.471   0.204   5.755  0.00  0.00    -0.078 S 
BRANCH  19  24
ATOM     20  N   UNL     1       0.025  -0.013   2.419  0.00  0.00    -0.209 N 
ATOM     21  C   UNL     1      -1.099   0.325   3.062  0.00  0.00    +0.228 C 
ATOM     22  O   UNL     1      -2.225   0.081   2.684  0.00  0.00    -0.275 OA
ATOM     23  C   UNL     1      -0.743   1.057   4.337  0.00  0.00    +0.120 C 
ATOM     24  C   UNL     1       0.799   1.085   4.319  0.00  0.00    +0.149 C 
ATOM     25  C   UNL     1       1.152   0.360   3.038  0.00  0.00    +0.240 C 
ATOM     26  O   UNL     1       2.276   0.152   2.636  0.00  0.00    -0.274 OA
BRANCH  20  33
ATOM     27  C   UNL     1      -0.018   1.503   0.010  0.00  0.00    +0.045 C 
ATOM     28  C   UNL     1       0.002  -0.004   0.002  0.00  0.00    -0.029 A 
ATOM     29  C   UNL     1       0.006  -0.689  -1.198  0.00  0.00    +0.005 A 
ATOM     30  C   UNL     1       0.025  -2.071  -1.206  0.00  0.00    +0.000 A 
ATOM     31  C   UNL     1       0.041  -2.773  -0.014  0.00  0.00    +0.002 A 
ATOM     32  C   UNL     1       0.037  -2.094   1.188  0.00  0.00    +0.024 A 
ATOM     33  C   UNL     1       0.023  -0.705   1.200  0.00  0.00    +0.047 A 
ENDBRANCH  20  33
ENDBRANCH  19  24
ENDBRANCH   1  19
TORSDOF 7
