REMARK  Name = ZINC22061357
REMARK  12 active torsions:
REMARK  status: ('A' for Active; 'I' for Inactive)
REMARK    1  A    between atoms: C_1  and  C_2
REMARK    2  A    between atoms: C_1  and  O_36
REMARK    3  A    between atoms: C_4  and  O_14
REMARK    4  A    between atoms: C_6  and  O_13
REMARK    5  A    between atoms: C_8  and  C_11
REMARK    6  A    between atoms: O_14  and  C_15
REMARK    7  A    between atoms: C_17  and  O_31
REMARK    8  A    between atoms: C_19  and  O_30
REMARK    9  A    between atoms: C_21  and  O_29
REMARK   10  A    between atoms: C_23  and  C_26
REMARK   11  A    between atoms: O_31  and  S_32
REMARK   12  A    between atoms: O_36  and  S_37
REMARK                            x       y       z     vdW  Elec       q    Type
REMARK                         _______ _______ _______ _____ _____    ______ ____
ROOT
ATOM      1  C   UNL     1      -2.464  -0.020  -2.080  0.00  0.00    +0.286 C 
ATOM      2  C   UNL     1      -2.704  -0.559  -3.493  0.00  0.00    +0.238 C 
ATOM      3  C   UNL     1      -3.459   0.493  -4.311  0.00  0.00    +0.182 C 
ATOM      4  C   UNL     1      -4.766   0.841  -3.592  0.00  0.00    +0.186 C 
ATOM      5  C   UNL     1      -4.446   1.326  -2.175  0.00  0.00    +0.265 C 
ATOM      6  O   UNL     1      -3.717   0.313  -1.480  0.00  0.00    -0.331 OA
ENDROOT
BRANCH   5   7
ATOM      7  C   UNL     1      -5.731   1.614  -1.442  0.00  0.00    +0.387 C 
ATOM      8  O   UNL     1      -6.037   0.954  -0.478  0.00  0.00    -0.243 OA
ATOM      9  O   UNL     1      -6.534   2.606  -1.858  0.00  0.00    -0.243 OA
ENDBRANCH   5   7
BRANCH   4  10
ATOM     10  O   UNL     1      -5.445   1.874  -4.309  0.00  0.00    -0.386 OA
ATOM     11  H   UNL     1      -6.408   2.257  -3.941  0.00  0.00    +0.210 HD
ENDBRANCH   4  10
BRANCH   3  12
ATOM     12  O   UNL     1      -3.750  -0.030  -5.609  0.00  0.00    -0.386 OA
ATOM     13  H   UNL     1      -4.292   0.587  -6.341  0.00  0.00    +0.210 HD
ENDBRANCH   3  12
BRANCH   1  14
ATOM     14  O   UNL     1      -1.809  -1.018  -1.294  0.00  0.00    -0.340 OA
BRANCH  14  16
ATOM     15  C   UNL     1      -1.361  -1.770   0.984  0.00  0.00    +0.179 C 
ATOM     16  C   UNL     1      -1.436  -0.576   0.013  0.00  0.00    +0.184 C 
ATOM     17  C   UNL     1       0.002  -0.004   0.002  0.00  0.00    +0.182 C 
ATOM     18  C   UNL     1       0.581  -0.557   1.329  0.00  0.00    +0.212 C 
ATOM     19  O   UNL     1       0.003  -1.876   1.425  0.00  0.00    -0.358 OA
BRANCH  18  20
ATOM     20  C   UNL     1       0.150   0.298   2.493  0.00  0.00    +0.257 C 
ATOM     21  O   UNL     1       0.971   0.918   3.124  0.00  0.00    -0.298 OA
ENDBRANCH  18  20
BRANCH  17  22
ATOM     22  O   UNL     1      -0.017   1.425   0.010  0.00  0.00    -0.386 OA
ATOM     23  H   UNL     1       0.928   1.988   0.004  0.00  0.00    +0.210 HD
ENDBRANCH  17  22
BRANCH  15  24
ATOM     24  C   UNL     1      -1.780  -3.054   0.265  0.00  0.00    +0.230 C 
BRANCH  24  25
ATOM     25  O   UNL     1      -1.819  -4.133   1.200  0.00  0.00    -0.211 OA
BRANCH  25  26
ATOM     26  S   UNL     1      -2.226  -5.467   0.590  0.00  0.00    +0.238 S 
ATOM     27  O   UNL     1      -2.416  -6.367   1.673  0.00  0.00    -0.116 OA
ATOM     28  O   UNL     1      -3.249  -5.185  -0.355  0.00  0.00    -0.116 OA
ATOM     29  O   UNL     1      -1.032  -5.983  -0.201  0.00  0.00    -0.022 OA
ENDBRANCH  25  26
ENDBRANCH  24  25
ENDBRANCH  15  24
ENDBRANCH  14  16
ENDBRANCH   1  14
BRANCH   2  30
ATOM     30  O   UNL     1      -1.449  -0.839  -4.117  0.00  0.00    -0.203 OA
BRANCH  30  31
ATOM     31  S   UNL     1      -1.002  -2.288  -3.988  0.00  0.00    +0.239 S 
ATOM     32  O   UNL     1       0.334  -2.346  -4.468  0.00  0.00    -0.116 OA
ATOM     33  O   UNL     1      -1.359  -2.708  -2.678  0.00  0.00    -0.116 OA
ATOM     34  O   UNL     1      -1.847  -3.107  -4.953  0.00  0.00    -0.022 OA
ENDBRANCH  30  31
ENDBRANCH   2  30
TORSDOF 12
