REMARK  Name = ZINC29820498
REMARK  4 active torsions:
REMARK  status: ('A' for Active; 'I' for Inactive)
REMARK    1  A    between atoms: C_6  and  N_7
REMARK    2  A    between atoms: C_8  and  C_10
REMARK    3  A    between atoms: N_16  and  C_17
REMARK    4  A    between atoms: C_17  and  C_18
REMARK                            x       y       z     vdW  Elec       q    Type
REMARK                         _______ _______ _______ _____ _____    ______ ____
ROOT
ATOM      1  C   UNL     1      -3.141   1.511  -0.187  0.00  0.00    +0.020 C 
ATOM      2  C   UNL     1      -2.294   0.962   0.964  0.00  0.00    -0.006 C 
ATOM      3  C   UNL     1      -0.983   1.750   1.048  0.00  0.00    -0.003 C 
ATOM      4  C   UNL     1      -0.250   1.649  -0.293  0.00  0.00    -0.019 C 
ATOM      5  C   UNL     1      -1.156   2.178  -1.407  0.00  0.00    -0.077 C 
ATOM      6  N   UNL     1      -2.395   1.391  -1.446  0.00  0.00    +0.393 N 
ATOM      7  H   UNL     1      -2.118   0.334  -1.572  0.00  0.00    -0.080 HD
ENDROOT
BRANCH   1   9
ATOM      8  N   UNL     1      -5.509   1.117   0.411  0.00  0.00    -0.287 N 
ATOM      9  C   UNL     1      -4.423   0.726  -0.285  0.00  0.00    +0.204 C 
ATOM     10  O   UNL     1      -4.478  -0.260  -0.991  0.00  0.00    -0.277 OA
ATOM     11  H   UNL     1      -5.483   2.053   0.989  0.00  0.00    +0.155 HD
BRANCH   8  17
ATOM     12  C   UNL     1      -6.574  -1.048   0.301  0.00  0.00    +0.025 A 
ATOM     13  C   UNL     1      -7.719  -1.819   0.288  0.00  0.00    +0.023 A 
ATOM     14  C   UNL     1      -8.962  -1.216   0.372  0.00  0.00    +0.059 A 
ATOM     15  C   UNL     1      -9.060   0.162   0.468  0.00  0.00    +0.061 A 
ATOM     16  C   UNL     1      -7.916   0.937   0.487  0.00  0.00    +0.044 A 
ATOM     17  C   UNL     1      -6.669   0.334   0.397  0.00  0.00    +0.035 A 
ATOM     18 CL   UNL     1     -10.621   0.915   0.573  0.00  0.00    -0.082 Cl
ATOM     19 CL   UNL     1     -10.400  -2.189   0.355  0.00  0.00    -0.082 Cl
ENDBRANCH   8  17
ENDBRANCH   1   9
BRANCH   6  20
ATOM     20  C   UNL     1      -3.229   1.780  -2.591  0.00  0.00    +0.020 C 
BRANCH  20  21
ATOM     21  C   UNL     1      -2.601   1.276  -3.865  0.00  0.00    +0.204 C 
ATOM     22  O   UNL     1      -1.561   0.654  -3.823  0.00  0.00    -0.277 OA
ATOM     23  N   UNL     1      -3.195   1.517  -5.050  0.00  0.00    -0.242 N 
ATOM     24  C   UNL     1      -2.634   1.066  -6.189  0.00  0.00    +0.303 C 
ATOM     25  O   UNL     1      -1.591   0.442  -6.147  0.00  0.00    -0.253 OA
ATOM     26  N   UNL     1      -3.228   1.306  -7.375  0.00  0.00    -0.313 N 
ATOM     27  H   UNL     1      -4.139   2.081  -5.088  0.00  0.00    +0.159 HD
ATOM     28  H   UNL     1      -2.769   0.938  -8.305  0.00  0.00    +0.146 HD
ATOM     29  H   UNL     1      -4.171   1.871  -7.413  0.00  0.00    +0.146 HD
ENDBRANCH  20  21
ENDBRANCH   6  20
TORSDOF 4
