REMARK  Name = ZINC62188269
REMARK  9 active torsions:
REMARK  status: ('A' for Active; 'I' for Inactive)
REMARK    1  A    between atoms: C_1  and  C_2
REMARK    2  A    between atoms: C_2  and  N_3
REMARK    3  A    between atoms: N_3  and  C_4
REMARK    4  A    between atoms: N_3  and  C_6
REMARK    5  A    between atoms: C_4  and  C_5
REMARK    6  A    between atoms: C_6  and  C_7
REMARK    7  A    between atoms: C_9  and  N_22
REMARK    8  A    between atoms: C_18  and  C_19
REMARK    9  A    between atoms: C_18  and  C_20
REMARK                            x       y       z     vdW  Elec       q    Type
REMARK                         _______ _______ _______ _____ _____    ______ ____
ROOT
ATOM      1  C   UNL     1       1.939  -2.296  -2.412  0.00  0.00    +0.037 C 
ATOM      2  C   UNL     1       3.373  -1.895  -2.057  0.00  0.00    +0.090 C 
ATOM      3  C   UNL     1       3.829  -2.663  -0.842  0.00  0.00    +0.013 A 
ATOM      4  C   UNL     1       4.924  -2.199  -0.133  0.00  0.00    +0.028 A 
ATOM      5  C   UNL     1       5.372  -2.880   0.983  0.00  0.00    +0.042 A 
ATOM      6  C   UNL     1       4.724  -4.031   1.397  0.00  0.00    +0.023 A 
ATOM      7  C   UNL     1       3.631  -4.496   0.695  0.00  0.00    +0.047 A 
ATOM      8  C   UNL     1       3.176  -3.811  -0.428  0.00  0.00    +0.126 A 
ATOM      9  O   UNL     1       2.091  -4.294  -1.087  0.00  0.00    -0.486 OA
ATOM     10  C   UNL     1       1.853  -3.828  -2.416  0.00  0.00    +0.108 C 
ATOM     11  C   UNL     1       2.910  -4.401  -3.361  0.00  0.00    +0.055 C 
ATOM     12  C   UNL     1       0.460  -4.264  -2.875  0.00  0.00    +0.055 C 
ATOM     13 CL   UNL     1       6.745  -2.291   1.867  0.00  0.00    -0.084 Cl
ENDROOT
BRANCH   2  14
ATOM     14  N   UNL     1       4.260  -2.201  -3.188  0.00  0.00    -0.323 NA
ATOM     15  H   UNL     1       4.027  -1.637  -3.992  0.00  0.00    +0.119 HD
ATOM     16  H   UNL     1       5.228  -2.082  -2.931  0.00  0.00    +0.119 HD
ENDBRANCH   2  14
BRANCH   1  17
ATOM     17  C   UNL     1       0.972  -1.728  -1.371  0.00  0.00    -0.070 C 
BRANCH  17  18
ATOM     18  N   UNL     1       0.965  -0.261  -1.459  0.00  0.00    +0.380 N 
ATOM     19  H   UNL     1       1.908   0.086  -1.366  0.00  0.00    -0.082 HD
BRANCH  18  21
ATOM     20  C   UNL     1       0.526   1.669  -2.902  0.00  0.00    -0.017 C 
ATOM     21  C   UNL     1       0.418   0.149  -2.760  0.00  0.00    -0.082 C 
ENDBRANCH  18  21
BRANCH  18  22
ATOM     22  C   UNL     1       0.132   0.290  -0.382  0.00  0.00    -0.082 C 
ATOM     23  C   UNL     1       0.778  -0.017   0.971  0.00  0.00    -0.017 C 
ENDBRANCH  18  22
ENDBRANCH  17  18
ENDBRANCH   1  17
TORSDOF 5
