REMARK  Name = ZINC00358169
REMARK  7 active torsions:
REMARK  status: ('A' for Active; 'I' for Inactive)
REMARK    1  A    between atoms: C_1  and  C_2
REMARK    2  A    between atoms: N_5  and  S_8
REMARK    3  A    between atoms: S_8  and  C_11
REMARK    4  A    between atoms: C_14  and  N_17
REMARK    5  A    between atoms: N_17  and  N_18
REMARK    6  A    between atoms: C_19  and  C_20
REMARK    7  A    between atoms: C_19  and  C_22
REMARK                            x       y       z     vdW  Elec       q    Type
REMARK                         _______ _______ _______ _____ _____    ______ ____
ROOT
ATOM      1  C   UNL     1      -0.795  -5.265   1.507  0.00  0.00    +0.106 A 
ATOM      2  C   UNL     1      -1.687  -5.899   0.662  0.00  0.00    +0.030 A 
ATOM      3  C   UNL     1      -1.394  -7.150   0.158  0.00  0.00    +0.026 A 
ATOM      4  C   UNL     1      -0.200  -7.773   0.501  0.00  0.00    +0.048 A 
ATOM      5  C   UNL     1       0.695  -7.133   1.351  0.00  0.00    +0.026 A 
ATOM      6  C   UNL     1       0.397  -5.880   1.846  0.00  0.00    +0.030 A 
ENDROOT
BRANCH   1   7
ATOM      7  S   UNL     1      -1.173  -3.668   2.148  0.00  0.00    +0.061 S 
ATOM      8  O   UNL     1      -0.421  -3.521   3.344  0.00  0.00    -0.153 OA
ATOM      9  O   UNL     1      -2.589  -3.544   2.119  0.00  0.00    -0.153 OA
BRANCH   7  14
ATOM     10  C   UNL     1      -0.019   1.526   0.010  0.00  0.00    +0.007 C 
ATOM     11  C   UNL     1       0.002  -0.004   0.002  0.00  0.00    -0.012 C 
ATOM     12  C   UNL     1      -1.434  -0.533   0.011  0.00  0.00    +0.020 C 
ATOM     13  C   UNL     1      -1.409  -2.065  -0.032  0.00  0.00    +0.110 C 
ATOM     14  N   UNL     1      -0.578  -2.556   1.075  0.00  0.00    -0.177 NA
ATOM     15  C   UNL     1       0.791  -2.042   1.212  0.00  0.00    +0.110 C 
ATOM     16  C   UNL     1       0.742  -0.511   1.242  0.00  0.00    +0.020 C 
ENDBRANCH   7  14
ENDBRANCH   1   7
BRANCH   4  17
ATOM     17  N   UNL     1       0.100  -9.038  -0.006  0.00  0.00    -0.236 N 
ATOM     18  H   UNL     1      -0.525  -9.483  -0.599  0.00  0.00    +0.174 HD
BRANCH  17  19
ATOM     19  N   UNL     1       1.209  -9.615   0.313  0.00  0.00    -0.166 NA
ATOM     20  C   UNL     1       1.492 -10.808  -0.166  0.00  0.00    +0.219 C 
BRANCH  20  21
ATOM     21  C   UNL     1       2.756 -11.466   0.199  0.00  0.00    +0.272 C 
ATOM     22  O   UNL     1       3.018 -12.569  -0.243  0.00  0.00    -0.268 OA
ATOM     23  N   UNL     1       3.625 -10.847   1.022  0.00  0.00    -0.323 N 
ATOM     24  H   UNL     1       3.417  -9.968   1.375  0.00  0.00    +0.145 HD
ATOM     25  H   UNL     1       4.459 -11.281   1.263  0.00  0.00    +0.145 HD
ENDBRANCH  20  21
BRANCH  20  26
ATOM     26  C   UNL     1       0.568 -11.466  -1.041  0.00  0.00    +0.126 C 
ATOM     27  N   UNL     1      -0.164 -11.988  -1.735  0.00  0.00    -0.189 NA
ENDBRANCH  20  26
ENDBRANCH  17  19
ENDBRANCH   4  17
TORSDOF 6
