REMARK  Name = ZINC39370986
REMARK  6 active torsions:
REMARK  status: ('A' for Active; 'I' for Inactive)
REMARK    1  A    between atoms: C_4  and  C_7
REMARK    2  A    between atoms: C_7  and  C_8
REMARK    3  A    between atoms: N_10  and  C_11
REMARK    4  A    between atoms: C_14  and  C_17
REMARK    5  A    between atoms: C_28  and  C_30
REMARK    6  A    between atoms: C_30  and  C_31
REMARK                            x       y       z     vdW  Elec       q    Type
REMARK                         _______ _______ _______ _____ _____    ______ ____
ROOT
ATOM      1  C   UNL     1       6.657  -3.049   7.311  0.00  0.00    +0.218 C 
ATOM      2  N   UNL     1       8.116  -2.981   7.423  0.00  0.00    -0.360 N 
ATOM      3  C   UNL     1       8.434  -2.006   8.223  0.00  0.00    +0.060 C 
ATOM      4  C   UNL     1       9.748  -1.506   8.679  0.00  0.00    +0.029 C 
ATOM      5  C   UNL     1       9.799  -0.462   9.525  0.00  0.00    +0.025 C 
ATOM      6  C   UNL     1       8.564   0.176   9.993  0.00  0.00    +0.035 C 
ATOM      7  C   UNL     1       7.305  -0.287   9.569  0.00  0.00    +0.050 C 
ATOM      8  C   UNL     1       7.207  -1.340   8.714  0.00  0.00    +0.075 C 
ATOM      9  N   UNL     1       6.117  -1.977   8.157  0.00  0.00    -0.220 NA
ATOM     10  N   UNL     1       8.636   1.211  10.834  0.00  0.00    -0.285 N 
ATOM     11  C   UNL     1       9.822   1.661  11.235  0.00  0.00    +0.222 C 
ATOM     12  O   UNL     1      10.610   0.905  11.771  0.00  0.00    -0.275 OA
ATOM     13  H   UNL     1       7.824   1.634  11.152  0.00  0.00    +0.155 HD
ATOM     14  H   UNL     1       8.744  -3.568   6.973  0.00  0.00    +0.162 HD
ENDROOT
BRANCH   1  18
ATOM     15  C   UNL     1       5.472  -2.444   3.249  0.00  0.00    +0.033 A 
ATOM     16  C   UNL     1       4.637  -2.044   4.285  0.00  0.00    +0.024 A 
ATOM     17  C   UNL     1       5.023  -2.241   5.596  0.00  0.00    +0.009 A 
ATOM     18  C   UNL     1       6.239  -2.836   5.878  0.00  0.00    -0.006 A 
ATOM     19  C   UNL     1       7.073  -3.235   4.850  0.00  0.00    +0.009 A 
ATOM     20  C   UNL     1       6.690  -3.046   3.536  0.00  0.00    +0.024 A 
BRANCH  15  23
ATOM     21  C   UNL     1       5.400  -3.160   0.982  0.00  0.00    +0.222 C 
ATOM     22  O   UNL     1       6.106  -4.104   1.269  0.00  0.00    -0.275 OA
ATOM     23  N   UNL     1       5.084  -2.245   1.920  0.00  0.00    -0.285 N 
ATOM     24  H   UNL     1       4.587  -1.450   1.673  0.00  0.00    +0.155 HD
BRANCH  21  25
ATOM     25  C   UNL     1       4.877  -3.010  -0.424  0.00  0.00    +0.131 C 
BRANCH  25  29
ATOM     26  C   UNL     1       6.281  -6.255  -2.821  0.00  0.00    +0.000 A 
ATOM     27  C   UNL     1       5.083  -6.367  -2.139  0.00  0.00    +0.000 A 
ATOM     28  C   UNL     1       4.629  -5.317  -1.363  0.00  0.00    +0.004 A 
ATOM     29  C   UNL     1       5.373  -4.155  -1.269  0.00  0.00    -0.039 A 
ATOM     30  C   UNL     1       6.570  -4.044  -1.950  0.00  0.00    +0.004 A 
ATOM     31  C   UNL     1       7.024  -5.093  -2.727  0.00  0.00    +0.000 A 
ENDBRANCH  25  29
ENDBRANCH  21  25
ENDBRANCH  15  23
ENDBRANCH   1  18
BRANCH  11  32
ATOM     32  C   UNL     1      10.190   3.107  11.026  0.00  0.00    +0.131 C 
BRANCH  32  33
ATOM     33  C   UNL     1      11.575   3.357  11.565  0.00  0.00    -0.039 A 
ATOM     34  C   UNL     1      11.745   3.738  12.883  0.00  0.00    +0.004 A 
ATOM     35  C   UNL     1      13.015   3.967  13.377  0.00  0.00    +0.000 A 
ATOM     36  C   UNL     1      14.115   3.814  12.554  0.00  0.00    +0.000 A 
ATOM     37  C   UNL     1      13.945   3.432  11.237  0.00  0.00    +0.000 A 
ATOM     38  C   UNL     1      12.675   3.198  10.743  0.00  0.00    +0.004 A 
ENDBRANCH  32  33
ENDBRANCH  11  32
TORSDOF 6
