REMARK  Name = ZINC63832668
REMARK  2 active torsions:
REMARK  status: ('A' for Active; 'I' for Inactive)
REMARK    1  A    between atoms: C_3  and  C_4
REMARK    2  A    between atoms: N_9  and  C_12
REMARK                            x       y       z     vdW  Elec       q    Type
REMARK                         _______ _______ _______ _____ _____    ______ ____
ROOT
ATOM      1  C   UNL     1      -0.402  -0.698  -1.273  0.00  0.00    +0.092 C 
ATOM      2  N   UNL     1      -0.896  -1.953  -1.313  0.00  0.00    -0.320 N 
ATOM      3  C   UNL     1      -1.155  -2.236  -2.731  0.00  0.00    +0.114 C 
ATOM      4  C   UNL     1      -0.313  -3.414  -3.207  0.00  0.00    +0.051 C 
ATOM      5  C   UNL     1      -0.781  -4.690  -2.501  0.00  0.00    +0.089 C 
ATOM      6  N   UNL     1      -2.205  -4.912  -2.784  0.00  0.00    -0.277 NA
ATOM      7  C   UNL     1      -3.029  -3.813  -2.265  0.00  0.00    +0.089 C 
ATOM      8  C   UNL     1      -2.638  -2.507  -2.963  0.00  0.00    +0.051 C 
ATOM      9  C   UNL     1      -0.732  -0.964  -3.429  0.00  0.00    +0.261 C 
ATOM     10  O   UNL     1      -0.766  -0.729  -4.620  0.00  0.00    -0.271 OA
ATOM     11  N   UNL     1      -0.317  -0.147  -2.451  0.00  0.00    -0.168 NA
ATOM     12  H   UNL     1      -1.048  -2.546  -0.561  0.00  0.00    +0.148 HD
ENDROOT
BRANCH   6  13
ATOM     13  C   UNL     1      -2.653  -6.204  -2.250  0.00  0.00    +0.214 C 
ATOM     14  C   UNL     1      -4.055  -6.457  -2.741  0.00  0.00    +0.055 C 
ATOM     15  C   UNL     1      -4.683  -6.564  -3.914  0.00  0.00    +0.145 C 
ATOM     16  N   UNL     1      -5.990  -6.804  -3.677  0.00  0.00    -0.155 NA
ATOM     17  N   UNL     1      -6.252  -6.860  -2.418  0.00  0.00    -0.131 NA
ATOM     18  C   UNL     1      -5.104  -6.655  -1.709  0.00  0.00    +0.164 C 
ATOM     19  N   UNL     1      -4.771  -6.602  -0.451  0.00  0.00    -0.311 N 
ATOM     20  C   UNL     1      -3.513  -6.375  -0.016  0.00  0.00    +0.189 C 
ATOM     21  N   UNL     1      -2.486  -6.181  -0.783  0.00  0.00    -0.230 NA
ATOM     22  N   UNL     1      -3.305  -6.346   1.350  0.00  0.00    -0.329 N 
ATOM     23  H   UNL     1      -4.049  -6.486   1.957  0.00  0.00    +0.145 HD
ATOM     24  H   UNL     1      -2.415  -6.186   1.702  0.00  0.00    +0.145 HD
ATOM     25  H   UNL     1      -5.466  -6.733   0.212  0.00  0.00    +0.170 HD
ENDBRANCH   6  13
BRANCH   1  28
ATOM     26  C   UNL     1      -0.019   1.526   0.010  0.00  0.00    +0.011 C 
ATOM     27  C   UNL     1       1.317   0.779  -0.006  0.00  0.00    +0.011 C 
ATOM     28  C   UNL     1       0.002  -0.004   0.002  0.00  0.00    +0.050 C 
ENDBRANCH   1  28
TORSDOF 2
