REMARK  Name = ZINC14980665
REMARK  12 active torsions:
REMARK  status: ('A' for Active; 'I' for Inactive)
REMARK    1  A    between atoms: C_1  and  C_2
REMARK    2  A    between atoms: C_2  and  C_3
REMARK    3  A    between atoms: C_4  and  C_18
REMARK    4  A    between atoms: C_8  and  C_17
REMARK    5  A    between atoms: N_9  and  C_10
REMARK    6  A    between atoms: C_10  and  C_11
REMARK    7  A    between atoms: C_11  and  N_67
REMARK    8  A    between atoms: N_20  and  C_21
REMARK    9  A    between atoms: C_21  and  C_22
REMARK   10  A    between atoms: C_22  and  C_23
REMARK   11  A    between atoms: C_26  and  S_29
REMARK   12  A    between atoms: S_29  and  N_32
REMARK                            x       y       z     vdW  Elec       q    Type
REMARK                         _______ _______ _______ _____ _____    ______ ____
ROOT
ATOM      1  C   UNL     1      -0.017   1.376   0.010  0.00  0.00    +0.034 A 
ATOM      2  C   UNL     1       0.002  -0.004   0.002  0.00  0.00    +0.103 A 
ATOM      3  C   UNL     1       1.307  -0.682  -0.014  0.00  0.00    +0.194 A 
ATOM      4  O   UNL     1       1.384  -1.901  -0.022  0.00  0.00    -0.287 OA
ATOM      5  C   UNL     1       2.472   0.124  -0.021  0.00  0.00    +0.072 A 
ATOM      6  C   UNL     1       2.347   1.467  -0.013  0.00  0.00    +0.019 A 
ATOM      7  N   UNL     1       1.133   2.071   0.002  0.00  0.00    -0.349 N 
ATOM      8  C   UNL     1       3.590   2.319  -0.020  0.00  0.00    +0.063 C 
ENDROOT
BRANCH   2   9
ATOM      9  C   UNL     1      -1.252  -0.777   0.009  0.00  0.00    +0.249 C 
ATOM     10  O   UNL     1      -1.779  -1.091  -1.041  0.00  0.00    -0.270 OA
ATOM     11  N   UNL     1      -1.814  -1.137   1.180  0.00  0.00    -0.311 N 
ATOM     12  H   UNL     1      -1.394  -0.887   2.018  0.00  0.00    +0.149 HD
BRANCH  11  13
ATOM     13  C   UNL     1      -3.061  -1.906   1.187  0.00  0.00    +0.109 C 
BRANCH  13  14
ATOM     14  C   UNL     1      -3.482  -2.182   2.632  0.00  0.00    +0.054 C 
BRANCH  14  15
ATOM     15  C   UNL     1      -4.765  -2.973   2.640  0.00  0.00    -0.046 A 
ATOM     16  C   UNL     1      -5.981  -2.317   2.660  0.00  0.00    +0.005 A 
ATOM     17  C   UNL     1      -7.158  -3.042   2.663  0.00  0.00    +0.029 A 
ATOM     18  C   UNL     1      -7.118  -4.424   2.654  0.00  0.00    +0.105 A 
ATOM     19  C   UNL     1      -5.901  -5.080   2.639  0.00  0.00    +0.029 A 
ATOM     20  C   UNL     1      -4.725  -4.354   2.632  0.00  0.00    +0.005 A 
BRANCH  18  21
ATOM     21  S   UNL     1      -8.618  -5.349   2.662  0.00  0.00    +0.056 S 
ATOM     22  O   UNL     1      -9.622  -4.498   2.125  0.00  0.00    -0.153 OA
ATOM     23  O   UNL     1      -8.315  -6.618   2.100  0.00  0.00    -0.153 OA
BRANCH  21  24
ATOM     24  N   UNL     1      -9.020  -5.616   4.246  0.00  0.00    -0.204 NA
ATOM     25  H   UNL     1      -8.453  -5.274   4.954  0.00  0.00    +0.144 HD
ATOM     26  H   UNL     1      -9.823  -6.114   4.465  0.00  0.00    +0.144 HD
ENDBRANCH  21  24
ENDBRANCH  18  21
ENDBRANCH  14  15
ENDBRANCH  13  14
ENDBRANCH  11  13
ENDBRANCH   2   9
BRANCH   1  28
ATOM     27  C   UNL     1      -1.787   2.362  -1.419  0.00  0.00    +0.010 C 
ATOM     28  C   UNL     1      -1.334   2.107   0.020  0.00  0.00    +0.051 C 
ENDBRANCH   1  28
BRANCH   7  29
ATOM     29  C   UNL     1       1.073   3.534   0.011  0.00  0.00    +0.103 C 
BRANCH  29  30
ATOM     30  C   UNL     1       1.066   4.036   1.456  0.00  0.00    -0.057 C 
BRANCH  30  36
ATOM     31  C   UNL     1       2.228   6.084   0.894  0.00  0.00    -0.079 C 
ATOM     32  C   UNL     1       2.071   7.602   0.785  0.00  0.00    -0.019 C 
ATOM     33  C   UNL     1       1.809   8.185   2.176  0.00  0.00    -0.004 C 
ATOM     34  C   UNL     1       0.559   7.529   2.768  0.00  0.00    -0.019 C 
ATOM     35  C   UNL     1       0.760   6.013   2.820  0.00  0.00    -0.079 C 
ATOM     36  N   UNL     1       0.983   5.511   1.447  0.00  0.00    +0.381 N 
ATOM     37  H   UNL     1       0.194   5.797   0.856  0.00  0.00    -0.082 HD
ENDBRANCH  30  36
ENDBRANCH  29  30
ENDBRANCH   7  29
TORSDOF 10
