REMARK  Name = ZINC65753093
REMARK  8 active torsions:
REMARK  status: ('A' for Active; 'I' for Inactive)
REMARK    1  A    between atoms: C_1  and  C_2
REMARK    2  A    between atoms: C_6  and  C_7
REMARK    3  A    between atoms: C_7  and  N_8
REMARK    4  A    between atoms: N_8  and  C_9
REMARK    5  A    between atoms: N_12  and  C_13
REMARK    6  A    between atoms: C_17  and  C_19
REMARK    7  A    between atoms: C_19  and  N_20
REMARK    8  A    between atoms: C_24  and  C_25
REMARK                            x       y       z     vdW  Elec       q    Type
REMARK                         _______ _______ _______ _____ _____    ______ ____
ROOT
ATOM      1  C   UNL     1      -4.226   1.874   2.190  0.00  0.00    +0.035 A 
ATOM      2  C   UNL     1      -3.614   2.814   1.370  0.00  0.00    +0.023 A 
ATOM      3  C   UNL     1      -4.347   3.871   0.868  0.00  0.00    +0.002 A 
ATOM      4  C   UNL     1      -5.688   3.995   1.181  0.00  0.00    +0.002 A 
ATOM      5  C   UNL     1      -6.300   3.062   1.998  0.00  0.00    -0.062 A 
ATOM      6  C   UNL     1      -5.574   1.999   2.498  0.00  0.00    +0.025 A 
ENDROOT
BRANCH   1  11
ATOM      7  N   UNL     1      -1.449  -0.083   3.419  0.00  0.00    -0.284 N 
ATOM      8  C   UNL     1      -2.074  -1.398   3.580  0.00  0.00    +0.134 C 
ATOM      9  C   UNL     1      -2.191   0.974   3.033  0.00  0.00    +0.307 C 
ATOM     10  O   UNL     1      -1.693   2.082   2.985  0.00  0.00    -0.252 OA
ATOM     11  N   UNL     1      -3.486   0.802   2.700  0.00  0.00    -0.269 N 
ATOM     12  H   UNL     1      -3.905  -0.066   2.815  0.00  0.00    +0.156 HD
BRANCH   7  13
ATOM     13  C   UNL     1      -0.016   0.084   3.677  0.00  0.00    +0.151 C 
BRANCH  13  19
ATOM     14  C   UNL     1       0.953  -2.510   2.348  0.00  0.00    +0.044 C 
ATOM     15  C   UNL     1       1.194  -1.147   1.753  0.00  0.00    -0.039 A 
ATOM     16  C   UNL     1       1.872  -1.013   0.556  0.00  0.00    +0.011 A 
ATOM     17  C   UNL     1       2.071   0.227   0.048  0.00  0.00    +0.046 A 
ATOM     18  S   UNL     1       1.290   1.260   1.278  0.00  0.00    -0.100 S 
ATOM     19  C   UNL     1       0.745  -0.033   2.382  0.00  0.00    +0.010 A 
ENDBRANCH  13  19
ENDBRANCH   7  13
ENDBRANCH   1  11
BRANCH   5  20
ATOM     20  C   UNL     1      -7.761   3.202   2.337  0.00  0.00    -0.042 C 
BRANCH  20  21
ATOM     21  N   UNL     1      -8.567   2.491   1.335  0.00  0.00    +0.390 N 
ATOM     22  C   UNL     1      -8.361   1.025   1.459  0.00  0.00    -0.077 C 
ATOM     23  C   UNL     1      -9.625   0.431   0.789  0.00  0.00    -0.020 C 
ATOM     24  C   UNL     1     -10.739   1.411   1.224  0.00  0.00    -0.008 C 
ATOM     25  C   UNL     1     -10.007   2.717   1.585  0.00  0.00    +0.019 C 
ATOM     26  H   UNL     1      -8.322   2.801   0.407  0.00  0.00    -0.080 HD
BRANCH  25  27
ATOM     27  C   UNL     1     -10.508   3.843   0.717  0.00  0.00    +0.197 C 
ATOM     28  O   UNL     1      -9.748   4.409  -0.040  0.00  0.00    -0.278 OA
ATOM     29  N   UNL     1     -11.800   4.220   0.782  0.00  0.00    -0.331 N 
ATOM     30  H   UNL     1     -12.408   3.768   1.387  0.00  0.00    +0.145 HD
ATOM     31  H   UNL     1     -12.122   4.945   0.223  0.00  0.00    +0.145 HD
ENDBRANCH  25  27
ENDBRANCH  20  21
ENDBRANCH   5  20
TORSDOF 6
