REMARK  Name = ZINC55888300
REMARK  8 active torsions:
REMARK  status: ('A' for Active; 'I' for Inactive)
REMARK    1  A    between atoms: C_1  and  C_2
REMARK    2  A    between atoms: C_5  and  N_11
REMARK    3  A    between atoms: C_7  and  N_8
REMARK    4  A    between atoms: C_12  and  C_14
REMARK    5  A    between atoms: C_14  and  N_15
REMARK    6  A    between atoms: N_15  and  C_16
REMARK    7  A    between atoms: C_21  and  N_22
REMARK    8  A    between atoms: C_25  and  O_28
REMARK                            x       y       z     vdW  Elec       q    Type
REMARK                         _______ _______ _______ _____ _____    ______ ____
ROOT
ATOM      1  N   UNL     1       0.537  -6.861  -2.563  0.00  0.00    -0.334 N 
ATOM      2  H   UNL     1       0.428  -6.229  -3.291  0.00  0.00    +0.147 HD
ENDROOT
BRANCH   1   3
ATOM      3  C   UNL     1       0.730  -8.217  -2.838  0.00  0.00    +0.047 A 
ATOM      4  C   UNL     1       0.776  -9.139  -1.800  0.00  0.00    +0.025 A 
ATOM      5  C   UNL     1       0.967 -10.478  -2.076  0.00  0.00    +0.002 A 
ATOM      6  C   UNL     1       1.112 -10.903  -3.385  0.00  0.00    +0.002 A 
ATOM      7  C   UNL     1       1.066  -9.988  -4.420  0.00  0.00    +0.023 A 
ATOM      8  C   UNL     1       0.870  -8.647  -4.152  0.00  0.00    +0.035 A 
BRANCH   8   9
ATOM      9  N   UNL     1       0.818  -7.724  -5.200  0.00  0.00    -0.392 NA
ATOM     10  C   UNL     1       2.037  -7.836  -6.010  0.00  0.00    +0.087 C 
ATOM     11  C   UNL     1       2.023  -6.773  -7.110  0.00  0.00    +0.048 C 
ATOM     12  C   UNL     1       0.795  -6.984  -8.001  0.00  0.00    +0.117 C 
ATOM     13  C   UNL     1      -0.466  -6.939  -7.134  0.00  0.00    +0.048 C 
ATOM     14  C   UNL     1      -0.360  -7.997  -6.032  0.00  0.00    +0.087 C 
ATOM     15  H   UNL     1       0.753  -6.791  -4.822  0.00  0.00    +0.126 HD
BRANCH  12  16
ATOM     16  O   UNL     1       0.735  -5.951  -8.986  0.00  0.00    -0.392 OA
ATOM     17  H   UNL     1      -0.019  -6.023  -9.586  0.00  0.00    +0.210 HD
ENDBRANCH  12  16
ENDBRANCH   8   9
ENDBRANCH   1   3
BRANCH   1  18
ATOM     18  C   UNL     1       0.500  -6.394  -1.175  0.00  0.00    +0.198 C 
BRANCH  18  20
ATOM     19  N   UNL     1       0.212  -4.250   0.024  0.00  0.00    -0.284 N 
ATOM     20  C   UNL     1       0.281  -4.903  -1.152  0.00  0.00    +0.234 C 
ATOM     21  O   UNL     1       0.168  -4.291  -2.193  0.00  0.00    -0.274 OA
ATOM     22  H   UNL     1       0.248  -4.746   0.857  0.00  0.00    +0.155 HD
BRANCH  19  27
ATOM     23  C   UNL     1      -0.288   1.400   0.107  0.00  0.00    +0.046 C 
ATOM     24  C   UNL     1      -0.156  -0.101   0.086  0.00  0.00    -0.020 A 
ATOM     25  C   UNL     1      -0.776  -0.834  -0.910  0.00  0.00    +0.007 A 
ATOM     26  C   UNL     1      -0.655  -2.209  -0.933  0.00  0.00    +0.024 A 
ATOM     27  C   UNL     1       0.089  -2.856   0.045  0.00  0.00    +0.036 A 
ATOM     28  C   UNL     1       0.710  -2.118   1.043  0.00  0.00    +0.056 A 
ATOM     29  C   UNL     1       0.591  -0.741   1.057  0.00  0.00    +0.131 A 
BRANCH  29  30
ATOM     30  N   UNL     1       1.257   0.048   2.118  0.00  0.00    +0.057 N 
ATOM     31  O   UNL     1       1.582   1.193   1.905  0.00  0.00    -0.126 OA
ATOM     32  O   UNL     1       1.477  -0.453   3.196  0.00  0.00    -0.126 OA
ENDBRANCH  29  30
ENDBRANCH  19  27
ENDBRANCH  18  20
ENDBRANCH   1  18
TORSDOF 7
