REMARK  Name = ZINC63588566
REMARK  11 active torsions:
REMARK  status: ('A' for Active; 'I' for Inactive)
REMARK    1  A    between atoms: C_1  and  C_2
REMARK    2  A    between atoms: C_6  and  N_8
REMARK    3  A    between atoms: N_10  and  C_11
REMARK    4  A    between atoms: C_11  and  C_12
REMARK    5  A    between atoms: C_12  and  C_13
REMARK    6  A    between atoms: N_22  and  C_23
REMARK    7  A    between atoms: C_23  and  C_25
REMARK    8  A    between atoms: C_27  and  O_33
REMARK    9  A    between atoms: C_29  and  O_31
REMARK   10  A    between atoms: O_31  and  C_32
REMARK   11  A    between atoms: O_33  and  C_34
REMARK                            x       y       z     vdW  Elec       q    Type
REMARK                         _______ _______ _______ _____ _____    ______ ____
ROOT
ATOM      1  N   UNL     1       0.083  -3.163   2.027  0.00  0.00    -0.328 N 
ATOM      2  C   UNL     1       0.090  -4.489   2.352  0.00  0.00    +0.194 C 
ATOM      3  N   UNL     1       0.227  -4.872   3.654  0.00  0.00    -0.357 N 
ATOM      4  N   UNL     1      -0.036  -5.404   1.403  0.00  0.00    -0.143 NA
ATOM      5  H   UNL     1       0.563  -5.757   3.866  0.00  0.00    +0.162 HD
ATOM      6  H   UNL     1      -0.577  -2.820   1.405  0.00  0.00    +0.169 HD
ENDROOT
BRANCH   1  12
ATOM      7  C   UNL     1       1.341   1.356   3.497  0.00  0.00    +0.044 C 
ATOM      8  C   UNL     1       1.665  -0.105   3.315  0.00  0.00    -0.049 A 
ATOM      9  C   UNL     1       2.899  -0.593   3.705  0.00  0.00    +0.003 A 
ATOM     10  C   UNL     1       3.200  -1.932   3.540  0.00  0.00    +0.002 A 
ATOM     11  C   UNL     1       2.268  -2.787   2.983  0.00  0.00    +0.026 A 
ATOM     12  C   UNL     1       1.028  -2.300   2.591  0.00  0.00    +0.042 A 
ATOM     13  C   UNL     1       0.727  -0.955   2.763  0.00  0.00    +0.029 A 
ENDBRANCH   1  12
BRANCH   4  14
ATOM     14  C   UNL     1      -0.219  -5.029   0.130  0.00  0.00    +0.270 C 
ATOM     15  O   UNL     1      -0.177  -3.848  -0.169  0.00  0.00    -0.268 OA
BRANCH  14  16
ATOM     16  C   UNL     1      -0.472  -6.048  -0.914  0.00  0.00    +0.046 A 
ATOM     17  C   UNL     1      -0.631  -7.387  -0.560  0.00  0.00    +0.059 A 
ATOM     18  C   UNL     1      -0.867  -8.338  -1.540  0.00  0.00    +0.124 A 
ATOM     19  C   UNL     1      -0.945  -7.959  -2.872  0.00  0.00    +0.091 A 
ATOM     20  C   UNL     1      -0.788  -6.627  -3.228  0.00  0.00    +0.124 A 
ATOM     21  C   UNL     1      -0.557  -5.670  -2.254  0.00  0.00    +0.059 A 
BRANCH  20  22
ATOM     22  O   UNL     1      -0.865  -6.261  -4.535  0.00  0.00    -0.495 OA
ATOM     23  C   UNL     1      -1.110  -7.298  -5.486  0.00  0.00    +0.277 C 
ENDBRANCH  20  22
BRANCH  18  24
ATOM     24  O   UNL     1      -1.023  -9.643  -1.195  0.00  0.00    -0.495 OA
ATOM     25  C   UNL     1      -1.264 -10.570  -2.256  0.00  0.00    +0.277 C 
ENDBRANCH  18  24
ENDBRANCH  14  16
ENDBRANCH   4  14
BRANCH   3  26
ATOM     26  C   UNL     1      -0.133  -3.946   4.731  0.00  0.00    +0.120 C 
BRANCH  26  27
ATOM     27  C   UNL     1       0.222  -4.573   6.081  0.00  0.00    +0.054 C 
BRANCH  27  28
ATOM     28  C   UNL     1      -0.259  -3.676   7.192  0.00  0.00    -0.040 C 
ATOM     29  C   UNL     1      -1.452  -3.735   7.827  0.00  0.00    -0.001 A 
ATOM     30  C   UNL     1      -2.615  -4.617   7.677  0.00  0.00    +0.010 A 
ATOM     31  C   UNL     1      -3.690  -4.426   8.474  0.00  0.00    +0.001 A 
ATOM     32  C   UNL     1      -3.722  -3.409   9.438  0.00  0.00    +0.002 A 
ATOM     33  C   UNL     1      -2.692  -2.559   9.635  0.00  0.00    +0.026 A 
ATOM     34  C   UNL     1      -1.510  -2.668   8.852  0.00  0.00    +0.043 A 
ATOM     35  N   UNL     1      -0.396  -1.977   8.852  0.00  0.00    -0.380 N 
ATOM     36  C   UNL     1       0.498  -2.531   7.829  0.00  0.00    +0.144 C 
ATOM     37  H   UNL     1      -0.195  -1.227   9.434  0.00  0.00    +0.160 HD
ENDBRANCH  27  28
ENDBRANCH  26  27
ENDBRANCH   3  26
TORSDOF 8
