REMARK  Name = ZINC47628967
REMARK  8 active torsions:
REMARK  status: ('A' for Active; 'I' for Inactive)
REMARK    1  A    between atoms: C_1  and  N_2
REMARK    2  A    between atoms: N_2  and  C_3
REMARK    3  A    between atoms: N_2  and  C_20
REMARK    4  A    between atoms: C_3  and  C_4
REMARK    5  A    between atoms: C_4  and  C_5
REMARK    6  A    between atoms: N_7  and  C_8
REMARK    7  A    between atoms: C_9  and  C_18
REMARK    8  A    between atoms: C_20  and  C_21
REMARK                            x       y       z     vdW  Elec       q    Type
REMARK                         _______ _______ _______ _____ _____    ______ ____
ROOT
ATOM      1  C   UNL     1       2.864  -0.539  -2.397  0.00  0.00    +0.216 C 
ATOM      2  O   UNL     1       2.252  -1.164  -3.237  0.00  0.00    -0.276 OA
ATOM      3  N   UNL     1       4.175  -0.280  -2.572  0.00  0.00    -0.279 N 
ATOM      4  H   UNL     1       4.665   0.219  -1.899  0.00  0.00    +0.155 HD
ENDROOT
BRANCH   3   5
ATOM      5  C   UNL     1       4.825  -0.728  -3.714  0.00  0.00    +0.090 A 
ATOM      6  C   UNL     1       6.155  -0.562  -4.056  0.00  0.00    +0.084 A 
ATOM      7  C   UNL     1       6.598  -1.130  -5.321  0.00  0.00    -0.018 A 
ATOM      8  C   UNL     1       5.620  -1.756  -6.011  0.00  0.00    -0.004 A 
ATOM      9  S   UNL     1       4.179  -1.601  -4.993  0.00  0.00    -0.077 S 
ATOM     10  C   UNL     1       5.728  -2.427  -7.345  0.00  0.00    +0.043 C 
ATOM     11  C   UNL     1       6.944  -3.362  -7.341  0.00  0.00    +0.005 C 
ATOM     12  C   UNL     1       8.167  -2.573  -7.799  0.00  0.00    +0.001 C 
ATOM     13  C   UNL     1       8.059  -1.120  -7.340  0.00  0.00    +0.005 C 
ATOM     14  C   UNL     1       8.033  -1.042  -5.817  0.00  0.00    +0.037 C 
BRANCH   6  15
ATOM     15  C   UNL     1       7.061   0.143  -3.200  0.00  0.00    +0.102 C 
ATOM     16  N   UNL     1       7.780   0.702  -2.521  0.00  0.00    -0.191 NA
ENDBRANCH   6  15
ENDBRANCH   3   5
BRANCH   1  17
ATOM     17  C   UNL     1       2.159  -0.053  -1.157  0.00  0.00    +0.077 C 
BRANCH  17  18
ATOM     18  C   UNL     1       0.690  -0.478  -1.207  0.00  0.00    -0.069 C 
BRANCH  18  20
ATOM     19  C   UNL     1      -0.018   1.465   0.010  0.00  0.00    -0.096 C 
ATOM     20  N   UNL     1       0.002  -0.004   0.002  0.00  0.00    +0.384 N 
ATOM     21  H   UNL     1       0.490  -0.338   0.820  0.00  0.00    -0.082 HD
BRANCH  20  22
ATOM     22  C   UNL     1      -1.376  -0.512   0.012  0.00  0.00    +0.018 C 
BRANCH  22  23
ATOM     23  C   UNL     1      -2.043  -0.130   1.309  0.00  0.00    +0.194 C 
ATOM     24  O   UNL     1      -1.430   0.504   2.142  0.00  0.00    -0.278 OA
ATOM     25  N   UNL     1      -3.320  -0.492   1.542  0.00  0.00    -0.331 N 
ATOM     26  H   UNL     1      -3.810  -0.999   0.876  0.00  0.00    +0.145 HD
ATOM     27  H   UNL     1      -3.749  -0.246   2.376  0.00  0.00    +0.145 HD
ENDBRANCH  22  23
ENDBRANCH  20  22
ENDBRANCH  18  20
ENDBRANCH  17  18
ENDBRANCH   1  17
TORSDOF 7
