REMARK  Name = ZINC17147391
REMARK  7 active torsions:
REMARK  status: ('A' for Active; 'I' for Inactive)
REMARK    1  A    between atoms: C_1  and  C_2
REMARK    2  A    between atoms: C_2  and  O_3
REMARK    3  A    between atoms: O_3  and  C_4
REMARK    4  A    between atoms: C_6  and  C_12
REMARK    5  A    between atoms: C_9  and  O_10
REMARK    6  A    between atoms: C_23  and  N_46
REMARK    7  A    between atoms: C_24  and  O_26
REMARK                            x       y       z     vdW  Elec       q    Type
REMARK                         _______ _______ _______ _____ _____    ______ ____
ROOT
ATOM      1  C   UNL     1       3.715  -0.703  -0.037  0.00  0.00    +0.224 C 
ATOM      2  N   UNL     1       4.730   0.113   0.654  0.00  0.00    -0.313 N 
ATOM      3  C   UNL     1       4.782  -0.008   2.022  0.00  0.00    +0.080 A 
ATOM      4  C   UNL     1       4.327  -1.152   2.692  0.00  0.00    +0.067 A 
ATOM      5  C   UNL     1       4.458  -1.131   4.136  0.00  0.00    -0.027 A 
ATOM      6  C   UNL     1       4.997  -0.005   4.661  0.00  0.00    -0.021 A 
ATOM      7  S   UNL     1       5.338   1.030   3.264  0.00  0.00    -0.080 S 
ATOM      8  C   UNL     1       5.238   0.275   6.111  0.00  0.00    -0.036 C 
ATOM      9  C   UNL     1       4.719  -2.073   6.410  0.00  0.00    -0.074 C 
ATOM     10  C   UNL     1       4.034  -2.271   5.056  0.00  0.00    +0.018 C 
ATOM     11  C   UNL     1       4.803  -0.601   8.332  0.00  0.00    -0.096 C 
ATOM     12  C   UNL     1       3.763  -2.247   1.862  0.00  0.00    +0.220 C 
ATOM     13  N   UNL     1       3.542  -2.002   0.600  0.00  0.00    -0.223 NA
ATOM     14  H   UNL     1       5.329   0.703   0.170  0.00  0.00    +0.149 HD
ATOM     15  N   UNL     1       4.451  -0.705   6.899  0.00  0.00    +0.381 N 
ATOM     16  H   UNL     1       3.451  -0.499   6.786  0.00  0.00    -0.082 HD
ENDROOT
BRANCH   1  19
ATOM     17  C   UNL     1       0.002  -0.004   0.002  0.00  0.00    +0.163 A 
ATOM     18  C   UNL     1       1.213  -0.678  -0.013  0.00  0.00    +0.056 A 
ATOM     19  C   UNL     1       2.399   0.032  -0.021  0.00  0.00    -0.001 A 
ATOM     20  C   UNL     1       2.381   1.415  -0.013  0.00  0.00    +0.026 A 
ATOM     21  C   UNL     1       1.176   2.093   0.002  0.00  0.00    +0.063 A 
ATOM     22  C   UNL     1      -0.017   1.387   0.010  0.00  0.00    +0.173 A 
ATOM     23 BR   UNL     1       1.156   3.984   0.013  0.00  0.00    -0.046 Br
BRANCH  22  24
ATOM     24  O   UNL     1      -1.203   2.053   0.019  0.00  0.00    -0.503 OA
ATOM     25  H   UNL     1      -1.542   2.240   0.905  0.00  0.00    +0.292 HD
ENDBRANCH  22  24
BRANCH  17  26
ATOM     26  O   UNL     1      -1.165  -0.701   0.010  0.00  0.00    -0.489 OA
BRANCH  26  28
ATOM     27  C   UNL     1      -2.475  -2.733   0.012  0.00  0.00    +0.048 C 
ATOM     28  C   UNL     1      -1.070  -2.127   0.001  0.00  0.00    +0.226 C 
ENDBRANCH  26  28
ENDBRANCH  17  26
ENDBRANCH   1  19
BRANCH  12  29
ATOM     29  O   UNL     1       3.486  -3.458   2.398  0.00  0.00    -0.492 OA
ATOM     30  H   UNL     1       3.122  -4.094   1.766  0.00  0.00    +0.294 HD
ENDBRANCH  12  29
TORSDOF 5
