REMARK  Name = ZINC66464376
REMARK  10 active torsions:
REMARK  status: ('A' for Active; 'I' for Inactive)
REMARK    1  A    between atoms: C_1  and  N_2
REMARK    2  A    between atoms: N_2  and  C_3
REMARK    3  A    between atoms: N_2  and  C_4
REMARK    4  A    between atoms: C_4  and  C_5
REMARK    5  A    between atoms: C_5  and  N_6
REMARK    6  A    between atoms: C_7  and  C_9
REMARK    7  A    between atoms: C_13  and  C_15
REMARK    8  A    between atoms: C_15  and  N_16
REMARK    9  A    between atoms: C_17  and  C_19
REMARK   10  A    between atoms: C_24  and  O_25
REMARK                            x       y       z     vdW  Elec       q    Type
REMARK                         _______ _______ _______ _____ _____    ______ ____
ROOT
ATOM      1  C   UNL     1       4.848  -0.743  -3.754  0.00  0.00    +0.037 A 
ATOM      2  C   UNL     1       4.145  -1.457  -4.726  0.00  0.00    +0.013 A 
ATOM      3  C   UNL     1       4.796  -1.899  -5.859  0.00  0.00    +0.001 A 
ATOM      4  C   UNL     1       6.144  -1.636  -6.032  0.00  0.00    +0.005 A 
ATOM      5  C   UNL     1       6.846  -0.929  -5.073  0.00  0.00    -0.030 A 
ATOM      6  C   UNL     1       6.205  -0.477  -3.938  0.00  0.00    +0.018 A 
ENDROOT
BRANCH   1   8
ATOM      7  N   UNL     1       2.845  -0.526  -2.362  0.00  0.00    -0.313 N 
ATOM      8  C   UNL     1       4.155  -0.267  -2.537  0.00  0.00    +0.244 C 
ATOM      9  O   UNL     1       4.769   0.359  -1.695  0.00  0.00    -0.270 OA
ATOM     10  H   UNL     1       2.355  -1.025  -3.035  0.00  0.00    +0.149 HD
BRANCH   7  11
ATOM     11  C   UNL     1       2.159  -0.053  -1.157  0.00  0.00    +0.086 C 
BRANCH  11  12
ATOM     12  C   UNL     1       0.690  -0.478  -1.207  0.00  0.00    -0.061 C 
BRANCH  12  14
ATOM     13  C   UNL     1      -0.018   1.465   0.010  0.00  0.00    -0.097 C 
ATOM     14  N   UNL     1       0.002  -0.004   0.002  0.00  0.00    +0.377 N 
ATOM     15  C   UNL     1      -1.376  -0.512   0.012  0.00  0.00    -0.097 C 
ATOM     16  H   UNL     1       0.490  -0.338   0.820  0.00  0.00    -0.083 HD
ENDBRANCH  12  14
ENDBRANCH  11  12
ENDBRANCH   7  11
ENDBRANCH   1   8
BRANCH   5  17
ATOM     17  C   UNL     1       8.313  -0.648  -5.270  0.00  0.00    +0.139 C 
BRANCH  17  18
ATOM     18  N   UNL     1       8.476   0.625  -5.976  0.00  0.00    -0.307 N 
ATOM     19  C   UNL     1       9.710   1.084  -6.264  0.00  0.00    +0.248 C 
ATOM     20  O   UNL     1      10.689   0.440  -5.938  0.00  0.00    -0.270 OA
ATOM     21  H   UNL     1       7.695   1.139  -6.236  0.00  0.00    +0.149 HD
BRANCH  19  22
ATOM     22  C   UNL     1       9.874   2.366  -6.975  0.00  0.00    +0.079 A 
ATOM     23  C   UNL     1       8.752   3.111  -7.346  0.00  0.00    +0.036 A 
ATOM     24  C   UNL     1       8.912   4.309  -8.011  0.00  0.00    +0.042 A 
ATOM     25  C   UNL     1      10.182   4.777  -8.312  0.00  0.00    +0.023 A 
ATOM     26  C   UNL     1      11.298   4.050  -7.950  0.00  0.00    +0.047 A 
ATOM     27  C   UNL     1      11.155   2.846  -7.277  0.00  0.00    +0.129 A 
ATOM     28 CL   UNL     1       7.518   5.234  -8.472  0.00  0.00    -0.084 Cl
BRANCH  27  29
ATOM     29  O   UNL     1      12.252   2.133  -6.915  0.00  0.00    -0.506 OA
ATOM     30  H   UNL     1      12.547   1.500  -7.584  0.00  0.00    +0.292 HD
ENDBRANCH  27  29
ENDBRANCH  19  22
ENDBRANCH  17  18
ENDBRANCH   5  17
TORSDOF 8
