REMARK  Name = ZINC39664128
REMARK  11 active torsions:
REMARK  status: ('A' for Active; 'I' for Inactive)
REMARK    1  A    between atoms: C_1  and  O_2
REMARK    2  A    between atoms: O_2  and  C_3
REMARK    3  A    between atoms: C_6  and  C_9
REMARK    4  A    between atoms: C_9  and  C_11
REMARK    5  A    between atoms: C_9  and  N_32
REMARK    6  A    between atoms: C_11  and  N_12
REMARK    7  A    between atoms: C_13  and  C_15
REMARK    8  A    between atoms: C_26  and  C_28
REMARK    9  A    between atoms: C_28  and  C_29
REMARK   10  A    between atoms: C_29  and  S_30
REMARK   11  A    between atoms: S_30  and  C_31
REMARK                            x       y       z     vdW  Elec       q    Type
REMARK                         _______ _______ _______ _____ _____    ______ ____
ROOT
ATOM      1  N   UNL     1      -6.096  -4.694   2.432  0.00  0.00    -0.316 N 
ATOM      2  C   UNL     1      -7.298  -4.157   2.719  0.00  0.00    +0.218 C 
ATOM      3  O   UNL     1      -7.377  -2.998   3.068  0.00  0.00    -0.275 OA
ATOM      4  H   UNL     1      -6.033  -5.621   2.153  0.00  0.00    +0.149 HD
ENDROOT
BRANCH   2   5
ATOM      5  C   UNL     1      -8.545  -4.996   2.606  0.00  0.00    +0.100 C 
ATOM      6  C   UNL     1      -9.771  -4.101   2.317  0.00  0.00    +0.121 C 
ATOM      7  N   UNL     1     -10.875  -4.718   3.091  0.00  0.00    -0.300 N 
ATOM      8  C   UNL     1     -10.243  -5.138   4.364  0.00  0.00    +0.115 C 
ATOM      9  C   UNL     1      -8.858  -5.674   3.950  0.00  0.00    -0.004 C 
ATOM     10  C   UNL     1      -7.811  -5.290   4.992  0.00  0.00    -0.010 C 
ATOM     11  C   UNL     1      -8.111  -6.022   6.303  0.00  0.00    -0.082 C 
ATOM     12  N   UNL     1      -8.092  -7.472   6.072  0.00  0.00    +0.379 N 
ATOM     13  C   UNL     1      -9.162  -7.844   5.139  0.00  0.00    -0.082 C 
ATOM     14  C   UNL     1      -8.908  -7.189   3.779  0.00  0.00    -0.010 C 
ATOM     15  C   UNL     1     -12.162  -4.864   2.719  0.00  0.00    +0.216 C 
ATOM     16  O   UNL     1     -12.953  -5.395   3.470  0.00  0.00    -0.276 OA
ATOM     17  H   UNL     1      -7.200  -7.737   5.681  0.00  0.00    -0.086 HD
ATOM     18  H   UNL     1      -8.229  -7.953   6.948  0.00  0.00    -0.086 HD
BRANCH  15  19
ATOM     19  C   UNL     1     -12.618  -4.370   1.371  0.00  0.00    +0.106 C 
BRANCH  19  20
ATOM     20  C   UNL     1     -14.112  -4.657   1.201  0.00  0.00    +0.078 C 
BRANCH  20  21
ATOM     21  S   UNL     1     -14.661  -4.061  -0.422  0.00  0.00    -0.164 S 
ATOM     22  C   UNL     1     -16.427  -4.472  -0.465  0.00  0.00    +0.084 C 
ENDBRANCH  20  21
ENDBRANCH  19  20
ENDBRANCH  15  19
ENDBRANCH   2   5
BRANCH   1  23
ATOM     23  C   UNL     1      -4.884  -3.879   2.542  0.00  0.00    +0.093 C 
BRANCH  23  24
ATOM     24  C   UNL     1      -3.683  -4.679   2.035  0.00  0.00    -0.020 C 
BRANCH  24  28
ATOM     25  C   UNL     1      -4.139  -5.434  -2.147  0.00  0.00    +0.120 A 
ATOM     26  C   UNL     1      -4.452  -6.422  -1.224  0.00  0.00    +0.046 A 
ATOM     27  C   UNL     1      -4.303  -6.176   0.127  0.00  0.00    +0.005 A 
ATOM     28  C   UNL     1      -3.844  -4.946   0.560  0.00  0.00    -0.059 A 
ATOM     29  C   UNL     1      -3.532  -3.959  -0.357  0.00  0.00    +0.005 A 
ATOM     30  C   UNL     1      -3.673  -4.203  -1.710  0.00  0.00    +0.046 A 
BRANCH  25  32
ATOM     31  C   UNL     1      -4.770  -6.965  -3.853  0.00  0.00    +0.277 C 
ATOM     32  O   UNL     1      -4.284  -5.675  -3.476  0.00  0.00    -0.495 OA
ENDBRANCH  25  32
ENDBRANCH  24  28
BRANCH  24  33
ATOM     33  N   UNL     1      -2.451  -3.911   2.262  0.00  0.00    +0.385 N 
ATOM     34  C   UNL     1      -2.254  -3.678   3.716  0.00  0.00    -0.078 C 
ATOM     35  C   UNL     1      -0.735  -3.398   3.827  0.00  0.00    -0.020 C 
ATOM     36  C   UNL     1      -0.127  -4.372   2.792  0.00  0.00    -0.020 C 
ATOM     37  C   UNL     1      -1.275  -4.689   1.816  0.00  0.00    -0.078 C 
ATOM     38  H   UNL     1      -2.494  -3.031   1.770  0.00  0.00    -0.081 HD
ENDBRANCH  24  33
ENDBRANCH  23  24
ENDBRANCH   1  23
TORSDOF 9
