REMARK  Name = ZINC18992682
REMARK  10 active torsions:
REMARK  status: ('A' for Active; 'I' for Inactive)
REMARK    1  A    between atoms: C_1  and  C_2
REMARK    2  A    between atoms: C_2  and  O_3
REMARK    3  A    between atoms: O_3  and  C_4
REMARK    4  A    between atoms: N_6  and  C_7
REMARK    5  A    between atoms: C_11  and  C_18
REMARK    6  A    between atoms: C_18  and  S_19
REMARK    7  A    between atoms: S_19  and  C_20
REMARK    8  A    between atoms: N_21  and  C_22
REMARK    9  A    between atoms: C_22  and  C_23
REMARK   10  A    between atoms: C_22  and  C_24
REMARK                            x       y       z     vdW  Elec       q    Type
REMARK                         _______ _______ _______ _____ _____    ______ ____
ROOT
ATOM      1  C   UNL     1       1.448  -3.669  -2.677  0.00  0.00    +0.040 A 
ATOM      2  C   UNL     1       0.837  -4.561  -1.796  0.00  0.00    +0.024 A 
ATOM      3  C   UNL     1       0.880  -5.904  -2.032  0.00  0.00    +0.013 A 
ATOM      4  C   UNL     1       1.540  -6.391  -3.167  0.00  0.00    +0.022 A 
ATOM      5  C   UNL     1       1.601  -7.827  -3.446  0.00  0.00    -0.020 A 
ATOM      6  C   UNL     1       2.256  -8.236  -4.564  0.00  0.00    +0.097 A 
ATOM      7  C   UNL     1       2.852  -7.284  -5.415  0.00  0.00    +0.338 A 
ATOM      8  O   UNL     1       3.436  -7.665  -6.414  0.00  0.00    -0.245 OA
ATOM      9  O   UNL     1       2.793  -5.969  -5.154  0.00  0.00    -0.422 OA
ATOM     10  C   UNL     1       2.158  -5.496  -4.061  0.00  0.00    +0.141 A 
ATOM     11  C   UNL     1       2.101  -4.133  -3.809  0.00  0.00    +0.070 A 
ENDROOT
BRANCH   1  14
ATOM     12  C   UNL     1       2.428  -1.507  -2.774  0.00  0.00    +0.405 C 
ATOM     13  O   UNL     1       3.443  -1.999  -3.225  0.00  0.00    -0.226 OA
ATOM     14  N   UNL     1       1.395  -2.298  -2.422  0.00  0.00    -0.251 N 
ATOM     15  H   UNL     1       0.615  -1.915  -1.991  0.00  0.00    +0.158 HD
BRANCH  12  16
ATOM     16  O   UNL     1       2.334  -0.172  -2.626  0.00  0.00    -0.450 OA
BRANCH  16  18
ATOM     17  C   UNL     1       3.175   2.088  -2.780  0.00  0.00    +0.048 C 
ATOM     18  C   UNL     1       3.467   0.605  -3.020  0.00  0.00    +0.230 C 
ENDBRANCH  16  18
ENDBRANCH  12  16
ENDBRANCH   1  14
BRANCH   5  19
ATOM     19  C   UNL     1       0.955  -8.823  -2.518  0.00  0.00    +0.113 C 
BRANCH  19  20
ATOM     20  S   UNL     1       1.966  -9.000  -1.022  0.00  0.00    -0.088 S 
BRANCH  20  21
ATOM     21  C   UNL     1       1.089 -10.182  -0.053  0.00  0.00    +0.126 C 
ATOM     22  N   UNL     1       1.554 -10.544   1.111  0.00  0.00    -0.366 N 
ATOM     23  N   UNL     1      -0.085 -10.723  -0.524  0.00  0.00    -0.339 N 
ATOM     24  H   UNL     1      -0.430 -10.454  -1.389  0.00  0.00    +0.144 HD
ATOM     25  H   UNL     1      -0.568 -11.373   0.010  0.00  0.00    +0.144 HD
ATOM     26  H   UNL     1       2.381 -10.163   1.442  0.00  0.00    +0.162 HD
BRANCH  22  27
ATOM     27  C   UNL     1       0.825 -11.527   1.917  0.00  0.00    +0.075 C 
ATOM     28  C   UNL     1       1.223 -12.939   1.482  0.00  0.00    +0.030 C 
ATOM     29  C   UNL     1       1.170 -11.332   3.394  0.00  0.00    +0.030 C 
ENDBRANCH  22  27
ENDBRANCH  20  21
ENDBRANCH  19  20
ENDBRANCH   5  19
TORSDOF 7
