REMARK  Name = ZINC35871459
REMARK  9 active torsions:
REMARK  status: ('A' for Active; 'I' for Inactive)
REMARK    1  A    between atoms: C_1  and  C_2
REMARK    2  A    between atoms: C_2  and  C_3
REMARK    3  A    between atoms: C_3  and  C_5
REMARK    4  A    between atoms: C_3  and  N_6
REMARK    5  A    between atoms: C_7  and  C_9
REMARK    6  A    between atoms: C_14  and  C_33
REMARK    7  A    between atoms: N_22  and  C_25
REMARK    8  A    between atoms: C_25  and  C_26
REMARK    9  A    between atoms: C_26  and  C_27
REMARK                            x       y       z     vdW  Elec       q    Type
REMARK                         _______ _______ _______ _____ _____    ______ ____
ROOT
ATOM      1  C   UNL     1      -4.140   0.357  -2.544  0.00  0.00    +0.098 C 
ATOM      2  C   UNL     1      -3.764  -0.639  -3.620  0.00  0.00    +0.051 C 
ATOM      3  C   UNL     1      -4.510  -1.933  -3.478  0.00  0.00    -0.025 A 
ATOM      4  C   UNL     1      -3.932  -3.112  -3.915  0.00  0.00    +0.017 A 
ATOM      5  C   UNL     1      -4.613  -4.308  -3.790  0.00  0.00    +0.055 A 
ATOM      6  C   UNL     1      -5.877  -4.331  -3.228  0.00  0.00    +0.014 A 
ATOM      7  C   UNL     1      -6.460  -3.159  -2.789  0.00  0.00    +0.024 A 
ATOM      8  C   UNL     1      -5.776  -1.954  -2.912  0.00  0.00    +0.033 A 
ATOM      9  N   UNL     1      -6.360  -0.778  -2.460  0.00  0.00    -0.329 N 
ATOM     10  C   UNL     1      -5.616   0.457  -2.276  0.00  0.00    +0.069 C 
ATOM     11  C   UNL     1      -6.282   1.561  -3.099  0.00  0.00    -0.055 C 
ATOM     12  N   UNL     1      -7.699   1.652  -2.719  0.00  0.00    +0.382 N 
ATOM     13  C   UNL     1      -8.397   0.399  -3.030  0.00  0.00    -0.060 C 
ATOM     14  C   UNL     1      -7.812  -0.736  -2.188  0.00  0.00    +0.087 C 
ATOM     15  H   UNL     1      -7.766   1.834  -1.728  0.00  0.00    -0.082 HD
ENDROOT
BRANCH   1  17
ATOM     16  N   UNL     1      -2.105  -0.148  -1.230  0.00  0.00    -0.312 N 
ATOM     17  C   UNL     1      -3.448  -0.040  -1.265  0.00  0.00    +0.218 C 
ATOM     18  O   UNL     1      -4.100  -0.261  -0.267  0.00  0.00    -0.275 OA
ATOM     19  H   UNL     1      -1.584   0.029  -2.029  0.00  0.00    +0.149 HD
BRANCH  16  20
ATOM     20  C   UNL     1      -1.433  -0.534   0.013  0.00  0.00    +0.070 C 
ATOM     21  C   UNL     1      -1.413  -2.059   0.130  0.00  0.00    +0.028 C 
BRANCH  20  23
ATOM     22  C   UNL     1      -0.019   1.526   0.010  0.00  0.00    +0.005 C 
ATOM     23  C   UNL     1       0.002  -0.004   0.002  0.00  0.00    +0.018 C 
ENDBRANCH  20  23
ENDBRANCH  16  20
ENDBRANCH   1  17
BRANCH   5  24
ATOM     24  C   UNL     1      -3.978  -5.588  -4.266  0.00  0.00    +0.417 C 
ATOM     25  F   UNL     1      -3.248  -6.164  -3.221  0.00  0.00    -0.166 F 
ATOM     26  F   UNL     1      -4.975  -6.477  -4.683  0.00  0.00    -0.166 F 
ATOM     27  F   UNL     1      -3.121  -5.313  -5.337  0.00  0.00    -0.166 F 
ENDBRANCH   5  24
BRANCH  12  28
ATOM     28  C   UNL     1      -8.329   2.754  -3.457  0.00  0.00    -0.074 C 
BRANCH  28  29
ATOM     29  C   UNL     1      -9.770   2.934  -2.974  0.00  0.00    +0.016 C 
BRANCH  29  30
ATOM     30  C   UNL     1     -10.416   4.065  -3.732  0.00  0.00    -0.049 A 
ATOM     31  C   UNL     1     -10.332   5.358  -3.249  0.00  0.00    +0.003 A 
ATOM     32  C   UNL     1     -10.925   6.395  -3.944  0.00  0.00    +0.000 A 
ATOM     33  C   UNL     1     -11.601   6.140  -5.122  0.00  0.00    +0.000 A 
ATOM     34  C   UNL     1     -11.685   4.848  -5.605  0.00  0.00    +0.000 A 
ATOM     35  C   UNL     1     -11.088   3.811  -4.913  0.00  0.00    +0.003 A 
ENDBRANCH  29  30
ENDBRANCH  28  29
ENDBRANCH  12  28
TORSDOF 7
