REMARK  Name = ZINC46427797
REMARK  8 active torsions:
REMARK  status: ('A' for Active; 'I' for Inactive)
REMARK    1  A    between atoms: C_1  and  C_2
REMARK    2  A    between atoms: C_5  and  C_28
REMARK    3  A    between atoms: N_8  and  C_10
REMARK    4  A    between atoms: C_10  and  C_11
REMARK    5  A    between atoms: C_11  and  C_12
REMARK    6  A    between atoms: C_12  and  N_13
REMARK    7  A    between atoms: N_16  and  N_17
REMARK    8  A    between atoms: C_18  and  C_20
REMARK                            x       y       z     vdW  Elec       q    Type
REMARK                         _______ _______ _______ _____ _____    ______ ____
ROOT
ATOM      1  N   UNL     1       5.198  -2.115   3.294  0.00  0.00    -0.298 N 
ATOM      2  C   UNL     1       6.100  -2.446   4.238  0.00  0.00    +0.316 C 
ATOM      3  O   UNL     1       5.755  -3.090   5.210  0.00  0.00    -0.251 OA
ATOM      4  N   UNL     1       7.386  -2.065   4.106  0.00  0.00    -0.218 N 
ATOM      5  H   UNL     1       5.474  -1.601   2.519  0.00  0.00    +0.150 HD
ATOM      6  H   UNL     1       8.036  -2.304   4.785  0.00  0.00    +0.174 HD
ENDROOT
BRANCH   4   7
ATOM      7  N   UNL     1       7.785  -1.323   2.986  0.00  0.00    -0.233 N 
ATOM      8  C   UNL     1       9.070  -0.942   2.853  0.00  0.00    +0.234 C 
ATOM      9  O   UNL     1       9.883  -1.240   3.703  0.00  0.00    -0.274 OA
ATOM     10  H   UNL     1       7.135  -1.085   2.306  0.00  0.00    +0.173 HD
BRANCH   8  11
ATOM     11  C   UNL     1       9.499  -0.144   1.648  0.00  0.00    +0.099 C 
ATOM     12  C   UNL     1       9.252  -0.962   0.369  0.00  0.00    +0.037 C 
ATOM     13  C   UNL     1       9.973  -0.298  -0.829  0.00  0.00    +0.166 C 
ATOM     14  S   UNL     1      11.390   0.556  -0.024  0.00  0.00    -0.030 S 
ATOM     15  O   UNL     1      11.260   1.957  -0.225  0.00  0.00    -0.174 OA
ATOM     16  O   UNL     1      12.596  -0.095  -0.400  0.00  0.00    -0.174 OA
ATOM     17  C   UNL     1      11.021   0.166   1.738  0.00  0.00    +0.178 C 
ENDBRANCH   8  11
ENDBRANCH   4   7
BRANCH   1  18
ATOM     18  C   UNL     1       3.800  -2.529   3.438  0.00  0.00    +0.104 C 
BRANCH  18  19
ATOM     19  C   UNL     1       2.993  -2.028   2.239  0.00  0.00    +0.000 C 
BRANCH  19  20
ATOM     20  C   UNL     1       1.534  -2.461   2.390  0.00  0.00    -0.077 C 
BRANCH  20  26
ATOM     21  C   UNL     1      -0.019   1.526   0.010  0.00  0.00    +0.005 C 
ATOM     22  C   UNL     1       0.002  -0.004   0.002  0.00  0.00    -0.031 C 
ATOM     23  C   UNL     1      -1.434  -0.535   0.015  0.00  0.00    +0.003 C 
ATOM     24  C   UNL     1      -1.402  -2.064   0.086  0.00  0.00    -0.031 C 
ATOM     25  C   UNL     1      -0.613  -2.496   1.324  0.00  0.00    -0.076 C 
ATOM     26  N   UNL     1       0.758  -1.980   1.239  0.00  0.00    +0.380 N 
ATOM     27  C   UNL     1       0.740  -0.512   1.242  0.00  0.00    -0.076 C 
ATOM     28  C   UNL     1      -2.832  -2.602   0.177  0.00  0.00    +0.005 C 
ATOM     29  H   UNL     1       1.188  -2.307   0.386  0.00  0.00    -0.082 HD
ENDBRANCH  20  26
ENDBRANCH  19  20
ENDBRANCH  18  19
ENDBRANCH   1  18
TORSDOF 6
