REMARK  Name = ZINC07589932
REMARK  10 active torsions:
REMARK  status: ('A' for Active; 'I' for Inactive)
REMARK    1  A    between atoms: C_1  and  C_2
REMARK    2  A    between atoms: C_2  and  C_3
REMARK    3  A    between atoms: C_3  and  C_5
REMARK    4  A    between atoms: C_3  and  C_6
REMARK    5  A    between atoms: C_11  and  N_12
REMARK    6  A    between atoms: C_13  and  C_15
REMARK    7  A    between atoms: C_15  and  C_17
REMARK    8  A    between atoms: C_15  and  N_59
REMARK    9  A    between atoms: N_20  and  C_23
REMARK   10  A    between atoms: C_26  and  O_29
REMARK                            x       y       z     vdW  Elec       q    Type
REMARK                         _______ _______ _______ _____ _____    ______ ____
ROOT
ATOM      1  C   UNL     1      -1.330   2.080   0.033  0.00  0.00    +0.017 C 
ATOM      2  C   UNL     1      -2.114   1.690   1.288  0.00  0.00    -0.004 C 
ENDROOT
BRANCH   1   8
ATOM      3  C   UNL     1      -0.327   3.925   1.239  0.00  0.00    -0.059 C 
ATOM      4  C   UNL     1      -0.019   5.423   1.172  0.00  0.00    +0.086 C 
ATOM      5  N   UNL     1      -1.278   6.174   1.072  0.00  0.00    -0.333 N 
ATOM      6  C   UNL     1      -2.032   5.777  -0.125  0.00  0.00    +0.086 C 
ATOM      7  C   UNL     1      -2.340   4.280  -0.058  0.00  0.00    -0.059 C 
ATOM      8  N   UNL     1      -1.065   3.535   0.020  0.00  0.00    +0.389 N 
ATOM      9  H   UNL     1      -0.495   3.762  -0.803  0.00  0.00    -0.081 HD
BRANCH   5  10
ATOM     10  C   UNL     1      -1.041   7.553   1.081  0.00  0.00    +0.030 A 
ATOM     11  C   UNL     1      -1.500   8.344   0.035  0.00  0.00    +0.026 A 
ATOM     12  C   UNL     1      -1.270   9.706   0.048  0.00  0.00    +0.047 A 
ATOM     13  C   UNL     1      -0.570  10.282   1.097  0.00  0.00    +0.117 A 
ATOM     14  C   UNL     1      -0.106   9.492   2.139  0.00  0.00    +0.047 A 
ATOM     15  C   UNL     1      -0.340   8.131   2.131  0.00  0.00    +0.026 A 
BRANCH  13  16
ATOM     16  O   UNL     1      -0.339  11.622   1.105  0.00  0.00    -0.507 OA
ATOM     17  H   UNL     1       0.486  11.882   0.673  0.00  0.00    +0.292 HD
ENDBRANCH  13  16
ENDBRANCH   5  10
ENDBRANCH   1   8
BRANCH   1  19
ATOM     18  N   UNL     1       0.002  -0.004   0.001  0.00  0.00    -0.287 N 
ATOM     19  C   UNL     1      -0.015   1.344   0.013  0.00  0.00    +0.203 C 
ATOM     20  O   UNL     1       1.027   1.964   0.001  0.00  0.00    -0.277 OA
ATOM     21  H   UNL     1      -0.828  -0.500   0.077  0.00  0.00    +0.155 HD
BRANCH  18  27
ATOM     22  C   UNL     1       1.278  -1.879  -0.827  0.00  0.00    -0.023 A 
ATOM     23  C   UNL     1       2.480  -2.551  -0.944  0.00  0.00    +0.006 A 
ATOM     24  C   UNL     1       3.621  -2.037  -0.357  0.00  0.00    +0.000 A 
ATOM     25  C   UNL     1       3.564  -0.849   0.348  0.00  0.00    +0.002 A 
ATOM     26  C   UNL     1       2.367  -0.169   0.464  0.00  0.00    +0.023 A 
ATOM     27  C   UNL     1       1.218  -0.686  -0.119  0.00  0.00    +0.037 A 
BRANCH  22  28
ATOM     28  C   UNL     1       0.035  -2.441  -1.467  0.00  0.00    +0.017 C 
ATOM     29  C   UNL     1       0.289  -2.674  -2.958  0.00  0.00    +0.012 C 
BRANCH  28  31
ATOM     30  C   UNL     1      -1.658  -4.276  -1.361  0.00  0.00    +0.004 C 
ATOM     31  C   UNL     1      -0.329  -3.768  -0.798  0.00  0.00    +0.004 C 
ENDBRANCH  28  31
ENDBRANCH  22  28
ENDBRANCH  18  27
ENDBRANCH   1  19
TORSDOF 7
