REMARK  Name = ZINC59169473
REMARK  13 active torsions:
REMARK  status: ('A' for Active; 'I' for Inactive)
REMARK    1  A    between atoms: C_1  and  C_2
REMARK    2  A    between atoms: C_2  and  C_3
REMARK    3  A    between atoms: C_7  and  C_30
REMARK    4  A    between atoms: C_8  and  N_9
REMARK    5  A    between atoms: N_9  and  C_10
REMARK    6  A    between atoms: C_10  and  N_12
REMARK    7  A    between atoms: N_12  and  C_13
REMARK    8  A    between atoms: N_12  and  C_20
REMARK    9  A    between atoms: C_13  and  C_14
REMARK   10  A    between atoms: C_22  and  C_28
REMARK   11  A    between atoms: C_22  and  C_29
REMARK   12  A    between atoms: C_24  and  C_26
REMARK   13  A    between atoms: C_24  and  C_27
REMARK                            x       y       z     vdW  Elec       q    Type
REMARK                         _______ _______ _______ _____ _____    ______ ____
ROOT
ATOM      1  N   UNL     1      -1.408  -0.405  -4.651  0.00  0.00    -0.304 N 
ENDROOT
BRANCH   1   2
ATOM      2  C   UNL     1      -0.169   0.374  -4.779  0.00  0.00    +0.073 C 
ATOM      3  C   UNL     1      -0.319   1.687  -4.010  0.00  0.00    +0.009 C 
ATOM      4  C   UNL     1       0.967   2.504  -4.124  0.00  0.00    -0.072 C 
ATOM      5  N   UNL     1       2.138   1.745  -3.709  0.00  0.00    +0.386 N 
ATOM      6  C   UNL     1       2.281   0.392  -4.222  0.00  0.00    -0.072 C 
ATOM      7  C   UNL     1       0.987  -0.414  -4.164  0.00  0.00    +0.009 C 
ATOM      8  C   UNL     1       2.839   0.382  -5.647  0.00  0.00    -0.010 C 
ATOM      9  C   UNL     1       3.314  -0.336  -3.328  0.00  0.00    -0.010 C 
ATOM     10  C   UNL     1       0.831   3.711  -3.167  0.00  0.00    -0.010 C 
ATOM     11  C   UNL     1       1.115   3.062  -5.539  0.00  0.00    -0.010 C 
ATOM     12  H   UNL     1       2.973   2.277  -3.966  0.00  0.00    -0.084 HD
ATOM     13  H   UNL     1       2.148   1.705  -2.687  0.00  0.00    -0.084 HD
ENDBRANCH   1   2
BRANCH   1  14
ATOM     14  C   UNL     1      -1.749  -0.935  -3.459  0.00  0.00    +0.138 C 
ATOM     15  S   UNL     1      -3.072  -2.016  -3.352  0.00  0.00    -0.018 S 
BRANCH  14  16
ATOM     16  N   UNL     1      -1.049  -0.615  -2.353  0.00  0.00    -0.296 N 
ATOM     17  H   UNL     1      -0.341  -1.199  -2.041  0.00  0.00    +0.154 HD
BRANCH  16  23
ATOM     18  C   UNL     1      -2.637   1.068  -1.661  0.00  0.00    -0.026 A 
ATOM     19  C   UNL     1      -2.926   2.226  -0.966  0.00  0.00    +0.005 A 
ATOM     20  C   UNL     1      -1.929   2.883  -0.269  0.00  0.00    +0.001 A 
ATOM     21  C   UNL     1      -0.639   2.383  -0.265  0.00  0.00    +0.005 A 
ATOM     22  C   UNL     1      -0.344   1.226  -0.958  0.00  0.00    -0.029 A 
ATOM     23  C   UNL     1      -1.344   0.561  -1.655  0.00  0.00    +0.039 A 
ATOM     24  C   UNL     1       1.062   0.683  -0.954  0.00  0.00    +0.045 C 
BRANCH  18  26
ATOM     25  C   UNL     1      -4.338  -0.731  -1.533  0.00  0.00    +0.009 C 
ATOM     26  C   UNL     1      -3.724   0.353  -2.421  0.00  0.00    +0.033 C 
ENDBRANCH  18  26
ENDBRANCH  16  23
ENDBRANCH  14  16
ENDBRANCH   1  14
BRANCH   1  27
ATOM     27  C   UNL     1      -2.272  -0.605  -5.816  0.00  0.00    +0.162 C 
BRANCH  27  28
ATOM     28  C   UNL     1      -3.280   0.512  -5.892  0.00  0.00    +0.058 A 
ATOM     29  C   UNL     1      -3.022   1.612  -6.689  0.00  0.00    +0.025 A 
ATOM     30  C   UNL     1      -3.957   2.635  -6.752  0.00  0.00    +0.003 A 
ATOM     31  C   UNL     1      -5.120   2.512  -6.007  0.00  0.00    +0.020 A 
ATOM     32  C   UNL     1      -5.309   1.383  -5.233  0.00  0.00    +0.111 A 
ATOM     33  N   UNL     1      -4.400   0.427  -5.202  0.00  0.00    -0.258 NA
ENDBRANCH  27  28
ENDBRANCH   1  27
TORSDOF 7
