REMARK  Name = ZINC65508840
REMARK  10 active torsions:
REMARK  status: ('A' for Active; 'I' for Inactive)
REMARK    1  A    between atoms: C_7  and  N_14
REMARK    2  A    between atoms: C_9  and  C_11
REMARK    3  A    between atoms: C_11  and  C_12
REMARK    4  A    between atoms: C_12  and  N_13
REMARK    5  A    between atoms: N_14  and  C_15
REMARK    6  A    between atoms: N_14  and  C_19
REMARK    7  A    between atoms: C_15  and  C_16
REMARK    8  A    between atoms: C_16  and  C_17
REMARK    9  A    between atoms: C_17  and  O_18
REMARK   10  A    between atoms: C_19  and  C_20
REMARK                            x       y       z     vdW  Elec       q    Type
REMARK                         _______ _______ _______ _____ _____    ______ ____
ROOT
ATOM      1  C   UNL     1       2.015  -1.581   3.572  0.00  0.00    +0.001 A 
ATOM      2  C   UNL     1       3.164  -0.799   3.500  0.00  0.00    +0.002 A 
ATOM      3  C   UNL     1       3.699  -0.445   2.297  0.00  0.00    +0.028 A 
ATOM      4  C   UNL     1       3.084  -0.875   1.113  0.00  0.00    +0.076 A 
ATOM      5  C   UNL     1       1.915  -1.670   1.189  0.00  0.00    +0.040 A 
ATOM      6  C   UNL     1       1.391  -2.016   2.440  0.00  0.00    +0.013 A 
ATOM      7  C   UNL     1       1.313  -2.092  -0.022  0.00  0.00    +0.133 A 
ATOM      8  N   UNL     1       1.876  -1.719  -1.164  0.00  0.00    -0.217 NA
ATOM      9  C   UNL     1       2.969  -0.974  -1.185  0.00  0.00    +0.130 A 
ATOM     10  N   UNL     1       3.569  -0.555  -0.095  0.00  0.00    -0.232 NA
ENDROOT
BRANCH   9  11
ATOM     11  C   UNL     1       3.553  -0.589  -2.520  0.00  0.00    +0.057 C 
BRANCH  11  12
ATOM     12  C   UNL     1       2.938   0.733  -2.983  0.00  0.00    -0.079 C 
BRANCH  12  13
ATOM     13  N   UNL     1       3.506   1.107  -4.285  0.00  0.00    +0.378 N 
ATOM     14  H   UNL     1       4.506   1.214  -4.198  0.00  0.00    -0.090 HD
ATOM     15  H   UNL     1       3.302   0.387  -4.961  0.00  0.00    -0.090 HD
ATOM     16  H   UNL     1       3.100   1.979  -4.591  0.00  0.00    -0.090 HD
ENDBRANCH  12  13
ENDBRANCH  11  12
ENDBRANCH   9  11
BRANCH   7  17
ATOM     17  N   UNL     1       0.174  -2.868  -0.014  0.00  0.00    -0.310 N 
BRANCH  17  18
ATOM     18  C   UNL     1       0.280  -4.324  -0.132  0.00  0.00    +0.109 C 
BRANCH  18  19
ATOM     19  C   UNL     1       0.402  -4.942   1.263  0.00  0.00    +0.047 C 
BRANCH  19  20
ATOM     20  C   UNL     1       0.512  -6.463   1.140  0.00  0.00    +0.157 C 
BRANCH  20  21
ATOM     21  O   UNL     1       0.626  -7.039   2.442  0.00  0.00    -0.395 OA
ATOM     22  H   UNL     1       0.700  -8.003   2.441  0.00  0.00    +0.209 HD
ENDBRANCH  20  21
ENDBRANCH  19  20
ENDBRANCH  18  19
ENDBRANCH  17  18
BRANCH  17  23
ATOM     23  C   UNL     1      -1.142  -2.237   0.113  0.00  0.00    +0.141 C 
BRANCH  23  24
ATOM     24  C   UNL     1      -1.730  -2.023  -1.258  0.00  0.00    -0.030 A 
ATOM     25  C   UNL     1      -1.399  -0.894  -1.983  0.00  0.00    +0.008 A 
ATOM     26  C   UNL     1      -1.938  -0.697  -3.241  0.00  0.00    +0.038 A 
ATOM     27  C   UNL     1      -2.809  -1.632  -3.774  0.00  0.00    +0.123 A 
ATOM     28  C   UNL     1      -3.140  -2.763  -3.047  0.00  0.00    +0.038 A 
ATOM     29  C   UNL     1      -2.596  -2.960  -1.792  0.00  0.00    +0.008 A 
ATOM     30  F   UNL     1      -3.337  -1.440  -5.003  0.00  0.00    -0.205 F 
ENDBRANCH  23  24
ENDBRANCH  17  23
ENDBRANCH   7  17
TORSDOF 10
