REMARK  Name = ZINC36545599
REMARK  11 active torsions:
REMARK  status: ('A' for Active; 'I' for Inactive)
REMARK    1  A    between atoms: C_1  and  O_2
REMARK    2  A    between atoms: O_2  and  C_3
REMARK    3  A    between atoms: C_6  and  C_9
REMARK    4  A    between atoms: C_9  and  C_10
REMARK    5  A    between atoms: C_10  and  C_11
REMARK    6  A    between atoms: N_13  and  C_14
REMARK    7  A    between atoms: N_13  and  C_21
REMARK    8  A    between atoms: C_21  and  C_23
REMARK    9  A    between atoms: C_21  and  C_30
REMARK   10  A    between atoms: C_26  and  O_29
REMARK   11  A    between atoms: N_32  and  C_33
REMARK                            x       y       z     vdW  Elec       q    Type
REMARK                         _______ _______ _______ _____ _____    ______ ____
ROOT
ATOM      1  C   UNL     1      -7.270  -3.457  -0.858  0.00  0.00    +0.221 C 
ATOM      2  O   UNL     1      -7.874  -4.054   0.008  0.00  0.00    -0.275 OA
ATOM      3  N   UNL     1      -7.545  -3.690  -2.156  0.00  0.00    -0.254 N 
ENDROOT
BRANCH   3   4
ATOM      4  C   UNL     1      -6.848  -3.001  -3.155  0.00  0.00    +0.056 A 
ATOM      5  C   UNL     1      -5.681  -3.536  -3.685  0.00  0.00    +0.025 A 
ATOM      6  C   UNL     1      -4.995  -2.853  -4.670  0.00  0.00    +0.002 A 
ATOM      7  C   UNL     1      -5.469  -1.638  -5.129  0.00  0.00    +0.002 A 
ATOM      8  C   UNL     1      -6.630  -1.101  -4.604  0.00  0.00    +0.022 A 
ATOM      9  C   UNL     1      -7.324  -1.782  -3.622  0.00  0.00    +0.062 A 
ATOM     10 CL   UNL     1      -8.786  -1.112  -2.968  0.00  0.00    -0.082 Cl
ENDBRANCH   3   4
BRANCH   1  11
ATOM     11  C   UNL     1      -6.210  -2.454  -0.481  0.00  0.00    +0.101 C 
BRANCH  11  12
ATOM     12  C   UNL     1      -6.096  -2.380   1.043  0.00  0.00    +0.044 C 
BRANCH  12  16
ATOM     13  C   UNL     1      -3.092   0.465   2.112  0.00  0.00    +0.120 A 
ATOM     14  C   UNL     1      -4.410   0.871   1.958  0.00  0.00    +0.046 A 
ATOM     15  C   UNL     1      -5.379  -0.051   1.613  0.00  0.00    +0.007 A 
ATOM     16  C   UNL     1      -5.037  -1.377   1.420  0.00  0.00    -0.047 A 
ATOM     17  C   UNL     1      -3.724  -1.783   1.573  0.00  0.00    +0.007 A 
ATOM     18  C   UNL     1      -2.751  -0.864   1.913  0.00  0.00    +0.046 A 
BRANCH  13  20
ATOM     19  C   UNL     1      -2.562   2.721   2.641  0.00  0.00    +0.277 C 
ATOM     20  O   UNL     1      -2.137   1.370   2.452  0.00  0.00    -0.495 OA
ENDBRANCH  13  20
ENDBRANCH  12  16
ENDBRANCH  11  12
ENDBRANCH   1  11
BRANCH   3  21
ATOM     21  C   UNL     1      -8.575  -4.666  -2.522  0.00  0.00    +0.197 C 
BRANCH  21  22
ATOM     22  C   UNL     1      -9.570  -4.021  -3.452  0.00  0.00    -0.018 A 
ATOM     23  C   UNL     1      -9.170  -3.602  -4.708  0.00  0.00    +0.009 A 
ATOM     24  C   UNL     1     -10.080  -3.010  -5.562  0.00  0.00    +0.046 A 
ATOM     25  C   UNL     1     -11.396  -2.836  -5.160  0.00  0.00    +0.117 A 
ATOM     26  C   UNL     1     -11.795  -3.257  -3.900  0.00  0.00    +0.046 A 
ATOM     27  C   UNL     1     -10.883  -3.854  -3.051  0.00  0.00    +0.009 A 
BRANCH  25  28
ATOM     28  O   UNL     1     -12.293  -2.253  -5.998  0.00  0.00    -0.507 OA
ATOM     29  H   UNL     1     -12.759  -2.878  -6.571  0.00  0.00    +0.292 HD
ENDBRANCH  25  28
ENDBRANCH  21  22
BRANCH  21  30
ATOM     30  C   UNL     1      -7.931  -5.841  -3.212  0.00  0.00    +0.239 C 
ATOM     31  O   UNL     1      -6.731  -5.862  -3.381  0.00  0.00    -0.273 OA
ATOM     32  N   UNL     1      -8.690  -6.869  -3.641  0.00  0.00    -0.311 N 
ATOM     33  H   UNL     1      -9.651  -6.852  -3.506  0.00  0.00    +0.149 HD
BRANCH  32  34
ATOM     34  C   UNL     1      -8.064  -8.011  -4.312  0.00  0.00    +0.073 C 
ATOM     35  C   UNL     1      -7.901  -7.702  -5.801  0.00  0.00    +0.022 C 
ATOM     36  C   UNL     1      -7.248  -8.895  -6.501  0.00  0.00    +0.002 C 
ATOM     37  C   UNL     1      -8.131 -10.132  -6.332  0.00  0.00    +0.000 C 
ATOM     38  C   UNL     1      -8.294 -10.442  -4.842  0.00  0.00    +0.002 C 
ATOM     39  C   UNL     1      -8.948  -9.249  -4.142  0.00  0.00    +0.022 C 
ENDBRANCH  32  34
ENDBRANCH  21  30
ENDBRANCH   3  21
TORSDOF 10
