REMARK  Name = ZINC04602385
REMARK  6 active torsions:
REMARK  status: ('A' for Active; 'I' for Inactive)
REMARK    1  A    between atoms: C_1  and  C_2
REMARK    2  A    between atoms: C_3  and  N_9
REMARK    3  A    between atoms: N_9  and  C_10
REMARK    4  A    between atoms: C_10  and  N_12
REMARK    5  A    between atoms: C_15  and  C_18
REMARK    6  A    between atoms: C_15  and  N_21
REMARK                            x       y       z     vdW  Elec       q    Type
REMARK                         _______ _______ _______ _____ _____    ______ ____
ROOT
ATOM      1  N   UNL     1       0.068   0.325  -4.547  0.00  0.00    -0.313 N 
ATOM      2  C   UNL     1       0.164   1.780  -4.721  0.00  0.00    +0.106 C 
ATOM      3  C   UNL     1      -0.892   2.227  -5.737  0.00  0.00    +0.016 C 
ATOM      4  C   UNL     1      -0.721   1.427  -7.030  0.00  0.00    +0.015 C 
ATOM      5  C   UNL     1      -0.926  -0.062  -6.742  0.00  0.00    +0.016 C 
ATOM      6  C   UNL     1       0.136  -0.535  -5.737  0.00  0.00    +0.106 C 
ENDROOT
BRANCH   4   7
ATOM      7  N   UNL     1      -1.711   1.875  -8.018  0.00  0.00    +0.389 N 
ATOM      8  C   UNL     1      -1.464   3.284  -8.351  0.00  0.00    -0.077 C 
ATOM      9  C   UNL     1      -2.542   3.779  -9.318  0.00  0.00    -0.019 C 
ATOM     10  C   UNL     1      -2.500   2.936 -10.596  0.00  0.00    -0.004 C 
ATOM     11  C   UNL     1      -2.683   1.461 -10.229  0.00  0.00    -0.019 C 
ATOM     12  C   UNL     1      -1.601   1.051  -9.228  0.00  0.00    -0.077 C 
ATOM     13  H   UNL     1      -2.638   1.780  -7.631  0.00  0.00    -0.080 HD
ENDBRANCH   4   7
BRANCH   4  14
ATOM     14  C   UNL     1       0.667   1.646  -7.575  0.00  0.00    +0.200 C 
ATOM     15  O   UNL     1       1.249   2.686  -7.353  0.00  0.00    -0.278 OA
ATOM     16  N   UNL     1       1.261   0.685  -8.311  0.00  0.00    -0.330 N 
ATOM     17  H   UNL     1       0.770  -0.117  -8.550  0.00  0.00    +0.145 HD
ATOM     18  H   UNL     1       2.180   0.796  -8.602  0.00  0.00    +0.145 HD
ENDBRANCH   4  14
BRANCH   1  19
ATOM     19  C   UNL     1      -0.074  -0.212  -3.319  0.00  0.00    +0.137 C 
ATOM     20  S   UNL     1      -0.081  -1.913  -3.125  0.00  0.00    -0.018 S 
BRANCH  19  21
ATOM     21  N   UNL     1      -0.210   0.589  -2.245  0.00  0.00    -0.296 N 
ATOM     22  H   UNL     1      -0.243   1.552  -2.359  0.00  0.00    +0.154 HD
BRANCH  21  25
ATOM     23  C   UNL     1      -2.057   1.742  -0.412  0.00  0.00    +0.047 C 
ATOM     24  C   UNL     1      -1.193   0.565  -0.039  0.00  0.00    -0.011 A 
ATOM     25  C   UNL     1      -0.305   0.033  -0.965  0.00  0.00    +0.037 A 
ATOM     26  C   UNL     1       0.490  -1.052  -0.617  0.00  0.00    +0.023 A 
ATOM     27  C   UNL     1       0.394  -1.599   0.648  0.00  0.00    +0.003 A 
ATOM     28  C   UNL     1      -0.491  -1.069   1.567  0.00  0.00    +0.020 A 
ATOM     29  C   UNL     1      -1.281   0.016   1.226  0.00  0.00    +0.046 A 
ATOM     30 CL   UNL     1      -2.386   0.683   2.387  0.00  0.00    -0.083 Cl
ENDBRANCH  21  25
ENDBRANCH  19  21
ENDBRANCH   1  19
TORSDOF 5
