REMARK  Name = ZINC22341427
REMARK  14 active torsions:
REMARK  status: ('A' for Active; 'I' for Inactive)
REMARK    1  A    between atoms: C_1  and  C_2
REMARK    2  A    between atoms: C_2  and  C_3
REMARK    3  A    between atoms: C_3  and  C_4
REMARK    4  A    between atoms: C_7  and  O_10
REMARK    5  A    between atoms: O_10  and  C_11
REMARK    6  A    between atoms: C_11  and  C_12
REMARK    7  A    between atoms: C_12  and  C_14
REMARK    8  A    between atoms: C_12  and  O_26
REMARK    9  A    between atoms: C_14  and  N_15
REMARK   10  A    between atoms: N_15  and  C_16
REMARK   11  A    between atoms: C_18  and  C_24
REMARK   12  A    between atoms: C_18  and  C_25
REMARK   13  A    between atoms: C_20  and  C_22
REMARK   14  A    between atoms: C_20  and  C_23
REMARK                            x       y       z     vdW  Elec       q    Type
REMARK                         _______ _______ _______ _____ _____    ______ ____
ROOT
ATOM      1  C   UNL     1      -1.416  -2.058  -0.121  0.00  0.00    +0.115 C 
ENDROOT
BRANCH   1   2
ATOM      2  N   UNL     1      -2.793  -2.555  -0.231  0.00  0.00    -0.311 NA
ATOM      3  H   UNL     1      -3.358  -2.273   0.670  0.00  0.00    +0.122 HD
BRANCH   2   4
ATOM      4  C   UNL     1      -2.816  -4.022  -0.362  0.00  0.00    +0.051 C 
ATOM      5  C   UNL     1      -2.665  -4.398  -1.836  0.00  0.00    +0.006 C 
ATOM      6  C   UNL     1      -2.708  -5.915  -2.005  0.00  0.00    -0.072 C 
ATOM      7  N   UNL     1      -3.826  -6.529  -1.321  0.00  0.00    +0.386 N 
ATOM      8  C   UNL     1      -4.218  -6.071  -0.004  0.00  0.00    -0.072 C 
ATOM      9  C   UNL     1      -4.159  -4.552   0.140  0.00  0.00    +0.006 C 
ATOM     10  C   UNL     1      -3.360  -6.722   1.087  0.00  0.00    -0.010 C 
ATOM     11  C   UNL     1      -5.679  -6.505   0.244  0.00  0.00    -0.010 C 
ATOM     12  C   UNL     1      -1.377  -6.519  -1.543  0.00  0.00    -0.010 C 
ATOM     13  C   UNL     1      -2.845  -6.211  -3.515  0.00  0.00    -0.010 C 
ATOM     14  H   UNL     1      -4.738  -6.405  -1.924  0.00  0.00    -0.084 HD
ATOM     15  H   UNL     1      -3.625  -7.601  -1.177  0.00  0.00    -0.084 HD
ENDBRANCH   2   4
ENDBRANCH   1   2
BRANCH   1  16
ATOM     16  C   UNL     1      -1.433  -0.534   0.013  0.00  0.00    +0.166 C 
BRANCH  16  17
ATOM     17  O   UNL     1      -2.066  -0.171   1.242  0.00  0.00    -0.387 OA
ATOM     18  H   UNL     1      -3.108  -0.467   1.433  0.00  0.00    +0.210 HD
ENDBRANCH  16  17
BRANCH  16  19
ATOM     19  C   UNL     1       0.002  -0.004   0.002  0.00  0.00    +0.261 C 
BRANCH  19  20
ATOM     20  O   UNL     1      -0.017   1.425   0.010  0.00  0.00    -0.489 OA
BRANCH  20  24
ATOM     21  C   UNL     1       3.633   3.348  -0.015  0.00  0.00    -0.047 A 
ATOM     22  C   UNL     1       2.464   4.086   0.000  0.00  0.00    +0.007 A 
ATOM     23  C   UNL     1       1.240   3.444   0.009  0.00  0.00    +0.046 A 
ATOM     24  C   UNL     1       1.185   2.058   0.002  0.00  0.00    +0.121 A 
ATOM     25  C   UNL     1       2.359   1.320  -0.008  0.00  0.00    +0.046 A 
ATOM     26  C   UNL     1       3.580   1.966  -0.022  0.00  0.00    +0.007 A 
BRANCH  21  27
ATOM     27  C   UNL     1       4.966   4.050  -0.024  0.00  0.00    +0.035 C 
BRANCH  27  29
ATOM     28  C   UNL     1       6.785   4.993   1.407  0.00  0.00    +0.004 C 
ATOM     29  C   UNL     1       5.431   4.280   1.416  0.00  0.00    +0.001 C 
ENDBRANCH  27  29
ENDBRANCH  21  27
ENDBRANCH  20  24
ENDBRANCH  19  20
ENDBRANCH  16  19
ENDBRANCH   1  16
TORSDOF 9
