REMARK  Name = ZINC35230391
REMARK  8 active torsions:
REMARK  status: ('A' for Active; 'I' for Inactive)
REMARK    1  A    between atoms: C_1  and  C_2
REMARK    2  A    between atoms: C_5  and  C_8
REMARK    3  A    between atoms: C_8  and  N_9
REMARK    4  A    between atoms: N_9  and  C_10
REMARK    5  A    between atoms: C_10  and  C_12
REMARK    6  A    between atoms: C_10  and  C_13
REMARK    7  A    between atoms: C_16  and  S_19
REMARK    8  A    between atoms: S_19  and  N_22
REMARK                            x       y       z     vdW  Elec       q    Type
REMARK                         _______ _______ _______ _____ _____    ______ ____
ROOT
ATOM      1  C   UNL     1       1.470  -6.216  -0.040  0.00  0.00    -0.044 C 
ATOM      2  C   UNL     1       0.874  -6.741   1.268  0.00  0.00    -0.009 C 
ENDROOT
BRANCH   1   3
ATOM      3  C   UNL     1       2.891  -6.699  -0.174  0.00  0.00    -0.062 A 
ATOM      4  C   UNL     1       3.906  -6.059   0.511  0.00  0.00    +0.004 A 
ATOM      5  C   UNL     1       5.210  -6.502   0.388  0.00  0.00    +0.029 A 
ATOM      6  C   UNL     1       5.498  -7.586  -0.420  0.00  0.00    +0.105 A 
ATOM      7  C   UNL     1       4.482  -8.227  -1.105  0.00  0.00    +0.029 A 
ATOM      8  C   UNL     1       3.178  -7.786  -0.979  0.00  0.00    +0.004 A 
BRANCH   6   9
ATOM      9  S   UNL     1       7.159  -8.150  -0.578  0.00  0.00    +0.056 S 
ATOM     10  O   UNL     1       7.238  -8.839  -1.819  0.00  0.00    -0.153 OA
ATOM     11  O   UNL     1       7.995  -7.045  -0.266  0.00  0.00    -0.153 OA
BRANCH   9  12
ATOM     12  N   UNL     1       7.407  -9.281   0.607  0.00  0.00    -0.204 NA
ATOM     13  H   UNL     1       6.690  -9.507   1.218  0.00  0.00    +0.144 HD
ATOM     14  H   UNL     1       8.270  -9.716   0.689  0.00  0.00    +0.144 HD
ENDBRANCH   9  12
ENDBRANCH   6   9
ENDBRANCH   1   3
BRANCH   1  15
ATOM     15  N   UNL     1       1.451  -4.747  -0.032  0.00  0.00    +0.386 N 
ATOM     16  H   UNL     1       1.917  -4.400  -0.856  0.00  0.00    -0.085 HD
ATOM     17  H   UNL     1       1.927  -4.409   0.791  0.00  0.00    -0.085 HD
BRANCH  15  18
ATOM     18  C   UNL     1       0.059  -4.275  -0.021  0.00  0.00    -0.046 C 
BRANCH  18  23
ATOM     19  C   UNL     1      -0.018   1.503   0.010  0.00  0.00    +0.044 C 
ATOM     20  C   UNL     1       0.002  -0.004   0.002  0.00  0.00    -0.050 A 
ATOM     21  C   UNL     1       0.006  -0.689  -1.199  0.00  0.00    +0.003 A 
ATOM     22  C   UNL     1       0.025  -2.071  -1.206  0.00  0.00    +0.002 A 
ATOM     23  C   UNL     1       0.040  -2.768  -0.013  0.00  0.00    -0.064 A 
ATOM     24  C   UNL     1       0.037  -2.084   1.188  0.00  0.00    +0.002 A 
ATOM     25  C   UNL     1       0.023  -0.702   1.195  0.00  0.00    +0.003 A 
ENDBRANCH  18  23
ENDBRANCH  15  18
ENDBRANCH   1  15
TORSDOF 6
