REMARK  Name = ZINC10276101
REMARK  11 active torsions:
REMARK  status: ('A' for Active; 'I' for Inactive)
REMARK    1  A    between atoms: C_1  and  C_2
REMARK    2  A    between atoms: C_2  and  C_4
REMARK    3  A    between atoms: C_2  and  N_56
REMARK    4  A    between atoms: C_7  and  S_10
REMARK    5  A    between atoms: S_10  and  N_13
REMARK    6  A    between atoms: C_14  and  N_56
REMARK    7  A    between atoms: C_15  and  C_16
REMARK    8  A    between atoms: C_15  and  N_56
REMARK    9  A    between atoms: N_18  and  C_19
REMARK   10  A    between atoms: C_24  and  S_25
REMARK   11  A    between atoms: S_25  and  C_26
REMARK                            x       y       z     vdW  Elec       q    Type
REMARK                         _______ _______ _______ _____ _____    ______ ____
ROOT
ATOM      1  C   UNL     1      -2.772   2.989   7.389  0.00  0.00    +0.019 C 
ENDROOT
BRANCH   1   2
ATOM      2  C   UNL     1      -1.791   3.479   8.423  0.00  0.00    +0.201 C 
ATOM      3  O   UNL     1      -0.610   3.546   8.155  0.00  0.00    -0.278 OA
ATOM      4  N   UNL     1      -2.226   3.843   9.646  0.00  0.00    -0.286 N 
ATOM      5  H   UNL     1      -3.175   3.834   9.845  0.00  0.00    +0.155 HD
BRANCH   4   6
ATOM      6  C   UNL     1      -1.308   4.235  10.629  0.00  0.00    +0.047 A 
ATOM      7  C   UNL     1       0.020   4.452  10.292  0.00  0.00    +0.024 A 
ATOM      8  C   UNL     1       0.925   4.840  11.263  0.00  0.00    +0.002 A 
ATOM      9  C   UNL     1       0.510   5.011  12.572  0.00  0.00    +0.001 A 
ATOM     10  C   UNL     1      -0.811   4.797  12.916  0.00  0.00    +0.017 A 
ATOM     11  C   UNL     1      -1.727   4.413  11.947  0.00  0.00    +0.034 A 
BRANCH  11  12
ATOM     12  S   UNL     1      -3.414   4.147  12.382  0.00  0.00    -0.088 S 
BRANCH  12  13
ATOM     13  C   UNL     1      -4.231   5.610  11.838  0.00  0.00    +0.013 A 
ATOM     14  C   UNL     1      -3.522   6.589  11.152  0.00  0.00    +0.015 A 
ATOM     15  C   UNL     1      -4.167   7.732  10.721  0.00  0.00    +0.001 A 
ATOM     16  C   UNL     1      -5.514   7.908  10.983  0.00  0.00    +0.000 A 
ATOM     17  C   UNL     1      -6.221   6.939  11.671  0.00  0.00    +0.001 A 
ATOM     18  C   UNL     1      -5.584   5.790  12.099  0.00  0.00    +0.015 A 
ENDBRANCH  12  13
ENDBRANCH  11  12
ENDBRANCH   4   6
ENDBRANCH   1   2
BRANCH   1  20
ATOM     19  C   UNL     1      -1.475   3.862   5.541  0.00  0.00    -0.095 C 
ATOM     20  N   UNL     1      -2.032   2.641   6.158  0.00  0.00    +0.388 N 
ATOM     21  H   UNL     1      -1.261   2.007   6.400  0.00  0.00    -0.081 HD
BRANCH  20  23
ATOM     22  C   UNL     1      -3.927   2.952   4.601  0.00  0.00    -0.008 C 
ATOM     23  C   UNL     1      -2.932   1.958   5.205  0.00  0.00    -0.041 C 
BRANCH  23  24
ATOM     24  C   UNL     1      -2.101   1.349   4.105  0.00  0.00    -0.061 A 
ATOM     25  C   UNL     1      -2.631   1.205   2.836  0.00  0.00    +0.004 A 
ATOM     26  C   UNL     1      -1.869   0.646   1.828  0.00  0.00    +0.029 A 
ATOM     27  C   UNL     1      -0.576   0.232   2.087  0.00  0.00    +0.105 A 
ATOM     28  C   UNL     1      -0.047   0.372   3.357  0.00  0.00    +0.029 A 
ATOM     29  C   UNL     1      -0.808   0.934   4.364  0.00  0.00    +0.004 A 
BRANCH  27  30
ATOM     30  S   UNL     1       0.396  -0.480   0.801  0.00  0.00    +0.056 S 
ATOM     31  O   UNL     1      -0.516  -1.004  -0.154  0.00  0.00    -0.153 OA
ATOM     32  O   UNL     1       1.381  -1.284   1.435  0.00  0.00    -0.153 OA
BRANCH  30  33
ATOM     33  N   UNL     1       1.204   0.758   0.055  0.00  0.00    -0.204 NA
ATOM     34  H   UNL     1       1.082   1.670   0.361  0.00  0.00    +0.144 HD
ATOM     35  H   UNL     1       1.798   0.571  -0.688  0.00  0.00    +0.144 HD
ENDBRANCH  30  33
ENDBRANCH  27  30
ENDBRANCH  23  24
ENDBRANCH  20  23
ENDBRANCH   1  20
TORSDOF 9
