REMARK  Name = ZINC44742558
REMARK  10 active torsions:
REMARK  status: ('A' for Active; 'I' for Inactive)
REMARK    1  A    between atoms: C_1  and  C_2
REMARK    2  A    between atoms: C_2  and  C_3
REMARK    3  A    between atoms: C_3  and  C_5
REMARK    4  A    between atoms: C_3  and  N_6
REMARK    5  A    between atoms: C_7  and  C_9
REMARK    6  A    between atoms: C_9  and  N_10
REMARK    7  A    between atoms: N_13  and  C_16
REMARK    8  A    between atoms: C_16  and  C_17
REMARK    9  A    between atoms: N_22  and  C_23
REMARK   10  A    between atoms: C_29  and  C_31
REMARK                            x       y       z     vdW  Elec       q    Type
REMARK                         _______ _______ _______ _____ _____    ______ ____
ROOT
ATOM      1  N   UNL     1       4.803   0.553  -3.671  0.00  0.00    +0.387 N 
ATOM      2  C   UNL     1       4.112   1.624  -4.401  0.00  0.00    -0.063 C 
ATOM      3  C   UNL     1       4.652   1.698  -5.830  0.00  0.00    +0.066 C 
ATOM      4  N   UNL     1       6.098   1.963  -5.791  0.00  0.00    -0.298 NA
ATOM      5  C   UNL     1       6.800   0.911  -5.042  0.00  0.00    +0.066 C 
ATOM      6  C   UNL     1       6.242   0.843  -3.619  0.00  0.00    -0.063 C 
ATOM      7  H   UNL     1       4.654  -0.326  -4.143  0.00  0.00    -0.081 HD
ENDROOT
BRANCH   1   8
ATOM      8  C   UNL     1       4.271   0.470  -2.304  0.00  0.00    +0.019 C 
BRANCH   8  10
ATOM      9  N   UNL     1       2.125  -0.091  -1.209  0.00  0.00    -0.314 N 
ATOM     10  C   UNL     1       2.824   0.051  -2.353  0.00  0.00    +0.197 C 
ATOM     11  O   UNL     1       2.289  -0.157  -3.421  0.00  0.00    -0.278 OA
ATOM     12  H   UNL     1       2.553   0.075  -0.355  0.00  0.00    +0.149 HD
BRANCH   9  13
ATOM     13  C   UNL     1       0.718  -0.497  -1.257  0.00  0.00    +0.070 C 
ATOM     14  C   UNL     1       0.630  -2.023  -1.329  0.00  0.00    +0.028 C 
BRANCH  13  16
ATOM     15  C   UNL     1      -0.019   1.526   0.010  0.00  0.00    +0.005 C 
ATOM     16  C   UNL     1       0.002  -0.004   0.002  0.00  0.00    +0.018 C 
ENDBRANCH  13  16
ENDBRANCH   9  13
ENDBRANCH   8  10
ENDBRANCH   1   8
BRANCH   4  17
ATOM     17  C   UNL     1       6.645   2.098  -7.147  0.00  0.00    +0.180 C 
BRANCH  17  18
ATOM     18  C   UNL     1       8.062   2.607  -7.069  0.00  0.00    +0.234 C 
ATOM     19  O   UNL     1       8.565   2.834  -5.990  0.00  0.00    -0.274 OA
ATOM     20  N   UNL     1       8.768   2.809  -8.199  0.00  0.00    -0.239 N 
ATOM     21  C   UNL     1      10.035   3.264  -8.129  0.00  0.00    +0.306 C 
ATOM     22  O   UNL     1      10.540   3.491  -7.047  0.00  0.00    -0.252 OA
ATOM     23  N   UNL     1      10.742   3.466  -9.259  0.00  0.00    -0.296 N 
ATOM     24  H   UNL     1       8.365   2.627  -9.062  0.00  0.00    +0.159 HD
ATOM     25  H   UNL     1      10.339   3.284 -10.122  0.00  0.00    +0.151 HD
BRANCH  23  26
ATOM     26  C   UNL     1      12.119   3.960  -9.183  0.00  0.00    +0.077 C 
ATOM     27  C   UNL     1      13.072   2.783  -8.971  0.00  0.00    +0.022 C 
ATOM     28  C   UNL     1      14.511   3.299  -8.892  0.00  0.00    +0.002 C 
ATOM     29  C   UNL     1      14.867   4.017 -10.195  0.00  0.00    +0.000 C 
ATOM     30  C   UNL     1      13.914   5.194 -10.407  0.00  0.00    +0.005 C 
ATOM     31  C   UNL     1      12.476   4.678 -10.486  0.00  0.00    +0.006 C 
ATOM     32  C   UNL     1      11.522   5.855 -10.698  0.00  0.00    +0.009 C 
ENDBRANCH  23  26
ENDBRANCH  17  18
ENDBRANCH   4  17
TORSDOF 7
