REMARK  Name = ZINC40390803
REMARK  9 active torsions:
REMARK  status: ('A' for Active; 'I' for Inactive)
REMARK    1  A    between atoms: C_1  and  O_2
REMARK    2  A    between atoms: O_2  and  C_3
REMARK    3  A    between atoms: C_6  and  N_9
REMARK    4  A    between atoms: N_16  and  C_19
REMARK    5  A    between atoms: C_22  and  C_25
REMARK    6  A    between atoms: C_25  and  C_28
REMARK    7  A    between atoms: C_28  and  N_29
REMARK    8  A    between atoms: C_34  and  S_36
REMARK    9  A    between atoms: S_36  and  C_39
REMARK                            x       y       z     vdW  Elec       q    Type
REMARK                         _______ _______ _______ _____ _____    ______ ____
ROOT
ATOM      1  N   UNL     1       1.628  -2.998   4.363  0.00  0.00    -0.210 N 
ATOM      2  C   UNL     1       2.524  -4.161   4.489  0.00  0.00    +0.194 C 
ATOM      3  C   UNL     1       3.851  -3.516   4.889  0.00  0.00    +0.091 C 
ATOM      4  C   UNL     1       4.787  -3.295   3.720  0.00  0.00    +0.033 C 
ATOM      5  C   UNL     1       4.950  -4.503   2.825  0.00  0.00    +0.114 C 
ATOM      6  N   UNL     1       3.676  -5.117   2.493  0.00  0.00    -0.270 N 
ATOM      7  C   UNL     1       2.601  -4.944   3.232  0.00  0.00    +0.243 C 
ATOM      8  O   UNL     1       1.597  -5.516   2.863  0.00  0.00    -0.273 OA
ATOM      9  C   UNL     1       3.408  -2.169   5.442  0.00  0.00    +0.176 C 
ATOM     10  N   UNL     1       2.189  -1.971   5.133  0.00  0.00    -0.164 NA
ENDROOT
BRANCH   1  14
ATOM     11  C   UNL     1      -1.885  -2.798   2.131  0.00  0.00    +0.120 A 
ATOM     12  C   UNL     1      -0.924  -1.807   2.000  0.00  0.00    +0.047 A 
ATOM     13  C   UNL     1       0.240  -1.872   2.739  0.00  0.00    +0.028 A 
ATOM     14  C   UNL     1       0.449  -2.931   3.614  0.00  0.00    +0.053 A 
ATOM     15  C   UNL     1      -0.515  -3.923   3.745  0.00  0.00    +0.028 A 
ATOM     16  C   UNL     1      -1.681  -3.853   3.008  0.00  0.00    +0.047 A 
BRANCH  11  18
ATOM     17  C   UNL     1      -3.176  -1.620   0.517  0.00  0.00    +0.277 C 
ATOM     18  O   UNL     1      -3.032  -2.733   1.402  0.00  0.00    -0.495 OA
ENDBRANCH  11  18
ENDBRANCH   1  14
BRANCH   6  19
ATOM     19  C   UNL     1       3.587  -5.890   1.330  0.00  0.00    +0.036 A 
ATOM     20  C   UNL     1       2.834  -5.441   0.253  0.00  0.00    +0.024 A 
ATOM     21  C   UNL     1       2.748  -6.207  -0.894  0.00  0.00    +0.006 A 
ATOM     22  C   UNL     1       3.409  -7.419  -0.969  0.00  0.00    -0.043 A 
ATOM     23  C   UNL     1       4.159  -7.869   0.102  0.00  0.00    +0.006 A 
ATOM     24  C   UNL     1       4.254  -7.105   1.249  0.00  0.00    +0.024 A 
BRANCH  22  25
ATOM     25  C   UNL     1       3.312  -8.252  -2.221  0.00  0.00    -0.019 C 
ATOM     26  C   UNL     1       4.020  -7.730  -3.473  0.00  0.00    +0.010 C 
ATOM     27  C   UNL     1       2.493  -7.687  -3.384  0.00  0.00    +0.010 C 
BRANCH  25  28
ATOM     28  C   UNL     1       3.281  -9.766  -2.006  0.00  0.00    -0.067 C 
BRANCH  28  29
ATOM     29  N   UNL     1       2.132 -10.117  -1.161  0.00  0.00    +0.380 N 
ATOM     30  C   UNL     1       0.864  -9.867  -1.891  0.00  0.00    -0.079 C 
ATOM     31  C   UNL     1      -0.154 -10.773  -1.153  0.00  0.00    -0.020 C 
ATOM     32  C   UNL     1       0.678 -12.032  -0.823  0.00  0.00    -0.020 C 
ATOM     33  C   UNL     1       2.145 -11.565  -0.859  0.00  0.00    -0.079 C 
ATOM     34  H   UNL     1       2.153  -9.583  -0.305  0.00  0.00    -0.082 HD
ENDBRANCH  28  29
ENDBRANCH  25  28
ENDBRANCH  22  25
ENDBRANCH   6  19
BRANCH   9  35
ATOM     35  S   UNL     1       4.423  -1.058   6.358  0.00  0.00    +0.009 S 
ATOM     36  O   UNL     1       5.735  -1.266   5.855  0.00  0.00    -0.168 OA
ATOM     37  O   UNL     1       3.788   0.207   6.224  0.00  0.00    -0.168 OA
ATOM     38  C   UNL     1       4.313  -1.633   8.075  0.00  0.00    +0.201 C 
ENDBRANCH   9  35
TORSDOF 7
