REMARK  Name = ZINC08927615
REMARK  12 active torsions:
REMARK  status: ('A' for Active; 'I' for Inactive)
REMARK    1  A    between atoms: C_1  and  C_2
REMARK    2  A    between atoms: C_2  and  C_3
REMARK    3  A    between atoms: C_2  and  N_69
REMARK    4  A    between atoms: C_11  and  O_35
REMARK    5  A    between atoms: C_13  and  C_16
REMARK    6  A    between atoms: C_19  and  O_22
REMARK    7  A    between atoms: O_22  and  C_23
REMARK    8  A    between atoms: C_23  and  C_25
REMARK    9  A    between atoms: C_28  and  C_31
REMARK   10  A    between atoms: C_31  and  C_32
REMARK   11  A    between atoms: C_31  and  C_33
REMARK   12  A    between atoms: C_31  and  C_34
REMARK                            x       y       z     vdW  Elec       q    Type
REMARK                         _______ _______ _______ _____ _____    ______ ____
ROOT
ATOM      1  C   UNL     1      -0.998  -7.718   6.591  0.00  0.00    -0.073 C 
ATOM      2  C   UNL     1      -1.539  -7.329   5.213  0.00  0.00    +0.018 C 
ATOM      3  C   UNL     1      -0.354  -7.006   4.309  0.00  0.00    -0.027 A 
ATOM      4  C   UNL     1       0.859  -6.746   4.853  0.00  0.00    -0.021 A 
ATOM      5  S   UNL     1       1.920  -6.434   3.469  0.00  0.00    -0.080 S 
ATOM      6  C   UNL     1       0.782  -6.644   2.208  0.00  0.00    +0.080 A 
ATOM      7  C   UNL     1      -0.419  -6.953   2.861  0.00  0.00    +0.067 A 
ATOM      8  C   UNL     1      -1.614  -7.189   2.011  0.00  0.00    +0.220 C 
ATOM      9  N   UNL     1      -1.524  -6.901   0.742  0.00  0.00    -0.223 NA
ATOM     10  C   UNL     1      -0.371  -6.270   0.112  0.00  0.00    +0.224 C 
ATOM     11  N   UNL     1       0.876  -6.567   0.841  0.00  0.00    -0.313 N 
ATOM     12  C   UNL     1       1.196  -6.732   6.310  0.00  0.00    -0.035 C 
ATOM     13  H   UNL     1       1.719  -6.701   0.380  0.00  0.00    +0.149 HD
ATOM     14  N   UNL     1      -0.076  -6.669   7.070  0.00  0.00    +0.384 N 
ATOM     15  H   UNL     1      -0.509  -5.750   6.921  0.00  0.00    -0.081 HD
ENDROOT
BRANCH  10  16
ATOM     16  C   UNL     1      -0.581  -4.778   0.085  0.00  0.00    -0.005 A 
ATOM     17  C   UNL     1      -1.863  -4.262   0.027  0.00  0.00    +0.011 A 
ATOM     18  C   UNL     1      -2.058  -2.895   0.002  0.00  0.00    +0.047 A 
ATOM     19  C   UNL     1      -0.966  -2.039   0.035  0.00  0.00    +0.132 A 
ATOM     20  C   UNL     1       0.319  -2.559   0.087  0.00  0.00    +0.047 A 
ATOM     21  C   UNL     1       0.508  -3.927   0.117  0.00  0.00    +0.011 A 
BRANCH  19  22
ATOM     22  O   UNL     1      -1.155  -0.694   0.009  0.00  0.00    -0.422 OA
BRANCH  22  23
ATOM     23  C   UNL     1      -1.553  -0.110   1.157  0.00  0.00    +0.344 C 
ATOM     24  O   UNL     1      -1.813  -0.793   2.127  0.00  0.00    -0.245 OA
BRANCH  23  25
ATOM     25  C   UNL     1      -1.674   1.360   1.235  0.00  0.00    +0.059 A 
ATOM     26  C   UNL     1      -1.371   2.148   0.123  0.00  0.00    +0.015 A 
ATOM     27  C   UNL     1      -1.491   3.520   0.201  0.00  0.00    +0.005 A 
ATOM     28  C   UNL     1      -1.900   4.116   1.381  0.00  0.00    -0.042 A 
ATOM     29  C   UNL     1      -2.197   3.341   2.489  0.00  0.00    +0.005 A 
ATOM     30  C   UNL     1      -2.087   1.968   2.422  0.00  0.00    +0.015 A 
BRANCH  28  31
ATOM     31  C   UNL     1      -2.023   5.616   1.461  0.00  0.00    -0.013 C 
ATOM     32  C   UNL     1      -1.086   6.147   2.549  0.00  0.00    +0.015 C 
ATOM     33  C   UNL     1      -1.640   6.231   0.114  0.00  0.00    +0.015 C 
ATOM     34  C   UNL     1      -3.466   5.992   1.803  0.00  0.00    +0.015 C 
ENDBRANCH  28  31
ENDBRANCH  23  25
ENDBRANCH  22  23
ENDBRANCH  19  22
ENDBRANCH  10  16
BRANCH  14  36
ATOM     35  C   UNL     1       1.162  -5.763   8.981  0.00  0.00    -0.014 C 
ATOM     36  C   UNL     1       0.188  -6.847   8.514  0.00  0.00    -0.074 C 
ATOM     37  C   UNL     1      -1.129  -6.713   9.281  0.00  0.00    -0.014 C 
ENDBRANCH  14  36
BRANCH   8  38
ATOM     38  O   UNL     1      -2.757  -7.688   2.535  0.00  0.00    -0.492 OA
ATOM     39  H   UNL     1      -3.469  -7.800   1.891  0.00  0.00    +0.294 HD
ENDBRANCH   8  38
TORSDOF 7
