REMARK  Name = ZINC38003207
REMARK  6 active torsions:
REMARK  status: ('A' for Active; 'I' for Inactive)
REMARK    1  A    between atoms: C_1  and  C_2
REMARK    2  A    between atoms: C_2  and  C_4
REMARK    3  A    between atoms: C_2  and  N_10
REMARK    4  A    between atoms: N_10  and  C_11
REMARK    5  A    between atoms: N_14  and  C_17
REMARK    6  A    between atoms: C_17  and  C_18
REMARK                            x       y       z     vdW  Elec       q    Type
REMARK                         _______ _______ _______ _____ _____    ______ ____
ROOT
ATOM      1  C   UNL     1      -0.154  -0.330   2.373  0.00  0.00    -0.069 C 
ATOM      2  C   UNL     1      -0.284   1.182   2.578  0.00  0.00    -0.000 C 
ATOM      3  C   UNL     1      -1.076   1.452   3.859  0.00  0.00    +0.083 C 
ATOM      4  N   UNL     1      -0.384   0.843   5.002  0.00  0.00    -0.294 NA
ATOM      5  C   UNL     1      -0.290  -0.615   4.850  0.00  0.00    +0.083 C 
ATOM      6  C   UNL     1       0.526  -0.947   3.599  0.00  0.00    -0.000 C 
ENDROOT
BRANCH   1   7
ATOM      7  N   UNL     1       0.655  -0.596   1.177  0.00  0.00    +0.386 N 
ATOM      8  H   UNL     1       0.828  -1.587   1.101  0.00  0.00    -0.085 HD
ATOM      9  H   UNL     1       1.535  -0.107   1.250  0.00  0.00    -0.085 HD
BRANCH   7  11
ATOM     10  C   UNL     1       0.834  -0.278  -1.245  0.00  0.00    -0.008 C 
ATOM     11  C   UNL     1      -0.066  -0.131  -0.015  0.00  0.00    -0.037 C 
BRANCH  11  12
ATOM     12  C   UNL     1      -1.312  -0.958  -0.203  0.00  0.00    -0.023 A 
ATOM     13  C   UNL     1      -2.548  -0.562  -0.593  0.00  0.00    +0.010 A 
ATOM     14  C   UNL     1      -3.552  -1.506  -0.697  0.00  0.00    +0.023 A 
ATOM     15  C   UNL     1      -3.271  -2.800  -0.407  0.00  0.00    +0.055 A 
ATOM     16  S   UNL     1      -1.540  -2.714   0.022  0.00  0.00    -0.088 S 
ATOM     17 BR   UNL     1      -4.413  -4.307  -0.454  0.00  0.00    -0.043 Br
ENDBRANCH  11  12
ENDBRANCH   7  11
ENDBRANCH   1   7
BRANCH   4  18
ATOM     18  C   UNL     1      -1.042   1.199   6.266  0.00  0.00    +0.180 C 
BRANCH  18  19
ATOM     19  C   UNL     1      -0.176   0.768   7.422  0.00  0.00    +0.225 C 
ATOM     20  O   UNL     1       0.884   0.218   7.213  0.00  0.00    -0.275 OA
ATOM     21  N   UNL     1      -0.581   0.993   8.688  0.00  0.00    -0.328 N 
ATOM     22  H   UNL     1      -1.429   1.433   8.855  0.00  0.00    +0.145 HD
ATOM     23  H   UNL     1      -0.023   0.716   9.432  0.00  0.00    +0.145 HD
ENDBRANCH  18  19
ENDBRANCH   4  18
TORSDOF 5
