REMARK  Name = ZINC02848577
REMARK  12 active torsions:
REMARK  status: ('A' for Active; 'I' for Inactive)
REMARK    1  A    between atoms: C_1  and  C_2
REMARK    2  A    between atoms: C_2  and  C_25
REMARK    3  A    between atoms: C_4  and  N_9
REMARK    4  A    between atoms: C_6  and  C_7
REMARK    5  A    between atoms: C_6  and  C_8
REMARK    6  A    between atoms: C_10  and  C_12
REMARK    7  A    between atoms: C_12  and  O_13
REMARK    8  A    between atoms: O_13  and  C_14
REMARK    9  A    between atoms: C_17  and  C_21
REMARK   10  A    between atoms: C_21  and  C_22
REMARK   11  A    between atoms: C_21  and  C_23
REMARK   12  A    between atoms: C_21  and  C_24
REMARK                            x       y       z     vdW  Elec       q    Type
REMARK                         _______ _______ _______ _____ _____    ______ ____
ROOT
ATOM      1  N   UNL     1       0.376   5.050  -1.216  0.00  0.00    -0.310 N 
ATOM      2  C   UNL     1       0.077   5.700  -2.358  0.00  0.00    +0.251 C 
ATOM      3  O   UNL     1      -0.186   5.073  -3.362  0.00  0.00    -0.272 OA
ATOM      4  H   UNL     1       0.587   5.551  -0.413  0.00  0.00    +0.149 HD
ENDROOT
BRANCH   1   8
ATOM      5  C   UNL     1      -0.958   0.983  -2.263  0.00  0.00    -0.010 C 
ATOM      6  C   UNL     1      -1.049   1.551  -0.842  0.00  0.00    -0.072 C 
ATOM      7  C   UNL     1      -1.030   3.077  -0.900  0.00  0.00    +0.009 C 
ATOM      8  C   UNL     1       0.383   3.582  -1.188  0.00  0.00    +0.070 C 
ATOM      9  C   UNL     1       1.307   3.104  -0.068  0.00  0.00    +0.009 C 
ATOM     10  C   UNL     1       1.318   1.579  -0.002  0.00  0.00    -0.072 C 
ATOM     11  C   UNL     1       2.027   1.175   1.309  0.00  0.00    -0.010 C 
ATOM     12  C   UNL     1       2.153   1.022  -1.161  0.00  0.00    -0.010 C 
ATOM     13  C   UNL     1      -2.418   1.125  -0.266  0.00  0.00    -0.010 C 
ATOM     14  N   UNL     1      -0.027   0.945   0.053  0.00  0.00    +0.386 N 
ATOM     15  H   UNL     1       0.076  -0.043  -0.206  0.00  0.00    -0.084 HD
ATOM     16  H   UNL     1      -0.370   1.012   1.019  0.00  0.00    -0.084 HD
ENDBRANCH   1   8
BRANCH   2  17
ATOM     17  C   UNL     1       0.070   7.207  -2.387  0.00  0.00    +0.324 C 
BRANCH  17  18
ATOM     18  O   UNL     1      -0.273   7.657  -3.699  0.00  0.00    -0.482 OA
BRANCH  18  19
ATOM     19  C   UNL     1      -0.325   9.000  -3.897  0.00  0.00    +0.135 A 
ATOM     20  C   UNL     1      -0.051   9.868  -2.850  0.00  0.00    +0.047 A 
ATOM     21  C   UNL     1      -0.103  11.233  -3.054  0.00  0.00    +0.008 A 
ATOM     22  C   UNL     1      -0.428  11.736  -4.301  0.00  0.00    -0.041 A 
ATOM     23  C   UNL     1      -0.702  10.873  -5.347  0.00  0.00    +0.023 A 
ATOM     24  C   UNL     1      -0.646   9.506  -5.149  0.00  0.00    +0.060 A 
ATOM     25 BR   UNL     1      -1.014   8.327  -6.581  0.00  0.00    -0.047 Br
BRANCH  22  26
ATOM     26  C   UNL     1      -0.484  13.226  -4.520  0.00  0.00    -0.013 C 
ATOM     27  C   UNL     1       0.886  13.837  -4.221  0.00  0.00    +0.015 C 
ATOM     28  C   UNL     1      -0.864  13.513  -5.974  0.00  0.00    +0.015 C 
ATOM     29  C   UNL     1      -1.532  13.839  -3.589  0.00  0.00    +0.015 C 
ENDBRANCH  22  26
ENDBRANCH  18  19
ENDBRANCH  17  18
ENDBRANCH   2  17
TORSDOF 5
