REMARK  Name = ZINC64787685
REMARK  7 active torsions:
REMARK  status: ('A' for Active; 'I' for Inactive)
REMARK    1  A    between atoms: C_1  and  C_2
REMARK    2  A    between atoms: C_5  and  C_8
REMARK    3  A    between atoms: C_13  and  C_25
REMARK    4  A    between atoms: C_13  and  C_26
REMARK    5  A    between atoms: C_16  and  C_18
REMARK    6  A    between atoms: N_27  and  C_34
REMARK    7  A    between atoms: N_30  and  C_33
REMARK                            x       y       z     vdW  Elec       q    Type
REMARK                         _______ _______ _______ _____ _____    ______ ____
ROOT
ATOM      1  C   UNL     1      -0.069  -4.756  -0.720  0.00  0.00    +0.064 A 
ATOM      2  C   UNL     1      -0.638  -5.763  -1.481  0.00  0.00    +0.089 A 
ATOM      3  C   UNL     1      -0.076  -7.029  -0.981  0.00  0.00    +0.083 A 
ATOM      4  C   UNL     1       0.763  -6.707   0.012  0.00  0.00    +0.078 A 
ATOM      5  N   UNL     1       0.776  -5.337   0.170  0.00  0.00    -0.331 N 
ATOM      6  C   UNL     1       1.607  -4.660   1.177  0.00  0.00    +0.064 C 
ATOM      7  C   UNL     1       2.683  -5.645   1.650  0.00  0.00    +0.189 C 
ATOM      8  O   UNL     1       2.078  -6.896   1.987  0.00  0.00    -0.363 OA
ATOM      9  C   UNL     1       1.597  -7.639   0.861  0.00  0.00    +0.200 C 
ATOM     10  C   UNL     1       0.738  -4.236   2.362  0.00  0.00    +0.036 C 
ATOM     11  C   UNL     1       2.271  -3.429   0.555  0.00  0.00    +0.036 C 
ATOM     12  N   UNL     1      -0.499  -8.215  -1.594  0.00  0.00    -0.294 N 
ATOM     13  C   UNL     1      -1.387  -8.177  -2.603  0.00  0.00    +0.332 A 
ATOM     14  O   UNL     1      -1.727  -9.230  -3.107  0.00  0.00    -0.246 OA
ATOM     15  N   UNL     1      -1.917  -7.045  -3.083  0.00  0.00    -0.263 N 
ATOM     16  C   UNL     1      -1.598  -5.832  -2.585  0.00  0.00    +0.266 A 
ATOM     17  O   UNL     1      -2.097  -4.820  -3.041  0.00  0.00    -0.267 OA
ATOM     18  C   UNL     1      -2.877  -7.127  -4.188  0.00  0.00    +0.157 C 
ATOM     19  C   UNL     1       0.030  -9.502  -1.135  0.00  0.00    +0.154 C 
ENDROOT
BRANCH   1  24
ATOM     20  C   UNL     1      -1.085   0.882  -1.246  0.00  0.00    +0.044 C 
ATOM     21  C   UNL     1      -0.819  -0.595  -1.108  0.00  0.00    -0.050 A 
ATOM     22  C   UNL     1      -1.282  -1.278   0.003  0.00  0.00    +0.004 A 
ATOM     23  C   UNL     1      -1.042  -2.629   0.136  0.00  0.00    +0.010 A 
ATOM     24  C   UNL     1      -0.330  -3.309  -0.855  0.00  0.00    -0.001 A 
ATOM     25  C   UNL     1       0.134  -2.614  -1.974  0.00  0.00    +0.010 A 
ATOM     26  C   UNL     1      -0.118  -1.264  -2.096  0.00  0.00    +0.004 A 
ENDBRANCH   1  24
BRANCH   9  27
ATOM     27  C   UNL     1       0.754  -8.800   1.323  0.00  0.00    +0.022 A 
ATOM     28  C   UNL     1      -0.579  -8.608   1.630  0.00  0.00    +0.009 A 
ATOM     29  C   UNL     1      -1.352  -9.673   2.053  0.00  0.00    +0.001 A 
ATOM     30  C   UNL     1      -0.792 -10.932   2.169  0.00  0.00    +0.003 A 
ATOM     31  C   UNL     1       0.540 -11.127   1.861  0.00  0.00    +0.039 A 
ATOM     32  C   UNL     1       1.315 -10.062   1.433  0.00  0.00    +0.129 A 
ATOM     33  F   UNL     1       2.617 -10.252   1.127  0.00  0.00    -0.205 F 
ENDBRANCH   9  27
TORSDOF 2
