REMARK  Name = ZINC10188471
REMARK  9 active torsions:
REMARK  status: ('A' for Active; 'I' for Inactive)
REMARK    1  A    between atoms: C_1  and  N_2
REMARK    2  A    between atoms: N_2  and  C_3
REMARK    3  A    between atoms: N_2  and  C_4
REMARK    4  A    between atoms: C_7  and  C_10
REMARK    5  A    between atoms: C_10  and  C_12
REMARK    6  A    between atoms: C_10  and  N_63
REMARK    7  A    between atoms: C_12  and  N_13
REMARK    8  A    between atoms: C_14  and  C_16
REMARK    9  A    between atoms: N_18  and  C_19
REMARK                            x       y       z     vdW  Elec       q    Type
REMARK                         _______ _______ _______ _____ _____    ______ ____
ROOT
ATOM      1  C   UNL     1      -7.258   1.177  -0.356  0.00  0.00    -0.020 C 
ENDROOT
BRANCH   1  11
ATOM      2  C   UNL     1      -6.916  -0.271  -2.269  0.00  0.00    -0.073 C 
ATOM      3  C   UNL     1      -6.683  -1.738  -2.629  0.00  0.00    +0.017 C 
ATOM      4  C   UNL     1      -7.881  -2.562  -2.232  0.00  0.00    -0.048 A 
ATOM      5  C   UNL     1      -8.026  -3.827  -2.780  0.00  0.00    +0.004 A 
ATOM      6  C   UNL     1      -9.107  -4.615  -2.440  0.00  0.00    +0.000 A 
ATOM      7  C   UNL     1     -10.051  -4.141  -1.548  0.00  0.00    +0.000 A 
ATOM      8  C   UNL     1      -9.909  -2.881  -1.003  0.00  0.00    +0.002 A 
ATOM      9  C   UNL     1      -8.824  -2.086  -1.345  0.00  0.00    -0.061 A 
ATOM     10  C   UNL     1      -8.717  -0.715  -0.731  0.00  0.00    -0.042 C 
ATOM     11  N   UNL     1      -7.338  -0.214  -0.855  0.00  0.00    +0.388 N 
ATOM     12  H   UNL     1      -6.714  -0.807  -0.295  0.00  0.00    -0.080 HD
ENDBRANCH   1  11
BRANCH   1  16
ATOM     13  C   UNL     1      -9.726   3.745  -2.720  0.00  0.00    +0.029 A 
ATOM     14  C   UNL     1     -10.017   3.542  -1.377  0.00  0.00    +0.023 A 
ATOM     15  C   UNL     1      -9.218   2.711  -0.616  0.00  0.00    +0.004 A 
ATOM     16  C   UNL     1      -8.128   2.083  -1.190  0.00  0.00    -0.059 A 
ATOM     17  C   UNL     1      -7.831   2.287  -2.525  0.00  0.00    +0.004 A 
ATOM     18  C   UNL     1      -8.630   3.111  -3.292  0.00  0.00    +0.023 A 
BRANCH  13  20
ATOM     19  C   UNL     1     -11.614   5.343  -2.861  0.00  0.00    +0.129 C 
ATOM     20  N   UNL     1     -10.532   4.584  -3.492  0.00  0.00    -0.336 N 
ATOM     21  C   UNL     1     -10.295   4.705  -4.932  0.00  0.00    +0.129 C 
ENDBRANCH  13  20
ENDBRANCH   1  16
BRANCH   1  22
ATOM     22  C   UNL     1      -5.806   1.652  -0.435  0.00  0.00    +0.094 C 
BRANCH  22  23
ATOM     23  N   UNL     1      -4.957   0.761   0.360  0.00  0.00    -0.309 N 
ATOM     24  C   UNL     1      -3.648   1.042   0.521  0.00  0.00    +0.299 C 
ATOM     25  O   UNL     1      -3.174   2.034   0.007  0.00  0.00    -0.265 OA
ATOM     26  H   UNL     1      -5.337  -0.032   0.771  0.00  0.00    +0.149 HD
BRANCH  24  27
ATOM     27  C   UNL     1      -2.783   0.133   1.331  0.00  0.00    +0.303 C 
ATOM     28  O   UNL     1      -3.259  -0.858   1.845  0.00  0.00    -0.265 OA
ATOM     29  N   UNL     1      -1.475   0.415   1.491  0.00  0.00    -0.275 N 
ATOM     30  H   UNL     1      -1.111   1.243   1.143  0.00  0.00    +0.155 HD
BRANCH  29  31
ATOM     31  C   UNL     1      -0.642  -0.489   2.160  0.00  0.00    +0.070 A 
ATOM     32  C   UNL     1      -0.977  -1.835   2.213  0.00  0.00    +0.029 A 
ATOM     33  C   UNL     1      -0.151  -2.727   2.869  0.00  0.00    +0.040 A 
ATOM     34  C   UNL     1       1.012  -2.279   3.474  0.00  0.00    +0.126 A 
ATOM     35  C   UNL     1       1.349  -0.937   3.425  0.00  0.00    +0.078 A 
ATOM     36  C   UNL     1       0.525  -0.041   2.769  0.00  0.00    +0.147 A 
ATOM     37  F   UNL     1       0.854   1.269   2.720  0.00  0.00    -0.203 F 
ATOM     38  F   UNL     1       1.818  -3.154   4.115  0.00  0.00    -0.205 F 
ENDBRANCH  29  31
ENDBRANCH  24  27
ENDBRANCH  22  23
ENDBRANCH   1  22
TORSDOF 7
