REMARK  Name = ZINC41078083
REMARK  12 active torsions:
REMARK  status: ('A' for Active; 'I' for Inactive)
REMARK    1  A    between atoms: C_1  and  C_2
REMARK    2  A    between atoms: C_2  and  C_3
REMARK    3  A    between atoms: C_3  and  N_4
REMARK    4  A    between atoms: N_4  and  C_5
REMARK    5  A    between atoms: C_5  and  C_6
REMARK    6  A    between atoms: C_15  and  C_19
REMARK    7  A    between atoms: C_17  and  C_18
REMARK    8  A    between atoms: N_22  and  C_23
REMARK    9  A    between atoms: C_28  and  C_29
REMARK   10  A    between atoms: C_29  and  O_31
REMARK   11  A    between atoms: O_31  and  C_32
REMARK   12  A    between atoms: C_32  and  C_33
REMARK                            x       y       z     vdW  Elec       q    Type
REMARK                         _______ _______ _______ _____ _____    ______ ____
ROOT
ATOM      1  N   UNL     1       0.862  -2.165  -1.212  0.00  0.00    -0.281 N 
ATOM      2  C   UNL     1       1.869  -2.909  -0.714  0.00  0.00    +0.307 C 
ATOM      3  O   UNL     1       1.796  -4.122  -0.733  0.00  0.00    -0.252 OA
ATOM      4  N   UNL     1       2.958  -2.308  -0.194  0.00  0.00    -0.269 N 
ATOM      5  H   UNL     1       3.052  -1.344  -0.249  0.00  0.00    +0.156 HD
ENDROOT
BRANCH   4   6
ATOM      6  C   UNL     1       3.947  -3.070   0.423  0.00  0.00    +0.049 A 
ATOM      7  C   UNL     1       3.632  -4.302   0.980  0.00  0.00    +0.024 A 
ATOM      8  C   UNL     1       4.614  -5.056   1.590  0.00  0.00    +0.002 A 
ATOM      9  C   UNL     1       5.918  -4.592   1.652  0.00  0.00    +0.001 A 
ATOM     10  C   UNL     1       6.249  -3.372   1.105  0.00  0.00    +0.017 A 
ATOM     11  C   UNL     1       5.268  -2.600   0.478  0.00  0.00    +0.080 A 
BRANCH  11  12
ATOM     12  C   UNL     1       5.616  -1.296  -0.115  0.00  0.00    +0.341 C 
ATOM     13  O   UNL     1       4.745  -0.586  -0.576  0.00  0.00    -0.245 OA
BRANCH  12  14
ATOM     14  O   UNL     1       6.902  -0.892  -0.146  0.00  0.00    -0.461 OA
BRANCH  14  15
ATOM     15  C   UNL     1       7.167   0.382  -0.735  0.00  0.00    +0.229 C 
ATOM     16  C   UNL     1       8.669   0.667  -0.680  0.00  0.00    +0.048 C 
ENDBRANCH  14  15
ENDBRANCH  12  14
ENDBRANCH  11  12
ENDBRANCH   4   6
BRANCH   1  17
ATOM     17  C   UNL     1       0.950  -0.703  -1.188  0.00  0.00    +0.109 C 
BRANCH  17  19
ATOM     18  C   UNL     1       0.327   1.359   0.079  0.00  0.00    +0.005 C 
ATOM     19  C   UNL     1       0.235  -0.168   0.054  0.00  0.00    +0.016 C 
ENDBRANCH  17  19
ENDBRANCH   1  17
BRANCH   1  20
ATOM     20  C   UNL     1      -0.321  -2.818  -1.777  0.00  0.00    +0.145 C 
BRANCH  20  21
ATOM     21  C   UNL     1      -0.054  -3.184  -3.214  0.00  0.00    -0.016 A 
ATOM     22  C   UNL     1       0.404  -4.418  -3.542  0.00  0.00    +0.076 A 
ATOM     23  C   UNL     1       0.650  -4.750  -4.891  0.00  0.00    +0.249 A 
ATOM     24  O   UNL     1       1.062  -5.865  -5.163  0.00  0.00    -0.268 OA
ATOM     25  N   UNL     1       0.443  -3.868  -5.884  0.00  0.00    -0.322 N 
ATOM     26  H   UNL     1       0.623  -4.129  -6.801  0.00  0.00    +0.169 HD
ATOM     27  C   UNL     1      -0.022  -2.598  -5.618  0.00  0.00    +0.052 A 
ATOM     28  C   UNL     1      -0.289  -2.218  -4.289  0.00  0.00    +0.004 A 
ATOM     29  C   UNL     1      -0.766  -0.933  -4.014  0.00  0.00    +0.013 A 
ATOM     30  C   UNL     1      -0.975  -0.054  -5.040  0.00  0.00    -0.050 A 
ATOM     31  C   UNL     1      -0.718  -0.426  -6.352  0.00  0.00    +0.008 A 
ATOM     32  C   UNL     1      -0.237  -1.684  -6.645  0.00  0.00    -0.026 A 
ATOM     33  C   UNL     1       0.038  -2.075  -8.074  0.00  0.00    +0.046 C 
ATOM     34  C   UNL     1      -1.490   1.331  -4.743  0.00  0.00    +0.044 C 
ENDBRANCH  20  21
ENDBRANCH   1  20
TORSDOF 8
