REMARK  Name = ZINC07376186
REMARK  10 active torsions:
REMARK  status: ('A' for Active; 'I' for Inactive)
REMARK    1  A    between atoms: C_1  and  C_2
REMARK    2  A    between atoms: C_2  and  O_3
REMARK    3  A    between atoms: O_3  and  C_4
REMARK    4  A    between atoms: C_9  and  N_10
REMARK    5  A    between atoms: C_11  and  C_13
REMARK    6  A    between atoms: C_13  and  C_15
REMARK    7  A    between atoms: C_13  and  N_50
REMARK    8  A    between atoms: C_21  and  C_22
REMARK    9  A    between atoms: C_21  and  N_50
REMARK   10  A    between atoms: C_22  and  C_23
REMARK                            x       y       z     vdW  Elec       q    Type
REMARK                         _______ _______ _______ _____ _____    ______ ____
ROOT
ATOM      1  C   UNL     1      -3.057  -2.572   2.836  0.00  0.00    +0.047 C 
ENDROOT
BRANCH   1   2
ATOM      2  C   UNL     1      -2.188  -3.696   3.337  0.00  0.00    -0.053 A 
ATOM      3  C   UNL     1      -1.852  -4.739   2.495  0.00  0.00    +0.002 A 
ATOM      4  C   UNL     1      -1.051  -5.768   2.954  0.00  0.00    +0.000 A 
ATOM      5  C   UNL     1      -0.593  -5.758   4.258  0.00  0.00    +0.000 A 
ATOM      6  C   UNL     1      -0.932  -4.717   5.102  0.00  0.00    +0.000 A 
ATOM      7  C   UNL     1      -1.730  -3.686   4.642  0.00  0.00    +0.002 A 
ENDBRANCH   1   2
BRANCH   1   9
ATOM      8  N   UNL     1      -5.079  -3.374   4.013  0.00  0.00    -0.284 N 
ATOM      9  C   UNL     1      -4.500  -3.007   2.853  0.00  0.00    +0.208 C 
ATOM     10  O   UNL     1      -5.139  -3.027   1.822  0.00  0.00    -0.277 OA
ATOM     11  H   UNL     1      -4.548  -3.436   4.822  0.00  0.00    +0.155 HD
BRANCH   8  17
ATOM     12  C   UNL     1      -6.958  -4.505   5.039  0.00  0.00    +0.142 A 
ATOM     13  C   UNL     1      -8.313  -4.792   5.071  0.00  0.00    +0.047 A 
ATOM     14  C   UNL     1      -9.157  -4.246   4.122  0.00  0.00    +0.004 A 
ATOM     15  C   UNL     1      -8.653  -3.414   3.139  0.00  0.00    +0.002 A 
ATOM     16  C   UNL     1      -7.303  -3.119   3.104  0.00  0.00    +0.027 A 
ATOM     17  C   UNL     1      -6.449  -3.667   4.050  0.00  0.00    +0.076 A 
BRANCH  12  18
ATOM     18  O   UNL     1      -6.126  -5.041   5.972  0.00  0.00    -0.490 OA
BRANCH  18  20
ATOM     19  C   UNL     1      -5.634  -6.395   7.912  0.00  0.00    +0.048 C 
ATOM     20  C   UNL     1      -6.717  -5.891   6.957  0.00  0.00    +0.226 C 
ENDBRANCH  18  20
ENDBRANCH  12  18
ENDBRANCH   8  17
ENDBRANCH   1   9
BRANCH   1  21
ATOM     21  N   UNL     1      -2.671  -2.230   1.454  0.00  0.00    +0.390 N 
ATOM     22  H   UNL     1      -3.473  -1.805   0.973  0.00  0.00    -0.084 HD
ATOM     23  H   UNL     1      -2.389  -3.084   0.959  0.00  0.00    -0.084 HD
BRANCH  21  24
ATOM     24  C   UNL     1      -1.545  -1.276   1.458  0.00  0.00    -0.076 C 
BRANCH  24  25
ATOM     25  C   UNL     1      -1.167  -0.941   0.014  0.00  0.00    +0.023 C 
BRANCH  25  26
ATOM     26  C   UNL     1      -0.017   0.033   0.009  0.00  0.00    -0.012 A 
ATOM     27  C   UNL     1       1.314  -0.218  -0.003  0.00  0.00    +0.011 A 
ATOM     28  C   UNL     1       2.198   0.845  -0.004  0.00  0.00    +0.008 A 
ATOM     29  C   UNL     1       1.706   2.108   0.005  0.00  0.00    +0.045 A 
ATOM     30  S   UNL     1      -0.056   1.818   0.018  0.00  0.00    -0.102 S 
ENDBRANCH  25  26
ENDBRANCH  24  25
ENDBRANCH  21  24
ENDBRANCH   1  21
TORSDOF 9
