REMARK  Name = ZINC14805743
REMARK  8 active torsions:
REMARK  status: ('A' for Active; 'I' for Inactive)
REMARK    1  A    between atoms: C_1  and  C_2
REMARK    2  A    between atoms: C_2  and  C_4
REMARK    3  A    between atoms: C_2  and  S_20
REMARK    4  A    between atoms: C_10  and  C_15
REMARK    5  A    between atoms: S_20  and  C_21
REMARK    6  A    between atoms: C_24  and  C_27
REMARK    7  A    between atoms: C_27  and  C_28
REMARK    8  A    between atoms: C_28  and  C_29
REMARK                            x       y       z     vdW  Elec       q    Type
REMARK                         _______ _______ _______ _____ _____    ______ ____
ROOT
ATOM      1  C   UNL     1      -1.818  -0.903  -1.423  0.00  0.00    +0.027 C 
ATOM      2  C   UNL     1      -1.300  -0.763   0.010  0.00  0.00    +0.117 C 
ENDROOT
BRANCH   2   3
ATOM      3  C   UNL     1       0.002  -0.004   0.002  0.00  0.00    +0.124 A 
ATOM      4  N   UNL     1       1.174  -0.690  -0.012  0.00  0.00    -0.309 N 
ATOM      5  H   UNL     1       1.157  -1.660  -0.017  0.00  0.00    +0.170 HD
ATOM      6  C   UNL     1       2.358  -0.051  -0.021  0.00  0.00    +0.260 A 
ATOM      7  O   UNL     1       3.401  -0.681  -0.034  0.00  0.00    -0.267 OA
ATOM      8  C   UNL     1       2.374   1.380  -0.014  0.00  0.00    +0.083 A 
ATOM      9  C   UNL     1       3.514   2.291  -0.021  0.00  0.00    +0.039 A 
ATOM     10  C   UNL     1       3.280   3.627  -0.011  0.00  0.00    +0.059 A 
ATOM     11  S   UNL     1       1.501   3.735   0.007  0.00  0.00    -0.076 S 
ATOM     12  C   UNL     1       1.115   2.003   0.002  0.00  0.00    +0.116 A 
ATOM     13  N   UNL     1      -0.016   1.302   0.009  0.00  0.00    -0.225 NA
BRANCH   9  14
ATOM     14  C   UNL     1       4.896   1.768  -0.036  0.00  0.00    +0.136 A 
ATOM     15  C   UNL     1       5.883   2.147  -0.891  0.00  0.00    +0.050 A 
ATOM     16  C   UNL     1       7.028   1.400  -0.547  0.00  0.00    +0.042 A 
ATOM     17  C   UNL     1       6.684   0.604   0.484  0.00  0.00    +0.196 A 
ATOM     18  O   UNL     1       5.394   0.829   0.790  0.00  0.00    -0.463 OA
ENDBRANCH   9  14
ENDBRANCH   2   3
BRANCH   2  19
ATOM     19  S   UNL     1      -2.516   0.136   1.006  0.00  0.00    -0.075 S 
BRANCH  19  20
ATOM     20  C   UNL     1      -3.850  -1.014   0.971  0.00  0.00    +0.190 A 
ATOM     21  N   UNL     1      -5.067  -0.864   1.572  0.00  0.00    -0.320 N 
ATOM     22  H   UNL     1      -5.370  -0.109   2.100  0.00  0.00    +0.169 HD
ATOM     23  C   UNL     1      -5.770  -1.998   1.274  0.00  0.00    +0.132 A 
ATOM     24  N   UNL     1      -4.997  -2.752   0.544  0.00  0.00    -0.134 NA
ATOM     25  N   UNL     1      -3.865  -2.174   0.358  0.00  0.00    -0.123 NA
BRANCH  23  26
ATOM     26  C   UNL     1      -7.177  -2.317   1.708  0.00  0.00    +0.076 C 
BRANCH  26  27
ATOM     27  C   UNL     1      -8.031  -2.632   0.479  0.00  0.00    +0.011 C 
BRANCH  27  28
ATOM     28  C   UNL     1      -9.460  -2.956   0.920  0.00  0.00    -0.011 C 
ATOM     29  C   UNL     1      -9.484  -4.287   1.700  0.00  0.00    +0.003 C 
ATOM     30  C   UNL     1     -10.810  -4.958   1.265  0.00  0.00    +0.000 C 
ATOM     31  C   UNL     1     -10.900  -4.596  -0.238  0.00  0.00    +0.000 C 
ATOM     32  C   UNL     1     -10.361  -3.152  -0.312  0.00  0.00    +0.003 C 
ENDBRANCH  27  28
ENDBRANCH  26  27
ENDBRANCH  23  26
ENDBRANCH  19  20
ENDBRANCH   2  19
TORSDOF 7
