REMARK  Name = ZINC04729519
REMARK  11 active torsions:
REMARK  status: ('A' for Active; 'I' for Inactive)
REMARK    1  A    between atoms: C_1  and  C_2
REMARK    2  A    between atoms: C_2  and  C_3
REMARK    3  A    between atoms: C_6  and  C_9
REMARK    4  A    between atoms: C_11  and  C_26
REMARK    5  A    between atoms: C_13  and  C_16
REMARK    6  A    between atoms: C_20  and  O_23
REMARK    7  A    between atoms: C_21  and  O_22
REMARK    8  A    between atoms: O_23  and  C_24
REMARK    9  A    between atoms: C_24  and  C_25
REMARK   10  A    between atoms: C_26  and  C_27
REMARK   11  A    between atoms: C_26  and  C_28
REMARK                            x       y       z     vdW  Elec       q    Type
REMARK                         _______ _______ _______ _____ _____    ______ ____
ROOT
ATOM      1  C   UNL     1      -0.375   2.552  -1.883  0.00  0.00    +0.040 C 
ATOM      2  N   UNL     1      -0.743   1.562  -1.160  0.00  0.00    -0.303 NA
ATOM      3  C   UNL     1      -0.013   1.086   0.008  0.00  0.00    +0.053 C 
ATOM      4  C   UNL     1       1.375   3.048  -0.198  0.00  0.00    -0.028 C 
ATOM      5  C   UNL     1       0.876   3.343  -1.616  0.00  0.00    +0.044 C 
ATOM      6  N   UNL     1       1.371   1.585  -0.002  0.00  0.00    +0.399 N 
ATOM      7  H   UNL     1       1.889   1.138  -0.767  0.00  0.00    -0.082 HD
ATOM      8  H   UNL     1       1.820   1.361   0.893  0.00  0.00    -0.082 HD
ENDROOT
BRANCH   1  12
ATOM      9  C   UNL     1      -2.799   3.653  -5.190  0.00  0.00    -0.048 A 
ATOM     10  C   UNL     1      -3.170   2.588  -4.389  0.00  0.00    +0.004 A 
ATOM     11  C   UNL     1      -2.387   2.225  -3.312  0.00  0.00    +0.010 A 
ATOM     12  C   UNL     1      -1.218   2.935  -3.033  0.00  0.00    -0.004 A 
ATOM     13  C   UNL     1      -0.852   4.013  -3.842  0.00  0.00    +0.010 A 
ATOM     14  C   UNL     1      -1.641   4.361  -4.918  0.00  0.00    +0.004 A 
BRANCH   9  16
ATOM     15  C   UNL     1      -4.698   5.073  -5.915  0.00  0.00    +0.009 C 
ATOM     16  C   UNL     1      -3.659   4.044  -6.364  0.00  0.00    +0.032 C 
ENDBRANCH   9  16
ENDBRANCH   1  12
BRANCH   4  17
ATOM     17  C   UNL     1       2.776   3.576  -0.031  0.00  0.00    -0.016 A 
ATOM     18  C   UNL     1       3.859   2.743  -0.247  0.00  0.00    +0.006 A 
ATOM     19  C   UNL     1       5.146   3.226  -0.101  0.00  0.00    +0.004 A 
ATOM     20  C   UNL     1       5.356   4.540   0.274  0.00  0.00    +0.049 A 
ATOM     21  C   UNL     1       4.276   5.378   0.497  0.00  0.00    +0.162 A 
ATOM     22  C   UNL     1       2.980   4.894   0.344  0.00  0.00    +0.160 A 
BRANCH  22  23
ATOM     23  O   UNL     1       1.916   5.712   0.562  0.00  0.00    -0.503 OA
ATOM     24  H   UNL     1       1.598   5.709   1.475  0.00  0.00    +0.292 HD
ENDBRANCH  22  23
BRANCH  21  25
ATOM     25  O   UNL     1       4.481   6.671   0.865  0.00  0.00    -0.489 OA
BRANCH  25  26
ATOM     26  C   UNL     1       5.838   7.099   1.003  0.00  0.00    +0.226 C 
ATOM     27  C   UNL     1       5.868   8.571   1.420  0.00  0.00    +0.048 C 
ENDBRANCH  25  26
ENDBRANCH  21  25
ENDBRANCH   4  17
BRANCH   3  28
ATOM     28  C   UNL     1      -0.717   1.573   1.276  0.00  0.00    -0.010 C 
ATOM     29  C   UNL     1      -2.151   1.041   1.299  0.00  0.00    +0.007 C 
ATOM     30  C   UNL     1       0.036   1.064   2.506  0.00  0.00    +0.007 C 
ENDBRANCH   3  28
TORSDOF 7
