REMARK  Name = ZINC38686472
REMARK  10 active torsions:
REMARK  status: ('A' for Active; 'I' for Inactive)
REMARK    1  A    between atoms: C_4  and  C_7
REMARK    2  A    between atoms: C_8  and  C_9
REMARK    3  A    between atoms: C_9  and  O_11
REMARK    4  A    between atoms: O_11  and  C_12
REMARK    5  A    between atoms: C_19  and  N_40
REMARK    6  A    between atoms: C_20  and  C_38
REMARK    7  A    between atoms: C_21  and  C_23
REMARK    8  A    between atoms: C_26  and  O_29
REMARK    9  A    between atoms: O_29  and  C_30
REMARK   10  A    between atoms: C_30  and  C_31
REMARK                            x       y       z     vdW  Elec       q    Type
REMARK                         _______ _______ _______ _____ _____    ______ ____
ROOT
ATOM      1  C   UNL     1       6.176  -4.792  -0.119  0.00  0.00    +0.135 A 
ATOM      2  C   UNL     1       7.394  -4.127  -0.085  0.00  0.00    +0.047 A 
ATOM      3  C   UNL     1       8.573  -4.843  -0.136  0.00  0.00    +0.012 A 
ATOM      4  C   UNL     1       8.546  -6.224  -0.220  0.00  0.00    +0.008 A 
ATOM      5  C   UNL     1       7.333  -6.894  -0.255  0.00  0.00    +0.138 A 
ATOM      6  C   UNL     1       6.146  -6.174  -0.198  0.00  0.00    +0.093 A 
ATOM      7  O   UNL     1       7.287  -8.246  -0.338  0.00  0.00    -0.441 OA
ATOM      8  C   UNL     1       8.365  -8.975  -0.005  0.00  0.00    +0.199 C 
ATOM      9  C   UNL     1       9.606  -8.437   0.043  0.00  0.00    +0.098 C 
ATOM     10  C   UNL     1       9.843  -6.988  -0.275  0.00  0.00    +0.098 C 
ENDROOT
BRANCH  10  11
ATOM     11  C   UNL     1      10.434  -6.870  -1.656  0.00  0.00    -0.034 A 
ATOM     12  C   UNL     1       9.724  -7.325  -2.752  0.00  0.00    +0.008 A 
ATOM     13  C   UNL     1      10.264  -7.218  -4.019  0.00  0.00    +0.046 A 
ATOM     14  C   UNL     1      11.519  -6.654  -4.192  0.00  0.00    +0.121 A 
ATOM     15  C   UNL     1      12.229  -6.198  -3.091  0.00  0.00    +0.046 A 
ATOM     16  C   UNL     1      11.683  -6.302  -1.826  0.00  0.00    +0.008 A 
BRANCH  14  17
ATOM     17  O   UNL     1      12.052  -6.548  -5.437  0.00  0.00    -0.487 OA
BRANCH  17  18
ATOM     18  C   UNL     1      13.349  -5.957  -5.540  0.00  0.00    +0.264 C 
BRANCH  18  19
ATOM     19  C   UNL     1      13.774  -5.925  -6.985  0.00  0.00    -0.010 A 
ATOM     20  C   UNL     1      14.466  -6.993  -7.526  0.00  0.00    +0.010 A 
ATOM     21  C   UNL     1      14.855  -6.965  -8.851  0.00  0.00    +0.039 A 
ATOM     22  C   UNL     1      14.552  -5.867  -9.638  0.00  0.00    +0.123 A 
ATOM     23  C   UNL     1      13.859  -4.798  -9.096  0.00  0.00    +0.039 A 
ATOM     24  C   UNL     1      13.466  -4.830  -7.772  0.00  0.00    +0.010 A 
ATOM     25  F   UNL     1      14.933  -5.838 -10.934  0.00  0.00    -0.205 F 
ENDBRANCH  18  19
ENDBRANCH  17  18
ENDBRANCH  14  17
ENDBRANCH  10  11
BRANCH   8  26
ATOM     26  N   UNL     1       8.203 -10.305   0.294  0.00  0.00    -0.328 N 
ATOM     27  H   UNL     1       7.320 -10.705   0.264  0.00  0.00    +0.145 HD
ATOM     28  H   UNL     1       8.972 -10.845   0.536  0.00  0.00    +0.145 HD
ENDBRANCH   8  26
BRANCH   9  29
ATOM     29  C   UNL     1      10.716  -9.267   0.405  0.00  0.00    +0.101 C 
ATOM     30  N   UNL     1      11.597  -9.924   0.692  0.00  0.00    -0.191 NA
ENDBRANCH   9  29
BRANCH   1  31
ATOM     31  O   UNL     1       5.014  -4.087  -0.070  0.00  0.00    -0.423 OA
BRANCH  31  32
ATOM     32  C   UNL     1       4.604  -3.463  -1.193  0.00  0.00    +0.337 C 
ATOM     33  O   UNL     1       5.311  -3.465  -2.183  0.00  0.00    -0.245 OA
BRANCH  32  35
ATOM     34  C   UNL     1       2.899  -2.159  -2.344  0.00  0.00    +0.015 C 
ATOM     35  C   UNL     1       3.309  -2.784  -1.221  0.00  0.00    +0.092 C 
BRANCH  34  39
ATOM     36  C   UNL     1      -0.857  -0.190  -2.424  0.00  0.00    +0.000 A 
ATOM     37  C   UNL     1      -0.055  -0.189  -3.552  0.00  0.00    +0.001 A 
ATOM     38  C   UNL     1       1.167  -0.827  -3.534  0.00  0.00    +0.008 A 
ATOM     39  C   UNL     1       1.596  -1.475  -2.372  0.00  0.00    -0.025 A 
ATOM     40  C   UNL     1       0.780  -1.471  -1.236  0.00  0.00    +0.008 A 
ATOM     41  C   UNL     1      -0.440  -0.829  -1.270  0.00  0.00    +0.001 A 
ENDBRANCH  34  39
ENDBRANCH  32  35
ENDBRANCH  31  32
ENDBRANCH   1  31
TORSDOF 10
