REMARK  Name = ZINC12699233
REMARK  9 active torsions:
REMARK  status: ('A' for Active; 'I' for Inactive)
REMARK    1  A    between atoms: C_1  and  C_2
REMARK    2  A    between atoms: C_2  and  O_3
REMARK    3  A    between atoms: O_3  and  C_4
REMARK    4  A    between atoms: C_7  and  O_10
REMARK    5  A    between atoms: O_10  and  C_11
REMARK    6  A    between atoms: C_14  and  N_17
REMARK    7  A    between atoms: C_18  and  C_20
REMARK    8  A    between atoms: C_20  and  N_56
REMARK    9  A    between atoms: C_25  and  C_27
REMARK                            x       y       z     vdW  Elec       q    Type
REMARK                         _______ _______ _______ _____ _____    ______ ____
ROOT
ATOM      1  N   UNL     1      -4.580   0.872  -0.758  0.00  0.00    -0.287 N 
ATOM      2  C   UNL     1      -3.351   0.797  -1.306  0.00  0.00    +0.201 C 
ATOM      3  O   UNL     1      -3.197   1.037  -2.485  0.00  0.00    -0.278 OA
ATOM      4  H   UNL     1      -4.692   0.754   0.199  0.00  0.00    +0.155 HD
ENDROOT
BRANCH   1   8
ATOM      5  C   UNL     1      -7.899   1.607  -3.172  0.00  0.00    +0.129 A 
ATOM      6  C   UNL     1      -8.012   0.763  -2.076  0.00  0.00    +0.048 A 
ATOM      7  C   UNL     1      -6.913   0.519  -1.277  0.00  0.00    +0.027 A 
ATOM      8  C   UNL     1      -5.695   1.118  -1.569  0.00  0.00    +0.034 A 
ATOM      9  C   UNL     1      -5.584   1.967  -2.662  0.00  0.00    +0.027 A 
ATOM     10  C   UNL     1      -6.682   2.206  -3.464  0.00  0.00    +0.048 A 
BRANCH   5  11
ATOM     11  O   UNL     1      -8.981   1.847  -3.959  0.00  0.00    -0.456 OA
BRANCH  11  15
ATOM     12  C   UNL     1      -8.437   4.115  -7.365  0.00  0.00    +0.121 A 
ATOM     13  C   UNL     1      -8.034   2.788  -7.343  0.00  0.00    +0.049 A 
ATOM     14  C   UNL     1      -8.215   2.029  -6.204  0.00  0.00    +0.050 A 
ATOM     15  C   UNL     1      -8.802   2.594  -5.080  0.00  0.00    +0.129 A 
ATOM     16  C   UNL     1      -9.210   3.920  -5.104  0.00  0.00    +0.050 A 
ATOM     17  C   UNL     1      -9.023   4.680  -6.242  0.00  0.00    +0.049 A 
BRANCH  12  18
ATOM     18  O   UNL     1      -8.258   4.862  -8.487  0.00  0.00    -0.492 OA
BRANCH  18  20
ATOM     19  C   UNL     1      -8.415   6.896  -9.782  0.00  0.00    +0.048 C 
ATOM     20  C   UNL     1      -8.697   6.221  -8.438  0.00  0.00    +0.225 C 
ENDBRANCH  18  20
ENDBRANCH  12  18
ENDBRANCH  11  15
ENDBRANCH   5  11
ENDBRANCH   1   8
BRANCH   2  21
ATOM     21  C   UNL     1      -2.168   0.416  -0.454  0.00  0.00    +0.020 C 
BRANCH  21  27
ATOM     22  C   UNL     1      -0.959  -0.729  -2.211  0.00  0.00    -0.077 C 
ATOM     23  C   UNL     1       0.245  -0.626  -3.151  0.00  0.00    -0.019 C 
ATOM     24  C   UNL     1       1.534  -0.627  -2.323  0.00  0.00    -0.003 C 
ATOM     25  C   UNL     1       1.493   0.536  -1.329  0.00  0.00    -0.006 C 
ATOM     26  C   UNL     1       0.253   0.399  -0.442  0.00  0.00    +0.020 C 
ATOM     27  N   UNL     1      -0.953   0.431  -1.296  0.00  0.00    +0.393 N 
ATOM     28  H   UNL     1      -0.945   1.294  -1.852  0.00  0.00    -0.080 HD
BRANCH  26  29
ATOM     29  C   UNL     1       0.198   1.553   0.526  0.00  0.00    +0.197 C 
ATOM     30  O   UNL     1      -0.445   2.544   0.252  0.00  0.00    -0.278 OA
ATOM     31  N   UNL     1       0.864   1.484   1.696  0.00  0.00    -0.331 N 
ATOM     32  H   UNL     1       1.378   0.691   1.915  0.00  0.00    +0.145 HD
ATOM     33  H   UNL     1       0.829   2.227   2.319  0.00  0.00    +0.145 HD
ENDBRANCH  26  29
ENDBRANCH  21  27
ENDBRANCH   2  21
TORSDOF 8
