REMARK  Name = ZINC39685822
REMARK  14 active torsions:
REMARK  status: ('A' for Active; 'I' for Inactive)
REMARK    1  A    between atoms: C_1  and  C_2
REMARK    2  A    between atoms: C_2  and  S_3
REMARK    3  A    between atoms: S_3  and  C_4
REMARK    4  A    between atoms: C_5  and  C_10
REMARK    5  A    between atoms: C_14  and  C_23
REMARK    6  A    between atoms: N_25  and  C_26
REMARK    7  A    between atoms: C_26  and  C_28
REMARK    8  A    between atoms: C_26  and  C_31
REMARK    9  A    between atoms: C_28  and  C_29
REMARK   10  A    between atoms: C_28  and  C_30
REMARK   11  A    between atoms: N_33  and  C_34
REMARK   12  A    between atoms: C_34  and  C_35
REMARK   13  A    between atoms: C_34  and  C_36
REMARK   14  A    between atoms: C_34  and  C_37
REMARK                            x       y       z     vdW  Elec       q    Type
REMARK                         _______ _______ _______ _____ _____    ______ ____
ROOT
ATOM      1  C   UNL     1       1.429  -2.146   4.957  0.00  0.00    +0.249 C 
ATOM      2  O   UNL     1       1.345  -1.003   5.365  0.00  0.00    -0.270 OA
ATOM      3  N   UNL     1       1.955  -3.106   5.743  0.00  0.00    -0.296 N 
ATOM      4  C   UNL     1       2.234  -4.517   5.389  0.00  0.00    +0.121 C 
ATOM      5  C   UNL     1       3.580  -4.834   6.080  0.00  0.00    +0.100 C 
ATOM      6  C   UNL     1       3.672  -3.828   7.239  0.00  0.00    -0.004 C 
ATOM      7  C   UNL     1       2.391  -2.986   7.155  0.00  0.00    +0.115 C 
ATOM      8  C   UNL     1       4.896  -2.934   7.067  0.00  0.00    -0.010 C 
ATOM      9  C   UNL     1       4.998  -1.981   8.262  0.00  0.00    -0.082 C 
ATOM     10  N   UNL     1       5.105  -2.758   9.502  0.00  0.00    +0.379 N 
ATOM     11  C   UNL     1       3.883  -3.545   9.707  0.00  0.00    -0.082 C 
ATOM     12  C   UNL     1       3.734  -4.564   8.574  0.00  0.00    -0.010 C 
ATOM     13  H   UNL     1       5.897  -3.379   9.441  0.00  0.00    -0.086 HD
ATOM     14  H   UNL     1       5.233  -2.130  10.281  0.00  0.00    -0.086 HD
ENDROOT
BRANCH   1  16
ATOM     15  C   UNL     1       1.134  -1.578   2.537  0.00  0.00    +0.109 A 
ATOM     16  C   UNL     1       0.956  -2.480   3.601  0.00  0.00    +0.069 A 
ATOM     17  C   UNL     1       0.322  -3.702   3.349  0.00  0.00    +0.017 A 
ATOM     18  C   UNL     1      -0.103  -3.968   2.060  0.00  0.00    +0.020 A 
ATOM     19  C   UNL     1       0.108  -3.030   1.065  0.00  0.00    +0.112 A 
ATOM     20  N   UNL     1       0.703  -1.882   1.322  0.00  0.00    -0.248 NA
BRANCH  15  21
ATOM     21  S   UNL     1       1.929  -0.031   2.823  0.00  0.00    -0.105 S 
BRANCH  21  23
ATOM     22  C   UNL     1       2.591   2.145   1.304  0.00  0.00    +0.015 C 
ATOM     23  C   UNL     1       1.921   0.773   1.198  0.00  0.00    +0.072 C 
ENDBRANCH  21  23
ENDBRANCH  15  21
ENDBRANCH   1  16
BRANCH   5  24
ATOM     24  C   UNL     1       3.580  -6.246   6.606  0.00  0.00    +0.219 C 
ATOM     25  O   UNL     1       2.535  -6.779   6.913  0.00  0.00    -0.275 OA
ATOM     26  N   UNL     1       4.742  -6.917   6.734  0.00  0.00    -0.303 N 
ATOM     27  H   UNL     1       5.578  -6.491   6.488  0.00  0.00    +0.149 HD
BRANCH  26  28
ATOM     28  C   UNL     1       4.743  -8.290   7.245  0.00  0.00    +0.161 C 
BRANCH  28  29
ATOM     29  C   UNL     1       6.083  -8.595   7.862  0.00  0.00    +0.234 C 
ATOM     30  O   UNL     1       7.024  -7.856   7.665  0.00  0.00    -0.274 OA
ATOM     31  N   UNL     1       6.236  -9.690   8.633  0.00  0.00    -0.309 N 
ATOM     32  H   UNL     1       5.509 -10.326   8.723  0.00  0.00    +0.149 HD
BRANCH  31  33
ATOM     33  C   UNL     1       7.500  -9.920   9.336  0.00  0.00    +0.026 C 
ATOM     34  C   UNL     1       7.773  -8.756  10.290  0.00  0.00    +0.031 C 
ATOM     35  C   UNL     1       7.411 -11.223  10.134  0.00  0.00    +0.031 C 
ATOM     36  C   UNL     1       8.638 -10.023   8.319  0.00  0.00    +0.031 C 
ENDBRANCH  31  33
ENDBRANCH  28  29
BRANCH  28  37
ATOM     37  C   UNL     1       4.478  -9.263   6.094  0.00  0.00    +0.012 C 
ATOM     38  C   UNL     1       3.063  -9.042   5.555  0.00  0.00    +0.009 C 
ATOM     39  C   UNL     1       5.493  -9.019   4.976  0.00  0.00    +0.009 C 
ENDBRANCH  28  37
ENDBRANCH  26  28
ENDBRANCH   5  24
TORSDOF 8
