REMARK  Name = ZINC44265689
REMARK  4 active torsions:
REMARK  status: ('A' for Active; 'I' for Inactive)
REMARK    1  A    between atoms: C_1  and  N_2
REMARK    2  A    between atoms: C_6  and  S_12
REMARK    3  A    between atoms: S_12  and  O_15
REMARK    4  A    between atoms: O_15  and  C_16
REMARK                            x       y       z     vdW  Elec       q    Type
REMARK                         _______ _______ _______ _____ _____    ______ ____
ROOT
ATOM      1  C   UNL     1      -0.018   1.461   0.010  0.00  0.00    +0.156 C 
ATOM      2  N   UNL     1       0.002  -0.004   0.002  0.00  0.00    -0.277 N 
ATOM      3  C   UNL     1      -1.111  -0.844   0.003  0.00  0.00    +0.090 A 
ATOM      4  C   UNL     1      -2.478  -0.613   0.010  0.00  0.00    +0.031 A 
ATOM      5  C   UNL     1      -3.355  -1.680   0.009  0.00  0.00    +0.033 A 
ATOM      6  C   UNL     1      -2.873  -2.977   0.000  0.00  0.00    +0.132 A 
ATOM      7  C   UNL     1      -1.513  -3.215  -0.008  0.00  0.00    +0.079 A 
ATOM      8  C   UNL     1      -0.625  -2.151  -0.007  0.00  0.00    +0.159 A 
ATOM      9  O   UNL     1       0.729  -2.076  -0.013  0.00  0.00    -0.407 OA
ATOM     10  C   UNL     1       1.100  -0.786  -0.013  0.00  0.00    +0.421 A 
ATOM     11  O   UNL     1       2.248  -0.385  -0.022  0.00  0.00    -0.223 OA
ENDROOT
BRANCH   6  12
ATOM     12  S   UNL     1      -4.000  -4.331  -0.000  0.00  0.00    +0.151 S 
ATOM     13  O   UNL     1      -3.300  -5.443   0.541  0.00  0.00    -0.131 OA
ATOM     14  O   UNL     1      -5.214  -3.849   0.559  0.00  0.00    -0.131 OA
BRANCH  12  15
ATOM     15  O   UNL     1      -4.296  -4.670  -1.454  0.00  0.00    -0.342 OA
BRANCH  15  16
ATOM     16  C   UNL     1      -3.286  -5.324  -2.086  0.00  0.00    +0.157 A 
ATOM     17  C   UNL     1      -2.298  -4.606  -2.744  0.00  0.00    +0.050 A 
ATOM     18  C   UNL     1      -1.272  -5.272  -3.386  0.00  0.00    +0.019 A 
ATOM     19  C   UNL     1      -1.229  -6.655  -3.372  0.00  0.00    +0.018 A 
ATOM     20  C   UNL     1      -2.213  -7.373  -2.716  0.00  0.00    +0.019 A 
ATOM     21  C   UNL     1      -3.238  -6.710  -2.068  0.00  0.00    +0.050 A 
ATOM     22 BR   UNL     1       0.176  -7.565  -4.251  0.00  0.00    -0.050 Br
ENDBRANCH  15  16
ENDBRANCH  12  15
ENDBRANCH   6  12
TORSDOF 3
