REMARK  Name = ZINC40386958
REMARK  9 active torsions:
REMARK  status: ('A' for Active; 'I' for Inactive)
REMARK    1  A    between atoms: C_1  and  C_2
REMARK    2  A    between atoms: C_6  and  N_8
REMARK    3  A    between atoms: C_9  and  N_31
REMARK    4  A    between atoms: C_11  and  C_23
REMARK    5  A    between atoms: N_17  and  C_18
REMARK    6  A    between atoms: C_18  and  C_19
REMARK    7  A    between atoms: C_19  and  N_20
REMARK    8  A    between atoms: N_20  and  C_21
REMARK    9  A    between atoms: N_20  and  C_22
REMARK                            x       y       z     vdW  Elec       q    Type
REMARK                         _______ _______ _______ _____ _____    ______ ____
ROOT
ATOM      1  N   UNL     1      -0.313  -2.636   2.566  0.00  0.00    -0.216 N 
ATOM      2  C   UNL     1      -0.858  -3.853   2.758  0.00  0.00    +0.131 A 
ATOM      3  C   UNL     1      -0.464  -4.293   4.016  0.00  0.00    +0.086 A 
ATOM      4  C   UNL     1      -0.684  -5.449   4.799  0.00  0.00    +0.091 A 
ATOM      5  N   UNL     1      -0.121  -5.511   5.999  0.00  0.00    -0.214 NA
ATOM      6  C   UNL     1       0.634  -4.527   6.479  0.00  0.00    +0.218 A 
ATOM      7  N   UNL     1       0.890  -3.417   5.817  0.00  0.00    -0.193 NA
ATOM      8  C   UNL     1       0.379  -3.226   4.586  0.00  0.00    +0.189 A 
ATOM      9  N   UNL     1       0.442  -2.269   3.686  0.00  0.00    -0.144 NA
ATOM     10  N   UNL     1       1.180  -4.678   7.740  0.00  0.00    -0.315 N 
ATOM     11  H   UNL     1       1.008  -5.485   8.250  0.00  0.00    +0.149 HD
ENDROOT
BRANCH   4  12
ATOM     12  C   UNL     1      -1.520  -6.560   4.294  0.00  0.00    +0.039 A 
ATOM     13  C   UNL     1      -1.182  -7.206   3.104  0.00  0.00    +0.051 A 
ATOM     14  C   UNL     1      -1.966  -8.243   2.638  0.00  0.00    +0.124 A 
ATOM     15  C   UNL     1      -3.087  -8.642   3.349  0.00  0.00    +0.041 A 
ATOM     16  C   UNL     1      -3.428  -8.007   4.528  0.00  0.00    +0.042 A 
ATOM     17  C   UNL     1      -2.648  -6.971   5.009  0.00  0.00    +0.133 A 
ATOM     18  F   UNL     1      -2.979  -6.354   6.164  0.00  0.00    -0.205 F 
ATOM     19  F   UNL     1      -1.641  -8.869   1.486  0.00  0.00    -0.205 F 
ENDBRANCH   4  12
BRANCH   1  25
ATOM     20  C   UNL     1      -0.776   1.795   0.485  0.00  0.00    +0.044 C 
ATOM     21  C   UNL     1      -0.701   0.294   0.377  0.00  0.00    -0.048 A 
ATOM     22  C   UNL     1      -0.792  -0.315  -0.862  0.00  0.00    +0.003 A 
ATOM     23  C   UNL     1      -0.725  -1.692  -0.965  0.00  0.00    +0.002 A 
ATOM     24  C   UNL     1      -0.566  -2.464   0.169  0.00  0.00    +0.028 A 
ATOM     25  C   UNL     1      -0.473  -1.856   1.414  0.00  0.00    +0.068 A 
ATOM     26  C   UNL     1      -0.536  -0.472   1.514  0.00  0.00    +0.031 A 
ENDBRANCH   1  25
BRANCH   2  27
ATOM     27  N   UNL     1      -1.661  -4.539   1.867  0.00  0.00    -0.342 N 
ATOM     28  H   UNL     1      -1.953  -4.110   1.048  0.00  0.00    +0.144 HD
ATOM     29  H   UNL     1      -1.933  -5.450   2.061  0.00  0.00    +0.144 HD
ENDBRANCH   2  27
BRANCH  10  30
ATOM     30  C   UNL     1       2.018  -3.618   8.307  0.00  0.00    +0.086 C 
BRANCH  30  31
ATOM     31  C   UNL     1       2.491  -4.033   9.701  0.00  0.00    -0.061 C 
BRANCH  31  32
ATOM     32  N   UNL     1       3.332  -2.970  10.269  0.00  0.00    +0.377 N 
ATOM     33  C   UNL     1       2.522  -1.763  10.477  0.00  0.00    -0.097 C 
ATOM     34  C   UNL     1       3.884  -3.417  11.556  0.00  0.00    -0.097 C 
ATOM     35  H   UNL     1       4.088  -2.763   9.633  0.00  0.00    -0.083 HD
ENDBRANCH  31  32
ENDBRANCH  30  31
ENDBRANCH  10  30
TORSDOF 6
