REMARK  Name = ZINC63312603
REMARK  10 active torsions:
REMARK  status: ('A' for Active; 'I' for Inactive)
REMARK    1  A    between atoms: C_1  and  C_2
REMARK    2  A    between atoms: C_2  and  O_3
REMARK    3  A    between atoms: O_3  and  C_4
REMARK    4  A    between atoms: C_7  and  S_11
REMARK    5  A    between atoms: S_11  and  N_14
REMARK    6  A    between atoms: N_14  and  C_15
REMARK    7  A    between atoms: C_15  and  C_16
REMARK    8  A    between atoms: C_16  and  C_17
REMARK    9  A    between atoms: C_22  and  C_28
REMARK   10  A    between atoms: C_25  and  C_27
REMARK                            x       y       z     vdW  Elec       q    Type
REMARK                         _______ _______ _______ _____ _____    ______ ____
ROOT
ATOM      1  N   UNL     1      -0.305  -6.993   2.084  0.00  0.00    -0.190 NA
ATOM      2  H   UNL     1       0.297  -7.743   2.209  0.00  0.00    +0.148 HD
ENDROOT
BRANCH   1   3
ATOM      3  S   UNL     1      -0.325  -5.754   3.182  0.00  0.00    +0.060 S 
ATOM      4  O   UNL     1      -0.310  -4.546   2.433  0.00  0.00    -0.153 OA
ATOM      5  O   UNL     1       0.664  -6.059   4.156  0.00  0.00    -0.153 OA
BRANCH   3   9
ATOM      6  C   UNL     1      -4.324  -5.911   5.303  0.00  0.00    +0.140 A 
ATOM      7  C   UNL     1      -4.247  -5.436   4.003  0.00  0.00    +0.069 A 
ATOM      8  C   UNL     1      -3.025  -5.389   3.357  0.00  0.00    +0.071 A 
ATOM      9  C   UNL     1      -1.880  -5.815   4.008  0.00  0.00    +0.125 A 
ATOM     10  C   UNL     1      -1.955  -6.289   5.304  0.00  0.00    +0.053 A 
ATOM     11  C   UNL     1      -3.174  -6.333   5.956  0.00  0.00    +0.084 A 
ATOM     12 CL   UNL     1      -3.266  -6.922   7.586  0.00  0.00    -0.080 Cl
ATOM     13 CL   UNL     1      -2.927  -4.795   1.729  0.00  0.00    -0.081 Cl
BRANCH   6  14
ATOM     14  O   UNL     1      -5.524  -5.958   5.940  0.00  0.00    -0.491 OA
BRANCH  14  16
ATOM     15  C   UNL     1      -7.915  -5.635   6.082  0.00  0.00    +0.048 C 
ATOM     16  C   UNL     1      -6.666  -5.508   5.208  0.00  0.00    +0.226 C 
ENDBRANCH  14  16
ENDBRANCH   6  14
ENDBRANCH   3   9
ENDBRANCH   1   3
BRANCH   1  17
ATOM     17  C   UNL     1      -1.196  -6.955   0.921  0.00  0.00    +0.110 C 
BRANCH  17  18
ATOM     18  C   UNL     1      -2.472  -7.740   1.232  0.00  0.00    +0.050 C 
BRANCH  18  19
ATOM     19  C   UNL     1      -3.442  -7.596   0.087  0.00  0.00    -0.037 C 
ATOM     20  C   UNL     1      -3.218  -6.978  -1.095  0.00  0.00    -0.001 A 
ATOM     21  C   UNL     1      -2.050  -6.281  -1.647  0.00  0.00    +0.010 A 
ATOM     22  C   UNL     1      -2.129  -5.751  -2.889  0.00  0.00    +0.001 A 
ATOM     23  C   UNL     1      -3.295  -5.851  -3.660  0.00  0.00    +0.005 A 
ATOM     24  C   UNL     1      -4.408  -6.476  -3.221  0.00  0.00    -0.027 A 
ATOM     25  C   UNL     1      -4.437  -7.069  -1.930  0.00  0.00    +0.046 A 
ATOM     26  N   UNL     1      -5.378  -7.719  -1.288  0.00  0.00    -0.378 N 
ATOM     27  C   UNL     1      -4.859  -8.118   0.025  0.00  0.00    +0.103 C 
ATOM     28  C   UNL     1      -5.703  -7.488   1.135  0.00  0.00    +0.035 C 
ATOM     29  C   UNL     1      -5.627  -6.544  -4.105  0.00  0.00    +0.046 C 
ATOM     30  H   UNL     1      -6.267  -7.907  -1.627  0.00  0.00    +0.160 HD
ENDBRANCH  18  19
ENDBRANCH  17  18
ENDBRANCH   1  17
TORSDOF 7
