REMARK  Name = ZINC66246673
REMARK  7 active torsions:
REMARK  status: ('A' for Active; 'I' for Inactive)
REMARK    1  A    between atoms: C_1  and  O_2
REMARK    2  A    between atoms: O_2  and  C_3
REMARK    3  A    between atoms: C_3  and  C_4
REMARK    4  A    between atoms: C_4  and  N_5
REMARK    5  A    between atoms: N_8  and  C_9
REMARK    6  A    between atoms: C_9  and  C_10
REMARK    7  A    between atoms: C_10  and  C_16
REMARK                            x       y       z     vdW  Elec       q    Type
REMARK                         _______ _______ _______ _____ _____    ______ ____
ROOT
ATOM      1  C   UNL     1       0.980  -6.250  -0.056  0.00  0.00    +0.127 C 
ENDROOT
BRANCH   1   5
ATOM      2  N   UNL     1       0.478  -6.497  -3.668  0.00  0.00    -0.356 N 
ATOM      3  C   UNL     1       0.966  -6.139  -2.513  0.00  0.00    +0.169 C 
ATOM      4  N   UNL     1       2.013  -5.251  -2.454  0.00  0.00    -0.371 N 
ATOM      5  N   UNL     1       0.432  -6.651  -1.354  0.00  0.00    -0.357 N 
ATOM      6  H   UNL     1       2.389  -4.890  -3.272  0.00  0.00    +0.159 HD
ATOM      7  H   UNL     1       2.376  -4.985  -1.594  0.00  0.00    +0.159 HD
ATOM      8  H   UNL     1      -0.307  -7.278  -1.396  0.00  0.00    +0.162 HD
ATOM      9  H   UNL     1       0.855  -6.136  -4.486  0.00  0.00    +0.162 HD
BRANCH   2  10
ATOM     10  C   UNL     1      -0.638  -7.444  -3.731  0.00  0.00    +0.143 C 
BRANCH  10  11
ATOM     11  C   UNL     1      -1.014  -7.691  -5.193  0.00  0.00    +0.180 C 
BRANCH  11  13
ATOM     12  C   UNL     1      -0.180  -8.619  -7.240  0.00  0.00    +0.194 C 
ATOM     13  O   UNL     1       0.070  -8.340  -5.861  0.00  0.00    -0.381 OA
ENDBRANCH  11  13
ENDBRANCH  10  11
ENDBRANCH   2  10
ENDBRANCH   1   5
BRANCH   1  14
ATOM     14  C   UNL     1       0.153  -6.884   1.065  0.00  0.00    +0.017 C 
ATOM     15  C   UNL     1       0.704  -6.438   2.423  0.00  0.00    +0.041 C 
ATOM     16  C   UNL     1       2.139  -6.947   2.575  0.00  0.00    +0.161 C 
ATOM     17  O   UNL     1       2.156  -8.370   2.442  0.00  0.00    -0.380 OA
ATOM     18  C   UNL     1       1.697  -8.843   1.174  0.00  0.00    +0.161 C 
ATOM     19  C   UNL     1       0.243  -8.410   0.966  0.00  0.00    +0.041 C 
BRANCH  14  20
ATOM     20  C   UNL     1      -1.285  -6.455   0.936  0.00  0.00    -0.039 A 
ATOM     21  C   UNL     1      -2.277  -7.402   0.768  0.00  0.00    +0.005 A 
ATOM     22  C   UNL     1      -3.597  -7.009   0.650  0.00  0.00    +0.015 A 
ATOM     23  C   UNL     1      -3.925  -5.666   0.700  0.00  0.00    +0.018 A 
ATOM     24  C   UNL     1      -2.932  -4.718   0.868  0.00  0.00    +0.015 A 
ATOM     25  C   UNL     1      -1.613  -5.113   0.991  0.00  0.00    +0.005 A 
ATOM     26 BR   UNL     1      -5.730  -5.126   0.538  0.00  0.00    -0.050 Br
ENDBRANCH  14  20
ENDBRANCH   1  14
TORSDOF 6
