REMARK  Name = ZINC20118062
REMARK  8 active torsions:
REMARK  status: ('A' for Active; 'I' for Inactive)
REMARK    1  A    between atoms: C_5  and  N_7
REMARK    2  A    between atoms: C_8  and  C_10
REMARK    3  A    between atoms: C_14  and  N_15
REMARK    4  A    between atoms: C_16  and  C_18
REMARK    5  A    between atoms: C_18  and  N_19
REMARK    6  A    between atoms: N_19  and  C_20
REMARK    7  A    between atoms: C_20  and  C_21
REMARK    8  A    between atoms: C_21  and  N_22
REMARK                            x       y       z     vdW  Elec       q    Type
REMARK                         _______ _______ _______ _____ _____    ______ ____
ROOT
ATOM      1  C   UNL     1       3.651   1.746  -0.023  0.00  0.00    +0.069 A 
ATOM      2  C   UNL     1       4.778   0.813  -0.039  0.00  0.00    -0.023 A 
ATOM      3  C   UNL     1       4.441  -0.489  -0.040  0.00  0.00    -0.004 A 
ATOM      4  S   UNL     1       2.665  -0.497  -0.016  0.00  0.00    -0.077 S 
ATOM      5  C   UNL     1       2.375   1.209  -0.012  0.00  0.00    +0.084 A 
ATOM      6  C   UNL     1       5.650  -1.385  -0.052  0.00  0.00    +0.043 C 
ATOM      7  C   UNL     1       6.818  -0.468   0.375  0.00  0.00    +0.010 C 
ATOM      8  C   UNL     1       6.303   0.919  -0.059  0.00  0.00    +0.037 C 
ENDROOT
BRANCH   1  10
ATOM      9  N   UNL     1       3.953   3.869  -1.182  0.00  0.00    -0.280 N 
ATOM     10  C   UNL     1       3.866   3.196  -0.017  0.00  0.00    +0.251 C 
ATOM     11  O   UNL     1       3.965   3.793   1.039  0.00  0.00    -0.270 OA
ATOM     12  H   UNL     1       3.937   3.321  -2.136  0.00  0.00    +0.155 HD
BRANCH   9  17
ATOM     13  C   UNL     1       4.882   7.279  -0.169  0.00  0.00    +0.002 A 
ATOM     14  C   UNL     1       4.281   8.023  -1.168  0.00  0.00    +0.002 A 
ATOM     15  C   UNL     1       3.571   7.391  -2.172  0.00  0.00    +0.022 A 
ATOM     16  C   UNL     1       3.460   6.013  -2.180  0.00  0.00    +0.062 A 
ATOM     17  C   UNL     1       4.063   5.264  -1.177  0.00  0.00    +0.052 A 
ATOM     18  C   UNL     1       4.771   5.902  -0.168  0.00  0.00    +0.025 A 
ATOM     19 CL   UNL     1       2.567   5.220  -3.440  0.00  0.00    -0.082 Cl
ENDBRANCH   9  17
ENDBRANCH   1  10
BRANCH   5  20
ATOM     20  N   UNL     1       1.160   1.877   0.004  0.00  0.00    -0.281 N 
ATOM     21  C   UNL     1       0.007   1.178   0.012  0.00  0.00    +0.201 C 
ATOM     22  O   UNL     1       0.033  -0.034   0.006  0.00  0.00    -0.278 OA
ATOM     23  H   UNL     1       1.136   2.977   0.009  0.00  0.00    +0.155 HD
BRANCH  21  24
ATOM     24  C   UNL     1      -1.314   1.904   0.023  0.00  0.00    +0.015 C 
BRANCH  24  25
ATOM     25  N   UNL     1      -2.410   0.925   0.024  0.00  0.00    +0.386 N 
ATOM     26  H   UNL     1      -2.343   0.299  -0.878  0.00  0.00    -0.085 HD
ATOM     27  H   UNL     1      -2.333   0.290   0.918  0.00  0.00    -0.085 HD
BRANCH  25  28
ATOM     28  C   UNL     1      -3.716   1.598   0.035  0.00  0.00    -0.066 C 
BRANCH  28  29
ATOM     29  C   UNL     1      -4.829   0.549   0.035  0.00  0.00    +0.065 C 
BRANCH  29  30
ATOM     30  N   UNL     1      -6.135   1.222   0.046  0.00  0.00    -0.300 NA
ATOM     31  C   UNL     1      -6.345   1.946   1.308  0.00  0.00    +0.112 C 
ATOM     32  C   UNL     1      -7.688   2.679   1.253  0.00  0.00    +0.175 C 
ATOM     33  O   UNL     1      -8.730   1.735   0.991  0.00  0.00    -0.377 OA
ATOM     34  C   UNL     1      -8.558   1.013  -0.231  0.00  0.00    +0.175 C 
ATOM     35  C   UNL     1      -7.224   0.263  -0.191  0.00  0.00    +0.112 C 
ENDBRANCH  29  30
ENDBRANCH  28  29
ENDBRANCH  25  28
ENDBRANCH  24  25
ENDBRANCH  21  24
ENDBRANCH   5  20
TORSDOF 8
