REMARK  Name = ZINC09713649
REMARK  10 active torsions:
REMARK  status: ('A' for Active; 'I' for Inactive)
REMARK    1  A    between atoms: C_1  and  C_2
REMARK    2  A    between atoms: C_6  and  N_9
REMARK    3  A    between atoms: C_7  and  C_8
REMARK    4  A    between atoms: C_10  and  C_12
REMARK    5  A    between atoms: C_12  and  N_75
REMARK    6  A    between atoms: C_18  and  C_20
REMARK    7  A    between atoms: C_20  and  N_21
REMARK    8  A    between atoms: C_26  and  C_33
REMARK    9  A    between atoms: C_29  and  C_31
REMARK   10  A    between atoms: C_29  and  C_32
REMARK                            x       y       z     vdW  Elec       q    Type
REMARK                         _______ _______ _______ _____ _____    ______ ____
ROOT
ATOM      1  C   UNL     1      -1.638  -0.365  -0.084  0.00  0.00    -0.059 C 
ATOM      2  C   UNL     1      -2.732  -1.437  -0.110  0.00  0.00    +0.089 C 
ATOM      3  N   UNL     1      -4.012  -0.808   0.249  0.00  0.00    -0.304 N 
ATOM      4  C   UNL     1      -4.069   0.004   1.474  0.00  0.00    +0.089 C 
ATOM      5  C   UNL     1      -2.922   1.020   1.438  0.00  0.00    -0.059 C 
ATOM      6  C   UNL     1      -5.104  -0.972  -0.524  0.00  0.00    +0.233 C 
ATOM      7  O   UNL     1      -6.151  -0.446  -0.212  0.00  0.00    -0.274 OA
ATOM      8  N   UNL     1      -1.649   0.292   1.242  0.00  0.00    +0.387 N 
ATOM      9  H   UNL     1      -1.560  -0.426   1.970  0.00  0.00    -0.081 HD
ENDROOT
BRANCH   8  10
ATOM     10  C   UNL     1      -0.511   1.229   1.350  0.00  0.00    +0.019 C 
BRANCH  10  12
ATOM     11  N   UNL     1       1.954   1.070   1.472  0.00  0.00    -0.287 N 
ATOM     12  C   UNL     1       0.770   0.436   1.365  0.00  0.00    +0.201 C 
ATOM     13  O   UNL     1       0.736  -0.773   1.276  0.00  0.00    -0.278 OA
ATOM     14  H   UNL     1       1.988   2.040   1.460  0.00  0.00    +0.155 HD
BRANCH  11  20
ATOM     15  C   UNL     1       6.827   0.746   0.901  0.00  0.00    +0.044 C 
ATOM     16  C   UNL     1       5.511   0.149   1.331  0.00  0.00    -0.046 A 
ATOM     17  C   UNL     1       5.471  -1.132   1.851  0.00  0.00    +0.004 A 
ATOM     18  C   UNL     1       4.266  -1.683   2.246  0.00  0.00    +0.002 A 
ATOM     19  C   UNL     1       3.098  -0.955   2.122  0.00  0.00    +0.023 A 
ATOM     20  C   UNL     1       3.135   0.331   1.599  0.00  0.00    +0.036 A 
ATOM     21  C   UNL     1       4.347   0.879   1.198  0.00  0.00    -0.026 A 
ATOM     22  C   UNL     1       4.391   2.272   0.625  0.00  0.00    +0.046 C 
ENDBRANCH  11  20
ENDBRANCH  10  12
ENDBRANCH   8  10
BRANCH   6  23
ATOM     23  C   UNL     1      -5.023  -1.808  -1.775  0.00  0.00    +0.213 C 
BRANCH  23  24
ATOM     24  N   UNL     1      -6.332  -1.830  -2.433  0.00  0.00    -0.215 N 
ATOM     25  C   UNL     1      -6.729  -0.935  -3.361  0.00  0.00    +0.247 C 
ATOM     26  O   UNL     1      -6.096   0.005  -3.793  0.00  0.00    -0.273 OA
ATOM     27  C   UNL     1      -8.130  -1.350  -3.749  0.00  0.00    +0.113 C 
ATOM     28  C   UNL     1      -8.188  -1.704  -5.231  0.00  0.00    +0.038 C 
ATOM     29  C   UNL     1      -9.606  -2.149  -5.597  0.00  0.00    -0.011 C 
ATOM     30  C   UNL     1     -10.590  -1.018  -5.286  0.00  0.00    +0.009 C 
ATOM     31  C   UNL     1     -10.537  -0.692  -3.792  0.00  0.00    -0.032 C 
ATOM     32  C   UNL     1      -9.123  -0.241  -3.419  0.00  0.00    +0.041 C 
ATOM     33  C   UNL     1     -11.529   0.431  -3.481  0.00  0.00    +0.011 C 
ATOM     34  C   UNL     1     -10.906  -1.937  -2.985  0.00  0.00    +0.011 C 
ATOM     35  C   UNL     1      -9.667  -2.483  -7.088  0.00  0.00    +0.007 C 
ATOM     36  N   UNL     1      -8.391  -2.537  -2.925  0.00  0.00    -0.285 N 
ATOM     37  C   UNL     1      -7.280  -2.744  -2.192  0.00  0.00    +0.310 C 
ATOM     38  O   UNL     1      -7.153  -3.656  -1.399  0.00  0.00    -0.252 OA
ATOM     39  H   UNL     1      -9.201  -3.069  -2.913  0.00  0.00    +0.151 HD
ENDBRANCH  23  24
ENDBRANCH   6  23
TORSDOF 5
