REMARK  Name = ZINC39984032
REMARK  4 active torsions:
REMARK  status: ('A' for Active; 'I' for Inactive)
REMARK    1  A    between atoms: C_9  and  S_14
REMARK    2  A    between atoms: C_11  and  O_13
REMARK    3  A    between atoms: S_14  and  C_15
REMARK    4  A    between atoms: C_18  and  C_21
REMARK                            x       y       z     vdW  Elec       q    Type
REMARK                         _______ _______ _______ _____ _____    ______ ____
ROOT
ATOM      1  C   UNL     1      -0.017   1.373   0.010  0.00  0.00    +0.000 A 
ATOM      2  C   UNL     1       1.178   2.071   0.002  0.00  0.00    +0.002 A 
ATOM      3  C   UNL     1       2.366   1.387  -0.018  0.00  0.00    +0.028 A 
ATOM      4  C   UNL     1       2.401  -0.025  -0.029  0.00  0.00    +0.071 A 
ATOM      5  C   UNL     1       1.200  -0.715  -0.012  0.00  0.00    -0.022 A 
ATOM      6  C   UNL     1       0.002  -0.004   0.002  0.00  0.00    +0.006 A 
ATOM      7  C   UNL     1       1.071  -2.206   0.008  0.00  0.00    +0.039 C 
ATOM      8  C   UNL     1       2.115  -2.952  -0.764  0.00  0.00    +0.029 C 
ATOM      9  C   UNL     1       3.449  -3.006  -0.061  0.00  0.00    +0.140 C 
ATOM     10  C   UNL     1       4.160  -1.701  -0.109  0.00  0.00    +0.201 C 
ATOM     11  N   UNL     1       3.635  -0.562  -0.062  0.00  0.00    -0.216 NA
ENDROOT
BRANCH  10  12
ATOM     12  O   UNL     1       5.504  -1.746  -0.213  0.00  0.00    -0.495 OA
ATOM     13  H   UNL     1       5.925  -0.876  -0.240  0.00  0.00    +0.293 HD
ENDBRANCH  10  12
BRANCH   9  14
ATOM     14  S   UNL     1       4.483  -4.267  -0.856  0.00  0.00    -0.074 S 
BRANCH  14  15
ATOM     15  C   UNL     1       5.931  -4.324   0.146  0.00  0.00    +0.185 A 
ATOM     16  N   UNL     1       6.162  -3.595   1.218  0.00  0.00    -0.203 NA
ATOM     17  H   UNL     1       7.119  -5.778  -0.755  0.00  0.00    +0.191 HD
ATOM     18  C   UNL     1       7.357  -3.903   1.722  0.00  0.00    +0.180 A 
ATOM     19  N   UNL     1       7.908  -4.829   0.984  0.00  0.00    -0.154 NA
ATOM     20  N   UNL     1       7.000  -5.127  -0.045  0.00  0.00    -0.253 N 
BRANCH  18  21
ATOM     21  C   UNL     1       7.975  -3.281   2.948  0.00  0.00    +0.188 C 
ATOM     22  C   UNL     1       9.089  -2.296   2.531  0.00  0.00    +0.042 C 
ATOM     23  C   UNL     1      10.175  -2.551   3.612  0.00  0.00    +0.031 C 
ATOM     24  C   UNL     1       9.991  -4.069   3.862  0.00  0.00    +0.161 C 
ATOM     25  O   UNL     1       8.575  -4.298   3.759  0.00  0.00    -0.369 OA
ENDBRANCH  18  21
ENDBRANCH  14  15
ENDBRANCH   9  14
TORSDOF 4
