REMARK  Name = ZINC67269136
REMARK  2 active torsions:
REMARK  status: ('A' for Active; 'I' for Inactive)
REMARK    1  A    between atoms: C_4  and  C_6
REMARK    2  A    between atoms: C_12  and  C_14
REMARK                            x       y       z     vdW  Elec       q    Type
REMARK                         _______ _______ _______ _____ _____    ______ ____
ROOT
ATOM      1  C   UNL     1      -1.120  -4.099  -0.544  0.00  0.00    +0.075 C 
ATOM      2  C   UNL     1      -1.071  -5.019  -1.766  0.00  0.00    +0.015 C 
ATOM      3  C   UNL     1      -1.514  -6.427  -1.361  0.00  0.00    +0.036 C 
ATOM      4  C   UNL     1      -2.931  -6.376  -0.799  0.00  0.00    +0.112 C 
ATOM      5  C   UNL     1      -3.001  -5.443   0.405  0.00  0.00    +0.036 C 
ATOM      6  C   UNL     1      -2.552  -4.039  -0.007  0.00  0.00    +0.015 C 
ATOM      7  C   UNL     1      -3.906  -5.935  -1.865  0.00  0.00    +0.244 C 
ATOM      8  O   UNL     1      -3.915  -4.880  -2.461  0.00  0.00    -0.273 OA
ATOM      9  N   UNL     1      -4.766  -6.965  -2.015  0.00  0.00    -0.238 N 
ATOM     10  C   UNL     1      -4.466  -7.980  -1.196  0.00  0.00    +0.307 C 
ATOM     11  O   UNL     1      -5.096  -9.018  -1.148  0.00  0.00    -0.252 OA
ATOM     12  N   UNL     1      -3.387  -7.723  -0.432  0.00  0.00    -0.285 N 
ATOM     13  H   UNL     1      -5.509  -6.968  -2.638  0.00  0.00    +0.159 HD
ATOM     14  H   UNL     1      -2.990  -8.311   0.229  0.00  0.00    +0.151 HD
ENDROOT
BRANCH   1  20
ATOM     15  C   UNL     1       1.216  -1.101  -1.278  0.00  0.00    +0.079 C 
ATOM     16  C   UNL     1       2.750  -1.260  -1.312  0.00  0.00    +0.024 C 
ATOM     17  C   UNL     1       2.937  -2.767  -1.632  0.00  0.00    +0.021 C 
ATOM     18  C   UNL     1       1.748  -3.397  -0.865  0.00  0.00    +0.108 C 
ATOM     19  N   UNL     1       0.642  -2.430  -1.020  0.00  0.00    -0.298 N 
ATOM     20  C   UNL     1      -0.673  -2.716  -0.939  0.00  0.00    +0.219 C 
ATOM     21  O   UNL     1      -1.496  -1.859  -1.182  0.00  0.00    -0.275 OA
BRANCH  15  25
ATOM     22  C   UNL     1      -0.556   1.883  -0.535  0.00  0.00    +0.000 C 
ATOM     23  C   UNL     1       0.761   2.279   0.176  0.00  0.00    +0.000 C 
ATOM     24  C   UNL     1       1.715   1.118  -0.199  0.00  0.00    +0.005 C 
ATOM     25  C   UNL     1       0.817  -0.136  -0.160  0.00  0.00    +0.010 C 
ATOM     26  C   UNL     1      -0.627   0.350  -0.374  0.00  0.00    +0.005 C 
ENDBRANCH  15  25
ENDBRANCH   1  20
TORSDOF 2
