REMARK  Name = ZINC04555220
REMARK  8 active torsions:
REMARK  status: ('A' for Active; 'I' for Inactive)
REMARK    1  A    between atoms: C_1  and  C_2
REMARK    2  A    between atoms: C_2  and  C_3
REMARK    3  A    between atoms: C_2  and  N_49
REMARK    4  A    between atoms: C_11  and  O_25
REMARK    5  A    between atoms: C_13  and  C_16
REMARK    6  A    between atoms: C_20  and  O_23
REMARK    7  A    between atoms: C_21  and  O_22
REMARK    8  A    between atoms: O_23  and  C_24
REMARK                            x       y       z     vdW  Elec       q    Type
REMARK                         _______ _______ _______ _____ _____    ______ ____
ROOT
ATOM      1  C   UNL     1       5.827   3.038  -1.127  0.00  0.00    -0.073 C 
ATOM      2  C   UNL     1       4.933   1.808  -0.946  0.00  0.00    +0.018 C 
ATOM      3  C   UNL     1       3.571   2.278  -0.447  0.00  0.00    -0.027 A 
ATOM      4  C   UNL     1       3.439   3.515   0.090  0.00  0.00    -0.021 A 
ATOM      5  S   UNL     1       1.725   3.642   0.522  0.00  0.00    -0.080 S 
ATOM      6  C   UNL     1       1.205   2.097   0.002  0.00  0.00    +0.080 A 
ATOM      7  C   UNL     1       2.360   1.484  -0.501  0.00  0.00    +0.067 A 
ATOM      8  C   UNL     1       2.221   0.101  -1.027  0.00  0.00    +0.220 C 
ATOM      9  N   UNL     1       1.097  -0.523  -0.808  0.00  0.00    -0.223 NA
ATOM     10  C   UNL     1       0.002  -0.004   0.002  0.00  0.00    +0.227 C 
ATOM     11  N   UNL     1      -0.018   1.470   0.010  0.00  0.00    -0.313 N 
ATOM     12  C   UNL     1       4.524   4.529   0.267  0.00  0.00    -0.035 C 
ATOM     13  H   UNL     1      -0.849   1.970   0.017  0.00  0.00    +0.149 HD
ATOM     14  N   UNL     1       5.825   3.833   0.117  0.00  0.00    +0.384 N 
ATOM     15  H   UNL     1       5.961   3.204   0.917  0.00  0.00    -0.081 HD
ENDROOT
BRANCH  10  16
ATOM     16  C   UNL     1       0.158  -0.501   1.416  0.00  0.00    +0.040 A 
ATOM     17  C   UNL     1      -0.251   0.288   2.475  0.00  0.00    +0.011 A 
ATOM     18  C   UNL     1      -0.110  -0.165   3.773  0.00  0.00    +0.004 A 
ATOM     19  C   UNL     1       0.440  -1.410   4.019  0.00  0.00    +0.049 A 
ATOM     20  C   UNL     1       0.852  -2.205   2.962  0.00  0.00    +0.162 A 
ATOM     21  C   UNL     1       0.705  -1.751   1.655  0.00  0.00    +0.165 A 
BRANCH  21  22
ATOM     22  O   UNL     1       1.102  -2.531   0.614  0.00  0.00    -0.503 OA
ATOM     23  H   UNL     1       2.023  -2.397   0.350  0.00  0.00    +0.292 HD
ENDBRANCH  21  22
BRANCH  20  24
ATOM     24  O   UNL     1       1.393  -3.430   3.201  0.00  0.00    -0.491 OA
ATOM     25  C   UNL     1       1.508  -3.833   4.568  0.00  0.00    +0.277 C 
ENDBRANCH  20  24
ENDBRANCH  10  16
BRANCH  14  27
ATOM     26  C   UNL     1       6.747   5.788  -1.081  0.00  0.00    -0.014 C 
ATOM     27  C   UNL     1       6.927   4.820   0.089  0.00  0.00    -0.074 C 
ATOM     28  C   UNL     1       6.927   5.603   1.404  0.00  0.00    -0.014 C 
ENDBRANCH  14  27
BRANCH   8  29
ATOM     29  O   UNL     1       3.227  -0.491  -1.712  0.00  0.00    -0.492 OA
ATOM     30  H   UNL     1       3.027  -1.390  -2.006  0.00  0.00    +0.294 HD
ENDBRANCH   8  29
TORSDOF 5
