REMARK  Name = ZINC23566139
REMARK  13 active torsions:
REMARK  status: ('A' for Active; 'I' for Inactive)
REMARK    1  A    between atoms: C_1  and  C_2
REMARK    2  A    between atoms: C_2  and  O_3
REMARK    3  A    between atoms: O_3  and  C_4
REMARK    4  A    between atoms: C_4  and  C_6
REMARK    5  A    between atoms: C_7  and  C_22
REMARK    6  A    between atoms: C_12  and  C_14
REMARK    7  A    between atoms: C_17  and  O_20
REMARK    8  A    between atoms: O_20  and  C_21
REMARK    9  A    between atoms: C_22  and  S_23
REMARK   10  A    between atoms: S_23  and  C_24
REMARK   11  A    between atoms: C_26  and  C_29
REMARK   12  A    between atoms: C_32  and  O_35
REMARK   13  A    between atoms: O_35  and  C_36
REMARK                            x       y       z     vdW  Elec       q    Type
REMARK                         _______ _______ _______ _____ _____    ______ ____
ROOT
ATOM      1  C   UNL     1      -1.020   8.335   1.213  0.00  0.00    +0.079 C 
ATOM      2  C   UNL     1      -0.721   7.779   0.019  0.00  0.00    +0.034 C 
ATOM      3  N   UNL     1      -1.190   8.317  -1.145  0.00  0.00    -0.272 N 
ATOM      4  C   UNL     1      -1.971   9.403  -1.200  0.00  0.00    +0.304 C 
ATOM      5  O   UNL     1      -2.344   9.806  -2.284  0.00  0.00    -0.252 OA
ATOM      6  N   UNL     1      -2.354  10.068  -0.091  0.00  0.00    -0.288 N 
ATOM      7  C   UNL     1      -1.896   9.571   1.217  0.00  0.00    +0.144 C 
ATOM      8  H   UNL     1      -0.929   7.856  -2.109  0.00  0.00    +0.156 HD
ATOM      9  H   UNL     1      -2.992  10.962  -0.147  0.00  0.00    +0.151 HD
ENDROOT
BRANCH   7  10
ATOM     10  C   UNL     1      -3.114   9.274   2.053  0.00  0.00    -0.022 A 
ATOM     11  C   UNL     1      -4.164   8.556   1.511  0.00  0.00    +0.009 A 
ATOM     12  C   UNL     1      -5.280   8.277   2.276  0.00  0.00    +0.046 A 
ATOM     13  C   UNL     1      -5.351   8.729   3.586  0.00  0.00    +0.120 A 
ATOM     14  C   UNL     1      -4.299   9.454   4.126  0.00  0.00    +0.046 A 
ATOM     15  C   UNL     1      -3.183   9.725   3.358  0.00  0.00    +0.009 A 
BRANCH  13  16
ATOM     16  O   UNL     1      -6.451   8.462   4.339  0.00  0.00    -0.495 OA
ATOM     17  C   UNL     1      -7.495   7.710   3.719  0.00  0.00    +0.277 C 
ENDBRANCH  13  16
ENDBRANCH   7  10
BRANCH   1  18
ATOM     18  C   UNL     1      -0.531   7.781   2.420  0.00  0.00    +0.339 C 
ATOM     19  O   UNL     1       0.049   6.712   2.408  0.00  0.00    -0.245 OA
BRANCH  18  20
ATOM     20  O   UNL     1      -0.707   8.440   3.584  0.00  0.00    -0.462 OA
BRANCH  20  22
ATOM     21  C   UNL     1      -0.481   8.710   5.975  0.00  0.00    +0.048 C 
ATOM     22  C   UNL     1      -0.187   7.823   4.764  0.00  0.00    +0.229 C 
ENDBRANCH  20  22
ENDBRANCH  18  20
ENDBRANCH   1  18
BRANCH   2  23
ATOM     23  C   UNL     1       0.148   6.549  -0.030  0.00  0.00    +0.128 C 
BRANCH  23  24
ATOM     24  S   UNL     1      -0.894   5.081  -0.221  0.00  0.00    -0.081 S 
BRANCH  24  25
ATOM     25  C   UNL     1       0.344   3.829  -0.248  0.00  0.00    +0.185 A 
ATOM     26  N   UNL     1       0.135   2.485  -0.381  0.00  0.00    -0.201 NA
ATOM     27  C   UNL     1       1.385   1.909  -0.344  0.00  0.00    +0.182 A 
ATOM     28  N   UNL     1       2.253   2.883  -0.199  0.00  0.00    -0.152 NA
ATOM     29  N   UNL     1       1.641   4.012  -0.145  0.00  0.00    -0.253 N 
ATOM     30  H   UNL     1       2.215   4.943  -0.028  0.00  0.00    +0.191 HD
BRANCH  27  31
ATOM     31  C   UNL     1       1.691   0.467  -0.450  0.00  0.00    +0.021 A 
ATOM     32  C   UNL     1       0.656  -0.460  -0.588  0.00  0.00    +0.015 A 
ATOM     33  C   UNL     1       0.947  -1.803  -0.692  0.00  0.00    +0.046 A 
ATOM     34  C   UNL     1       2.265  -2.236  -0.647  0.00  0.00    +0.120 A 
ATOM     35  C   UNL     1       3.297  -1.317  -0.504  0.00  0.00    +0.046 A 
ATOM     36  C   UNL     1       3.015   0.028  -0.406  0.00  0.00    +0.015 A 
BRANCH  34  37
ATOM     37  O   UNL     1       2.547  -3.562  -0.744  0.00  0.00    -0.495 OA
ATOM     38  C   UNL     1       1.439  -4.452  -0.889  0.00  0.00    +0.277 C 
ENDBRANCH  34  37
ENDBRANCH  27  31
ENDBRANCH  24  25
ENDBRANCH  23  24
ENDBRANCH   2  23
TORSDOF 10
