REMARK  Name = ZINC45724285
REMARK  9 active torsions:
REMARK  status: ('A' for Active; 'I' for Inactive)
REMARK    1  A    between atoms: C_1  and  C_2
REMARK    2  A    between atoms: C_2  and  N_3
REMARK    3  A    between atoms: N_3  and  C_4
REMARK    4  A    between atoms: C_4  and  C_5
REMARK    5  A    between atoms: C_6  and  C_8
REMARK    6  A    between atoms: C_8  and  N_9
REMARK    7  A    between atoms: N_18  and  C_19
REMARK    8  A    between atoms: C_24  and  C_25
REMARK    9  A    between atoms: C_25  and  C_26
REMARK                            x       y       z     vdW  Elec       q    Type
REMARK                         _______ _______ _______ _____ _____    ______ ____
ROOT
ATOM      1  N   UNL     1       3.997  -1.030   1.841  0.00  0.00    +0.386 N 
ATOM      2  C   UNL     1       4.369  -1.677   3.097  0.00  0.00    -0.077 C 
ATOM      3  C   UNL     1       5.510  -2.638   2.845  0.00  0.00    +0.000 C 
ATOM      4  C   UNL     1       6.848  -1.925   3.108  0.00  0.00    +0.107 C 
ATOM      5  N   UNL     1       6.818  -0.536   2.607  0.00  0.00    -0.287 N 
ATOM      6  C   UNL     1       6.216  -0.183   1.337  0.00  0.00    +0.091 C 
ATOM      7  C   UNL     1       4.719   0.146   1.539  0.00  0.00    -0.059 C 
ATOM      8  C   UNL     1       7.370   0.438   3.357  0.00  0.00    +0.306 C 
ATOM      9  O   UNL     1       7.801   0.182   4.465  0.00  0.00    -0.252 OA
ATOM     10  N   UNL     1       7.444   1.696   2.879  0.00  0.00    -0.269 N 
ATOM     11  H   UNL     1       7.040   1.915   2.025  0.00  0.00    +0.156 HD
ATOM     12  H   UNL     1       4.137  -1.691   1.091  0.00  0.00    -0.081 HD
ENDROOT
BRANCH  10  13
ATOM     13  C   UNL     1       8.105   2.686   3.615  0.00  0.00    +0.038 A 
ATOM     14  C   UNL     1       8.993   2.329   4.621  0.00  0.00    +0.023 A 
ATOM     15  C   UNL     1       9.643   3.309   5.346  0.00  0.00    +0.002 A 
ATOM     16  C   UNL     1       9.410   4.644   5.071  0.00  0.00    +0.000 A 
ATOM     17  C   UNL     1       8.526   5.003   4.070  0.00  0.00    +0.006 A 
ATOM     18  C   UNL     1       7.877   4.028   3.337  0.00  0.00    -0.017 A 
BRANCH  18  19
ATOM     19  C   UNL     1       6.918   4.419   2.243  0.00  0.00    +0.132 C 
BRANCH  19  20
ATOM     20  C   UNL     1       5.514   4.444   2.790  0.00  0.00    +0.215 C 
ATOM     21  O   UNL     1       5.312   4.170   3.954  0.00  0.00    -0.276 OA
ATOM     22  N   UNL     1       4.483   4.770   1.985  0.00  0.00    -0.329 N 
ATOM     23  H   UNL     1       4.645   4.989   1.054  0.00  0.00    +0.145 HD
ATOM     24  H   UNL     1       3.580   4.786   2.337  0.00  0.00    +0.145 HD
ENDBRANCH  19  20
ENDBRANCH  18  19
ENDBRANCH  10  13
BRANCH   1  25
ATOM     25  C   UNL     1       2.568  -0.694   1.898  0.00  0.00    +0.019 C 
BRANCH  25  27
ATOM     26  N   UNL     1       0.813   0.097   0.345  0.00  0.00    -0.304 N 
ATOM     27  C   UNL     1       2.098  -0.261   0.533  0.00  0.00    +0.199 C 
ATOM     28  O   UNL     1       2.877  -0.235  -0.396  0.00  0.00    -0.278 OA
BRANCH  26  30
ATOM     29  C   UNL     1       0.532   2.031  -1.126  0.00  0.00    +0.024 C 
ATOM     30  C   UNL     1       0.356   0.518  -0.982  0.00  0.00    +0.104 C 
ENDBRANCH  26  30
BRANCH  26  31
ATOM     31  C   UNL     1      -0.128   0.066   1.467  0.00  0.00    +0.104 C 
ATOM     32  C   UNL     1      -0.790  -1.312   1.539  0.00  0.00    +0.024 C 
ENDBRANCH  26  31
ENDBRANCH  25  27
ENDBRANCH   1  25
TORSDOF 7
