REMARK  Name = ZINC38776581
REMARK  4 active torsions:
REMARK  status: ('A' for Active; 'I' for Inactive)
REMARK    1  A    between atoms: C_1  and  C_2
REMARK    2  A    between atoms: C_2  and  C_4
REMARK    3  A    between atoms: C_2  and  N_21
REMARK    4  A    between atoms: C_22  and  C_24
REMARK                            x       y       z     vdW  Elec       q    Type
REMARK                         _______ _______ _______ _____ _____    ______ ____
ROOT
ATOM      1  C   UNL     1      -1.420  -0.486   0.130  0.00  0.00    +0.236 C 
ATOM      2  O   UNL     1      -1.880  -1.245  -0.697  0.00  0.00    -0.274 OA
ATOM      3  N   UNL     1      -2.181  -0.075   1.163  0.00  0.00    -0.300 N 
ATOM      4  C   UNL     1      -1.679   0.932   2.108  0.00  0.00    +0.106 C 
ATOM      5  C   UNL     1      -2.694   2.076   2.196  0.00  0.00    +0.009 C 
ATOM      6  C   UNL     1      -4.068   1.508   2.551  0.00  0.00    -0.037 C 
ATOM      7  C   UNL     1      -4.524   0.536   1.462  0.00  0.00    +0.009 C 
ATOM      8  C   UNL     1      -3.531  -0.619   1.363  0.00  0.00    +0.106 C 
ATOM      9  C   UNL     1      -5.079   2.648   2.680  0.00  0.00    +0.140 C 
ATOM     10  C   UNL     1      -6.372   2.002   3.169  0.00  0.00    +0.042 C 
ATOM     11  N   UNL     1      -7.269   2.318   2.320  0.00  0.00    -0.243 NA
ATOM     12  C   UNL     1      -6.749   3.008   1.275  0.00  0.00    +0.216 C 
ATOM     13  N   UNL     1      -5.457   3.228   1.390  0.00  0.00    -0.264 NA
ATOM     14  C   UNL     1      -6.389   1.086   4.367  0.00  0.00    +0.034 C 
ATOM     15  C   UNL     1      -5.233   0.090   4.153  0.00  0.00    -0.076 C 
ATOM     16  N   UNL     1      -3.994   0.805   3.840  0.00  0.00    +0.385 N 
ATOM     17  H   UNL     1      -3.233   0.143   3.808  0.00  0.00    -0.085 HD
ATOM     18  H   UNL     1      -3.811   1.478   4.569  0.00  0.00    -0.085 HD
ENDROOT
BRANCH   1  20
ATOM     19  C   UNL     1       0.023   1.329  -0.748  0.00  0.00    +0.038 C 
ATOM     20  C   UNL     1       0.002  -0.004   0.002  0.00  0.00    +0.156 C 
BRANCH  20  21
ATOM     21  N   UNL     1       0.789  -0.994  -0.738  0.00  0.00    -0.300 N 
ATOM     22  C   UNL     1       2.123  -1.063  -0.562  0.00  0.00    +0.251 C 
ATOM     23  O   UNL     1       2.675  -0.304   0.213  0.00  0.00    -0.270 OA
ATOM     24  H   UNL     1       0.349  -1.599  -1.356  0.00  0.00    +0.150 HD
BRANCH  22  25
ATOM     25  C   UNL     1       2.910  -2.053  -1.303  0.00  0.00    +0.074 A 
ATOM     26  C   UNL     1       4.275  -2.292  -1.263  0.00  0.00    +0.021 A 
ATOM     27  C   UNL     1       4.729  -3.298  -2.081  0.00  0.00    +0.008 A 
ATOM     28  C   UNL     1       3.841  -3.974  -2.850  0.00  0.00    +0.046 A 
ATOM     29  S   UNL     1       2.360  -3.270  -2.484  0.00  0.00    -0.092 S 
ENDBRANCH  22  25
ENDBRANCH  20  21
ENDBRANCH   1  20
TORSDOF 3
