REMARK  Name = ZINC67448782
REMARK  7 active torsions:
REMARK  status: ('A' for Active; 'I' for Inactive)
REMARK    1  A    between atoms: N_9  and  C_11
REMARK    2  A    between atoms: C_11  and  C_12
REMARK    3  A    between atoms: C_12  and  C_14
REMARK    4  A    between atoms: C_12  and  O_25
REMARK    5  A    between atoms: C_14  and  N_15
REMARK    6  A    between atoms: N_15  and  C_16
REMARK    7  A    between atoms: C_16  and  C_17
REMARK                            x       y       z     vdW  Elec       q    Type
REMARK                         _______ _______ _______ _____ _____    ______ ____
ROOT
ATOM      1  C   UNL     1       5.850  -2.244   1.278  0.00  0.00    +0.112 C 
ENDROOT
BRANCH   1   2
ATOM      2  O   UNL     1       5.373  -2.522   2.596  0.00  0.00    -0.392 OA
ATOM      3  H   UNL     1       5.267  -3.465   2.784  0.00  0.00    +0.210 HD
ENDBRANCH   1   2
BRANCH   1   4
ATOM      4  C   UNL     1       4.863  -2.801   0.250  0.00  0.00    +0.114 C 
BRANCH   4  13
ATOM      5  C   UNL     1      -0.017   1.376   0.010  0.00  0.00    +0.000 A 
ATOM      6  C   UNL     1       1.173   2.080   0.002  0.00  0.00    +0.000 A 
ATOM      7  C   UNL     1       2.374   1.400  -0.015  0.00  0.00    +0.005 A 
ATOM      8  C   UNL     1       2.395   0.013  -0.024  0.00  0.00    -0.030 A 
ATOM      9  C   UNL     1       1.208  -0.688  -0.012  0.00  0.00    -0.042 A 
ATOM     10  C   UNL     1       0.002  -0.004   0.002  0.00  0.00    +0.004 A 
ATOM     11  C   UNL     1       1.180  -2.195  -0.009  0.00  0.00    +0.051 C 
ATOM     12  C   UNL     1       2.541  -2.744  -0.440  0.00  0.00    +0.089 C 
ATOM     13  N   UNL     1       3.585  -2.085   0.361  0.00  0.00    -0.295 NA
ATOM     14  C   UNL     1       3.730  -0.684  -0.048  0.00  0.00    +0.120 C 
ENDBRANCH   4  13
ENDBRANCH   1   4
BRANCH   1  15
ATOM     15  C   UNL     1       7.217  -2.901   1.080  0.00  0.00    -0.049 C 
BRANCH  15  16
ATOM     16  N   UNL     1       8.165  -2.366   2.067  0.00  0.00    +0.383 N 
ATOM     17  H   UNL     1       8.251  -1.368   1.944  0.00  0.00    -0.085 HD
ATOM     18  H   UNL     1       7.829  -2.563   2.998  0.00  0.00    -0.085 HD
BRANCH  16  19
ATOM     19  C   UNL     1       9.478  -2.997   1.877  0.00  0.00    -0.047 C 
BRANCH  19  20
ATOM     20  C   UNL     1      10.450  -2.448   2.889  0.00  0.00    -0.062 A 
ATOM     21  C   UNL     1      11.198  -1.325   2.590  0.00  0.00    +0.003 A 
ATOM     22  C   UNL     1      12.091  -0.820   3.517  0.00  0.00    +0.023 A 
ATOM     23  C   UNL     1      12.236  -1.439   4.746  0.00  0.00    +0.076 A 
ATOM     24  C   UNL     1      11.486  -2.564   5.046  0.00  0.00    +0.142 A 
ATOM     25  C   UNL     1      10.589  -3.065   4.118  0.00  0.00    +0.041 A 
ATOM     26  F   UNL     1      11.626  -3.170   6.246  0.00  0.00    -0.204 F 
ATOM     27 CL   UNL     1      13.357  -0.806   5.910  0.00  0.00    -0.081 Cl
ENDBRANCH  19  20
ENDBRANCH  16  19
ENDBRANCH  15  16
ENDBRANCH   1  15
TORSDOF 7
