REMARK  Name = ZINC21139111
REMARK  10 active torsions:
REMARK  status: ('A' for Active; 'I' for Inactive)
REMARK    1  A    between atoms: C_4  and  S_7
REMARK    2  A    between atoms: S_7  and  C_8
REMARK    3  A    between atoms: C_13  and  N_14
REMARK    4  A    between atoms: C_15  and  C_17
REMARK    5  A    between atoms: C_17  and  O_18
REMARK    6  A    between atoms: O_18  and  C_19
REMARK    7  A    between atoms: C_19  and  C_21
REMARK    8  A    between atoms: C_21  and  C_22
REMARK    9  A    between atoms: C_22  and  C_24
REMARK   10  A    between atoms: C_22  and  N_31
REMARK                            x       y       z     vdW  Elec       q    Type
REMARK                         _______ _______ _______ _____ _____    ______ ____
ROOT
ATOM      1  O   UNL     1       4.273   6.692   2.253  0.00  0.00    -0.455 OA
ENDROOT
BRANCH   1   2
ATOM      2  C   UNL     1       3.654   6.352   1.112  0.00  0.00    +0.310 C 
ATOM      3  O   UNL     1       4.218   6.496   0.053  0.00  0.00    -0.251 OA
BRANCH   2   4
ATOM      4  C   UNL     1       2.256   5.790   1.151  0.00  0.00    +0.147 C 
BRANCH   4   5
ATOM      5  C   UNL     1       1.788   5.488  -0.274  0.00  0.00    +0.117 C 
BRANCH   5   6
ATOM      6  C   UNL     1       0.348   5.042  -0.246  0.00  0.00    -0.008 A 
ATOM      7  C   UNL     1      -0.235   4.664   0.949  0.00  0.00    +0.007 A 
ATOM      8  C   UNL     1      -1.555   4.255   0.975  0.00  0.00    +0.000 A 
ATOM      9  C   UNL     1      -2.291   4.218  -0.195  0.00  0.00    +0.001 A 
ATOM     10  C   UNL     1      -1.711   4.602  -1.389  0.00  0.00    +0.020 A 
ATOM     11  C   UNL     1      -0.390   5.012  -1.415  0.00  0.00    +0.046 A 
ATOM     12 CL   UNL     1       0.342   5.488  -2.916  0.00  0.00    -0.083 Cl
ENDBRANCH   5   6
BRANCH   5  13
ATOM     13  N   UNL     1       2.617   4.424  -0.846  0.00  0.00    -0.292 N 
ATOM     14  C   UNL     1       2.613   3.195  -0.292  0.00  0.00    +0.298 C 
ATOM     15  O   UNL     1       1.852   2.943   0.622  0.00  0.00    -0.253 OA
ATOM     16  N   UNL     1       3.451   2.246  -0.752  0.00  0.00    -0.313 N 
ATOM     17  H   UNL     1       3.244   4.628  -1.726  0.00  0.00    +0.151 HD
ATOM     18  H   UNL     1       3.448   1.243  -0.300  0.00  0.00    +0.146 HD
ATOM     19  H   UNL     1       4.139   2.474  -1.579  0.00  0.00    +0.146 HD
ENDBRANCH   5  13
ENDBRANCH   4   5
ENDBRANCH   2   4
ENDBRANCH   1   2
BRANCH   1  20
ATOM     20  C   UNL     1       5.618   7.227   2.139  0.00  0.00    +0.328 C 
BRANCH  20  22
ATOM     21  N   UNL     1       7.387   8.061   3.654  0.00  0.00    -0.282 N 
ATOM     22  C   UNL     1       6.148   7.550   3.513  0.00  0.00    +0.255 C 
ATOM     23  O   UNL     1       5.460   7.349   4.491  0.00  0.00    -0.272 OA
ATOM     24  H   UNL     1       8.031   8.194   2.772  0.00  0.00    +0.155 HD
BRANCH  21  30
ATOM     25  C   UNL     1       9.046   9.137   5.053  0.00  0.00    +0.034 A 
ATOM     26  C   UNL     1       9.501   9.497   6.314  0.00  0.00    +0.017 A 
ATOM     27  C   UNL     1       8.780   9.139   7.437  0.00  0.00    +0.001 A 
ATOM     28  C   UNL     1       7.601   8.428   7.309  0.00  0.00    +0.002 A 
ATOM     29  C   UNL     1       7.137   8.070   6.056  0.00  0.00    +0.024 A 
ATOM     30  C   UNL     1       7.854   8.424   4.924  0.00  0.00    +0.047 A 
BRANCH  25  31
ATOM     31  S   UNL     1       9.968   9.585   3.620  0.00  0.00    -0.088 S 
BRANCH  31  35
ATOM     32  C   UNL     1      12.139   5.777   2.479  0.00  0.00    +0.000 A 
ATOM     33  C   UNL     1      12.378   6.944   1.777  0.00  0.00    +0.001 A 
ATOM     34  C   UNL     1      11.718   8.107   2.122  0.00  0.00    +0.015 A 
ATOM     35  C   UNL     1      10.813   8.104   3.176  0.00  0.00    +0.013 A 
ATOM     36  C   UNL     1      10.579   6.930   3.884  0.00  0.00    +0.015 A 
ATOM     37  C   UNL     1      11.238   5.770   3.529  0.00  0.00    +0.001 A 
ENDBRANCH  31  35
ENDBRANCH  25  31
ENDBRANCH  21  30
ENDBRANCH  20  22
ENDBRANCH   1  20
TORSDOF 10
