REMARK  Name = ZINC63384343
REMARK  11 active torsions:
REMARK  status: ('A' for Active; 'I' for Inactive)
REMARK    1  A    between atoms: C_1  and  C_2
REMARK    2  A    between atoms: C_2  and  C_3
REMARK    3  A    between atoms: C_3  and  C_5
REMARK    4  A    between atoms: C_3  and  N_6
REMARK    5  A    between atoms: C_7  and  C_9
REMARK    6  A    between atoms: C_9  and  C_11
REMARK    7  A    between atoms: C_9  and  N_15
REMARK    8  A    between atoms: C_11  and  C_12
REMARK    9  A    between atoms: C_12  and  S_13
REMARK   10  A    between atoms: S_13  and  C_14
REMARK   11  A    between atoms: C_16  and  C_18
REMARK                            x       y       z     vdW  Elec       q    Type
REMARK                         _______ _______ _______ _____ _____    ______ ____
ROOT
ATOM      1  C   UNL     1      -7.795   1.201   3.039  0.00  0.00    +0.167 C 
ATOM      2  C   UNL     1      -8.114   1.732   1.629  0.00  0.00    +0.065 C 
ATOM      3  C   UNL     1      -8.866   3.028   1.804  0.00  0.00    -0.034 C 
ATOM      4  C   UNL     1     -10.020   3.434   1.281  0.00  0.00    -0.001 A 
ATOM      5  C   UNL     1     -10.913   2.817   0.288  0.00  0.00    +0.010 A 
ATOM      6  C   UNL     1     -12.043   3.510  -0.014  0.00  0.00    +0.001 A 
ATOM      7  C   UNL     1     -12.368   4.741   0.565  0.00  0.00    +0.002 A 
ATOM      8  C   UNL     1     -11.601   5.384   1.480  0.00  0.00    +0.026 A 
ATOM      9  C   UNL     1     -10.384   4.756   1.874  0.00  0.00    +0.043 A 
ATOM     10  N   UNL     1      -9.464   5.149   2.705  0.00  0.00    -0.375 N 
ATOM     11  C   UNL     1      -8.385   4.161   2.700  0.00  0.00    +0.131 C 
ATOM     12  C   UNL     1      -8.141   3.570   4.087  0.00  0.00    +0.134 C 
ATOM     13  N   UNL     1      -8.395   2.116   4.019  0.00  0.00    -0.276 N 
ATOM     14  C   UNL     1      -9.272   1.788   4.987  0.00  0.00    +0.248 C 
ATOM     15  O   UNL     1      -9.596   0.653   5.278  0.00  0.00    -0.270 OA
ATOM     16  C   UNL     1      -9.779   2.998   5.636  0.00  0.00    +0.042 A 
ATOM     17  C   UNL     1      -9.086   4.130   5.098  0.00  0.00    -0.013 A 
ATOM     18  C   UNL     1      -9.337   5.420   5.508  0.00  0.00    +0.006 A 
ATOM     19  C   UNL     1     -10.299   5.593   6.499  0.00  0.00    +0.000 A 
ATOM     20  C   UNL     1     -10.974   4.523   7.052  0.00  0.00    +0.001 A 
ATOM     21  C   UNL     1     -10.748   3.164   6.629  0.00  0.00    +0.013 A 
ATOM     22  H   UNL     1      -9.489   5.960   3.237  0.00  0.00    +0.160 HD
ENDROOT
BRANCH   1  24
ATOM     23  N   UNL     1      -5.542   0.379   2.437  0.00  0.00    -0.302 N 
ATOM     24  C   UNL     1      -6.302   1.150   3.239  0.00  0.00    +0.235 C 
ATOM     25  O   UNL     1      -5.785   1.803   4.120  0.00  0.00    -0.274 OA
ATOM     26  H   UNL     1      -5.955  -0.143   1.732  0.00  0.00    +0.150 HD
BRANCH  23  27
ATOM     27  C   UNL     1      -4.090   0.329   2.630  0.00  0.00    +0.160 C 
BRANCH  27  29
ATOM     28  N   UNL     1      -2.082  -0.162   1.273  0.00  0.00    -0.311 N 
ATOM     29  C   UNL     1      -3.424  -0.053   1.334  0.00  0.00    +0.234 C 
ATOM     30  O   UNL     1      -4.095  -0.264   0.346  0.00  0.00    -0.274 OA
ATOM     31  H   UNL     1      -1.545   0.006   2.063  0.00  0.00    +0.149 HD
BRANCH  28  32
ATOM     32  C   UNL     1      -1.433  -0.534   0.013  0.00  0.00    +0.070 C 
ATOM     33  C   UNL     1      -1.416  -2.058  -0.121  0.00  0.00    +0.028 C 
BRANCH  32  35
ATOM     34  C   UNL     1      -0.019   1.526   0.010  0.00  0.00    +0.005 C 
ATOM     35  C   UNL     1       0.002  -0.004   0.002  0.00  0.00    +0.018 C 
ENDBRANCH  32  35
ENDBRANCH  28  32
ENDBRANCH  27  29
BRANCH  27  36
ATOM     36  C   UNL     1      -3.754  -0.709   3.703  0.00  0.00    +0.042 C 
BRANCH  36  37
ATOM     37  C   UNL     1      -4.326  -0.257   5.048  0.00  0.00    +0.071 C 
BRANCH  37  38
ATOM     38  S   UNL     1      -3.928  -1.488   6.319  0.00  0.00    -0.164 S 
ATOM     39  C   UNL     1      -4.666  -0.812   7.832  0.00  0.00    +0.084 C 
ENDBRANCH  37  38
ENDBRANCH  36  37
ENDBRANCH  27  36
ENDBRANCH  23  27
ENDBRANCH   1  24
TORSDOF 8
