REMARK  Name = ZINC39944624
REMARK  9 active torsions:
REMARK  status: ('A' for Active; 'I' for Inactive)
REMARK    1  A    between atoms: C_1  and  O_2
REMARK    2  A    between atoms: O_2  and  C_3
REMARK    3  A    between atoms: C_5  and  N_32
REMARK    4  A    between atoms: C_8  and  C_9
REMARK    5  A    between atoms: C_9  and  O_11
REMARK    6  A    between atoms: O_11  and  C_12
REMARK    7  A    between atoms: C_12  and  C_13
REMARK    8  A    between atoms: C_13  and  C_15
REMARK    9  A    between atoms: C_23  and  C_25
REMARK                            x       y       z     vdW  Elec       q    Type
REMARK                         _______ _______ _______ _____ _____    ______ ____
ROOT
ATOM      1  C   UNL     1      -0.313  -6.384   0.678  0.00  0.00    +0.199 C 
ATOM      2  O   UNL     1       0.256  -6.770  -0.322  0.00  0.00    -0.289 OA
ENDROOT
BRANCH   1   3
ATOM      3  C   UNL     1      -0.826  -7.319   1.603  0.00  0.00    +0.034 C 
ATOM      4  C   UNL     1      -1.500  -7.048   2.780  0.00  0.00    +0.007 A 
ATOM      5  C   UNL     1      -1.879  -5.842   3.416  0.00  0.00    +0.010 A 
ATOM      6  C   UNL     1      -2.548  -5.872   4.590  0.00  0.00    +0.001 A 
ATOM      7  C   UNL     1      -2.894  -7.073   5.230  0.00  0.00    +0.002 A 
ATOM      8  C   UNL     1      -2.579  -8.278   4.707  0.00  0.00    +0.026 A 
ATOM      9  C   UNL     1      -1.851  -8.335   3.429  0.00  0.00    +0.044 A 
ATOM     10  N   UNL     1      -1.428  -9.337   2.713  0.00  0.00    -0.373 N 
ATOM     11  C   UNL     1      -0.758  -8.828   1.512  0.00  0.00    +0.144 C 
ATOM     12  H   UNL     1      -1.542 -10.274   2.937  0.00  0.00    +0.161 HD
BRANCH  11  13
ATOM     13  C   UNL     1       0.678  -9.282   1.490  0.00  0.00    -0.021 A 
ATOM     14  C   UNL     1       1.393  -9.370   2.670  0.00  0.00    +0.006 A 
ATOM     15  C   UNL     1       2.711  -9.787   2.650  0.00  0.00    +0.000 A 
ATOM     16  C   UNL     1       3.313 -10.117   1.450  0.00  0.00    +0.000 A 
ATOM     17  C   UNL     1       2.598 -10.031   0.271  0.00  0.00    +0.000 A 
ATOM     18  C   UNL     1       1.279  -9.618   0.291  0.00  0.00    +0.006 A 
ENDBRANCH  11  13
ENDBRANCH   1   3
BRANCH   1  19
ATOM     19  C   UNL     1      -0.472  -4.908   0.933  0.00  0.00    +0.311 C 
BRANCH  19  20
ATOM     20  O   UNL     1       0.125  -4.173  -0.138  0.00  0.00    -0.453 OA
BRANCH  20  21
ATOM     21  C   UNL     1       0.068  -2.828  -0.063  0.00  0.00    +0.343 C 
ATOM     22  O   UNL     1      -0.473  -2.294   0.885  0.00  0.00    -0.245 OA
BRANCH  21  28
ATOM     23  C   UNL     1       0.605  -0.606  -1.054  0.00  0.00    +0.136 A 
ATOM     24  C   UNL     1       1.171   0.158  -2.059  0.00  0.00    +0.070 A 
ATOM     25  C   UNL     1       1.787  -0.464  -3.138  0.00  0.00    +0.047 A 
ATOM     26  C   UNL     1       1.836  -1.857  -3.212  0.00  0.00    +0.063 A 
ATOM     27  C   UNL     1       1.280  -2.619  -2.226  0.00  0.00    +0.040 A 
ATOM     28  C   UNL     1       0.662  -2.007  -1.129  0.00  0.00    +0.102 A 
ATOM     29 CL   UNL     1       2.608  -2.623  -4.565  0.00  0.00    -0.082 Cl
BRANCH  25  30
ATOM     30  N   UNL     1       2.356   0.304  -4.148  0.00  0.00    -0.357 N 
ATOM     31  H   UNL     1       2.323   1.272  -4.099  0.00  0.00    +0.142 HD
ATOM     32  H   UNL     1       2.787  -0.129  -4.902  0.00  0.00    +0.142 HD
ENDBRANCH  25  30
BRANCH  23  34
ATOM     33  C   UNL     1      -0.017   1.425   0.010  0.00  0.00    +0.277 C 
ATOM     34  O   UNL     1       0.002  -0.004   0.002  0.00  0.00    -0.494 OA
ENDBRANCH  23  34
ENDBRANCH  21  28
ENDBRANCH  20  21
ENDBRANCH  19  20
ENDBRANCH   1  19
TORSDOF 8
