REMARK  Name = ZINC07092894
REMARK  11 active torsions:
REMARK  status: ('A' for Active; 'I' for Inactive)
REMARK    1  A    between atoms: C_1  and  C_2
REMARK    2  A    between atoms: C_6  and  C_28
REMARK    3  A    between atoms: C_7  and  N_8
REMARK    4  A    between atoms: C_9  and  C_11
REMARK    5  A    between atoms: C_11  and  N_12
REMARK    6  A    between atoms: C_13  and  C_15
REMARK    7  A    between atoms: C_15  and  C_17
REMARK    8  A    between atoms: C_15  and  N_52
REMARK    9  A    between atoms: C_18  and  C_20
REMARK   10  A    between atoms: C_18  and  C_21
REMARK   11  A    between atoms: C_18  and  N_52
REMARK                            x       y       z     vdW  Elec       q    Type
REMARK                         _______ _______ _______ _____ _____    ______ ____
ROOT
ATOM      1  N   UNL     1      -5.918   3.217  -4.120  0.00  0.00    -0.308 N 
ATOM      2  C   UNL     1      -4.832   2.551  -3.678  0.00  0.00    +0.199 C 
ATOM      3  O   UNL     1      -4.952   1.438  -3.213  0.00  0.00    -0.278 OA
ATOM      4  H   UNL     1      -5.822   4.108  -4.492  0.00  0.00    +0.149 HD
ENDROOT
BRANCH   2   5
ATOM      5  C   UNL     1      -3.470   3.190  -3.763  0.00  0.00    +0.014 C 
ATOM      6  C   UNL     1      -3.464   4.487  -2.950  0.00  0.00    -0.004 C 
BRANCH   5   7
ATOM      7  N   UNL     1      -2.459   2.268  -3.211  0.00  0.00    +0.391 N 
ATOM      8  H   UNL     1      -2.870   1.742  -2.431  0.00  0.00    -0.084 HD
ATOM      9  H   UNL     1      -1.655   2.811  -2.873  0.00  0.00    -0.084 HD
BRANCH   7  10
ATOM     10  C   UNL     1      -2.006   1.324  -4.250  0.00  0.00    -0.042 C 
ATOM     11  C   UNL     1      -0.932   1.990  -5.113  0.00  0.00    -0.009 C 
BRANCH  10  12
ATOM     12  C   UNL     1      -1.431   0.099  -3.587  0.00  0.00    -0.043 A 
ATOM     13  C   UNL     1      -1.021   0.155  -2.268  0.00  0.00    +0.003 A 
ATOM     14  C   UNL     1      -0.488  -0.968  -1.662  0.00  0.00    +0.000 A 
ATOM     15  C   UNL     1      -0.375  -2.149  -2.371  0.00  0.00    +0.001 A 
ATOM     16  C   UNL     1      -0.789  -2.207  -3.688  0.00  0.00    +0.020 A 
ATOM     17  C   UNL     1      -1.318  -1.083  -4.297  0.00  0.00    +0.043 A 
ATOM     18 CL   UNL     1      -1.839  -1.155  -5.951  0.00  0.00    -0.083 Cl
ENDBRANCH  10  12
ENDBRANCH   7  10
ENDBRANCH   5   7
ENDBRANCH   2   5
BRANCH   1  19
ATOM     19  C   UNL     1      -7.242   2.596  -4.038  0.00  0.00    +0.200 C 
BRANCH  19  21
ATOM     20  N   UNL     1      -9.574   3.181  -4.620  0.00  0.00    -0.284 N 
ATOM     21  C   UNL     1      -8.275   3.542  -4.593  0.00  0.00    +0.234 C 
ATOM     22  O   UNL     1      -7.939   4.628  -5.016  0.00  0.00    -0.274 OA
ATOM     23  H   UNL     1      -9.848   2.329  -4.246  0.00  0.00    +0.155 HD
BRANCH  20  30
ATOM     24  C   UNL     1     -11.159   2.189  -6.766  0.00  0.00    +0.045 C 
ATOM     25  C   UNL     1     -11.320   3.591  -6.237  0.00  0.00    -0.029 A 
ATOM     26  C   UNL     1     -12.263   4.435  -6.792  0.00  0.00    +0.005 A 
ATOM     27  C   UNL     1     -12.408   5.723  -6.311  0.00  0.00    +0.001 A 
ATOM     28  C   UNL     1     -11.614   6.170  -5.270  0.00  0.00    +0.005 A 
ATOM     29  C   UNL     1     -10.674   5.330  -4.708  0.00  0.00    -0.029 A 
ATOM     30  C   UNL     1     -10.526   4.035  -5.188  0.00  0.00    +0.039 A 
ATOM     31  C   UNL     1      -9.810   5.817  -3.573  0.00  0.00    +0.045 C 
ENDBRANCH  20  30
ENDBRANCH  19  21
ENDBRANCH   1  19
TORSDOF 7
