REMARK  Name = ZINC42574216
REMARK  11 active torsions:
REMARK  status: ('A' for Active; 'I' for Inactive)
REMARK    1  A    between atoms: C_1  and  C_2
REMARK    2  A    between atoms: C_2  and  C_3
REMARK    3  A    between atoms: C_2  and  C_4
REMARK    4  A    between atoms: C_4  and  C_6
REMARK    5  A    between atoms: C_4  and  N_13
REMARK    6  A    between atoms: N_13  and  C_14
REMARK    7  A    between atoms: C_14  and  C_15
REMARK    8  A    between atoms: C_15  and  O_16
REMARK    9  A    between atoms: O_16  and  C_17
REMARK   10  A    between atoms: C_20  and  S_23
REMARK   11  A    between atoms: S_23  and  N_26
REMARK                            x       y       z     vdW  Elec       q    Type
REMARK                         _______ _______ _______ _____ _____    ______ ____
ROOT
ATOM      1  C   UNL     1       2.086   1.487   1.115  0.00  0.00    -0.040 C 
ENDROOT
BRANCH   1   2
ATOM      2  N   UNL     1       2.103   0.024   0.987  0.00  0.00    +0.386 N 
ATOM      3  H   UNL     1       2.656  -0.373   1.732  0.00  0.00    -0.085 HD
ATOM      4  H   UNL     1       2.506  -0.231   0.097  0.00  0.00    -0.085 HD
BRANCH   2   5
ATOM      5  C   UNL     1       0.730  -0.491   1.068  0.00  0.00    -0.038 C 
BRANCH   5   6
ATOM      6  C   UNL     1       0.175  -0.225   2.444  0.00  0.00    -0.061 A 
ATOM      7  C   UNL     1       0.981  -0.380   3.556  0.00  0.00    +0.003 A 
ATOM      8  C   UNL     1       0.472  -0.137   4.818  0.00  0.00    +0.020 A 
ATOM      9  C   UNL     1      -0.844   0.262   4.968  0.00  0.00    +0.041 A 
ATOM     10  C   UNL     1      -1.650   0.417   3.854  0.00  0.00    +0.020 A 
ATOM     11  C   UNL     1      -1.139   0.178   2.592  0.00  0.00    +0.003 A 
ATOM     12 CL   UNL     1      -1.484   0.567   6.553  0.00  0.00    -0.084 Cl
ENDBRANCH   5   6
BRANCH   5  14
ATOM     13  C   UNL     1      -0.686  -2.546   0.959  0.00  0.00    +0.006 C 
ATOM     14  C   UNL     1       0.733  -1.997   0.801  0.00  0.00    -0.027 C 
ATOM     15  C   UNL     1       1.227  -2.262  -0.623  0.00  0.00    +0.006 C 
ENDBRANCH   5  14
ENDBRANCH   2   5
ENDBRANCH   1   2
BRANCH   1  16
ATOM     16  C   UNL     1       3.522   2.017   1.104  0.00  0.00    +0.210 C 
BRANCH  16  17
ATOM     17  O   UNL     1       4.116   1.756  -0.169  0.00  0.00    -0.494 OA
BRANCH  17  18
ATOM     18  C   UNL     1       5.399   2.166  -0.346  0.00  0.00    +0.121 A 
ATOM     19  C   UNL     1       6.075   2.801   0.686  0.00  0.00    +0.047 A 
ATOM     20  C   UNL     1       7.380   3.217   0.503  0.00  0.00    +0.032 A 
ATOM     21  C   UNL     1       8.012   3.001  -0.707  0.00  0.00    +0.105 A 
ATOM     22  C   UNL     1       7.341   2.369  -1.737  0.00  0.00    +0.032 A 
ATOM     23  C   UNL     1       6.038   1.946  -1.558  0.00  0.00    +0.047 A 
BRANCH  21  24
ATOM     24  S   UNL     1       9.676   3.533  -0.937  0.00  0.00    +0.056 S 
ATOM     25  O   UNL     1       9.859   3.701  -2.336  0.00  0.00    -0.153 OA
ATOM     26  O   UNL     1       9.899   4.584  -0.007  0.00  0.00    -0.153 OA
BRANCH  24  27
ATOM     27  N   UNL     1      10.658   2.280  -0.479  0.00  0.00    -0.204 NA
ATOM     28  H   UNL     1      11.525   2.164  -0.900  0.00  0.00    +0.144 HD
ATOM     29  H   UNL     1      10.367   1.662   0.209  0.00  0.00    +0.144 HD
ENDBRANCH  24  27
ENDBRANCH  21  24
ENDBRANCH  17  18
ENDBRANCH  16  17
ENDBRANCH   1  16
TORSDOF 9
