REMARK  Name = ZINC49143559
REMARK  7 active torsions:
REMARK  status: ('A' for Active; 'I' for Inactive)
REMARK    1  A    between atoms: C_1  and  C_2
REMARK    2  A    between atoms: C_2  and  C_3
REMARK    3  A    between atoms: C_3  and  C_4
REMARK    4  A    between atoms: C_4  and  N_5
REMARK    5  A    between atoms: N_8  and  N_9
REMARK    6  A    between atoms: C_10  and  C_12
REMARK    7  A    between atoms: C_12  and  N_13
REMARK                            x       y       z     vdW  Elec       q    Type
REMARK                         _______ _______ _______ _____ _____    ______ ____
ROOT
ATOM      1  N   UNL     1       2.795  -3.384   4.639  0.00  0.00    -0.235 N 
ATOM      2  C   UNL     1       3.447  -3.831   5.731  0.00  0.00    +0.213 C 
ATOM      3  O   UNL     1       3.576  -5.023   5.915  0.00  0.00    -0.276 OA
ATOM      4  H   UNL     1       2.692  -2.431   4.491  0.00  0.00    +0.173 HD
ENDROOT
BRANCH   1   8
ATOM      5  N   UNL     1       1.471  -2.526   2.420  0.00  0.00    -0.298 N 
ATOM      6  C   UNL     1       1.615  -3.850   2.625  0.00  0.00    +0.316 C 
ATOM      7  O   UNL     1       1.156  -4.643   1.825  0.00  0.00    -0.251 OA
ATOM      8  N   UNL     1       2.266  -4.297   3.717  0.00  0.00    -0.218 N 
ATOM      9  H   UNL     1       1.837  -1.894   3.058  0.00  0.00    +0.150 HD
ATOM     10  H   UNL     1       2.369  -5.250   3.864  0.00  0.00    +0.174 HD
BRANCH   5  11
ATOM     11  C   UNL     1       0.763  -2.041   1.233  0.00  0.00    +0.106 C 
BRANCH  11  12
ATOM     12  C   UNL     1       0.742  -0.511   1.242  0.00  0.00    +0.018 C 
BRANCH  12  14
ATOM     13  C   UNL     1      -0.019   1.526   0.010  0.00  0.00    +0.004 C 
ATOM     14  C   UNL     1       0.002  -0.004   0.002  0.00  0.00    -0.002 C 
ENDBRANCH  12  14
ENDBRANCH  11  12
ENDBRANCH   5  11
ENDBRANCH   1   8
BRANCH   2  15
ATOM     15  C   UNL     1       4.016  -2.849   6.723  0.00  0.00    +0.020 C 
BRANCH  15  16
ATOM     16  N   UNL     1       4.672  -3.581   7.814  0.00  0.00    +0.388 N 
ATOM     17  C   UNL     1       3.672  -4.375   8.530  0.00  0.00    -0.055 C 
ATOM     18  C   UNL     1       4.367  -5.403   9.429  0.00  0.00    +0.147 C 
ATOM     19  S   UNL     1       5.346  -4.510  10.676  0.00  0.00    -0.034 S 
ATOM     20  O   UNL     1       4.460  -3.758  11.493  0.00  0.00    -0.174 OA
ATOM     21  O   UNL     1       6.245  -5.425  11.286  0.00  0.00    -0.174 OA
ATOM     22  C   UNL     1       6.298  -3.358   9.639  0.00  0.00    +0.147 C 
ATOM     23  C   UNL     1       5.325  -2.624   8.710  0.00  0.00    -0.055 C 
ATOM     24  H   UNL     1       5.369  -4.199   7.426  0.00  0.00    -0.081 HD
ENDBRANCH  15  16
ENDBRANCH   2  15
TORSDOF 6
