REMARK  Name = ZINC09235403
REMARK  7 active torsions:
REMARK  status: ('A' for Active; 'I' for Inactive)
REMARK    1  A    between atoms: C_4  and  N_7
REMARK    2  A    between atoms: C_13  and  C_15
REMARK    3  A    between atoms: C_15  and  S_16
REMARK    4  A    between atoms: S_16  and  C_17
REMARK    5  A    between atoms: C_20  and  C_29
REMARK    6  A    between atoms: N_21  and  C_22
REMARK    7  A    between atoms: C_29  and  N_64
REMARK                            x       y       z     vdW  Elec       q    Type
REMARK                         _______ _______ _______ _____ _____    ______ ____
ROOT
ATOM      1  C   UNL     1      -2.135   1.741   2.904  0.00  0.00    +0.197 A 
ATOM      2  N   UNL     1      -1.388   2.818   2.823  0.00  0.00    -0.122 NA
ATOM      3  N   UNL     1      -0.509   2.673   1.897  0.00  0.00    -0.135 NA
ATOM      4  C   UNL     1      -0.645   1.509   1.327  0.00  0.00    +0.122 A 
ATOM      5  N   UNL     1      -1.684   0.870   1.950  0.00  0.00    -0.276 N 
ENDROOT
BRANCH   5   6
ATOM      6  C   UNL     1      -2.182  -0.411   1.670  0.00  0.00    +0.050 A 
ATOM      7  C   UNL     1      -2.817  -0.661   0.461  0.00  0.00    +0.028 A 
ATOM      8  C   UNL     1      -3.303  -1.924   0.185  0.00  0.00    +0.022 A 
ATOM      9  C   UNL     1      -3.165  -2.938   1.116  0.00  0.00    +0.041 A 
ATOM     10  C   UNL     1      -2.536  -2.691   2.324  0.00  0.00    +0.022 A 
ATOM     11  C   UNL     1      -2.045  -1.430   2.603  0.00  0.00    +0.028 A 
ATOM     12 CL   UNL     1      -3.782  -4.523   0.769  0.00  0.00    -0.084 Cl
ENDBRANCH   5   6
BRANCH   1  13
ATOM     13  S   UNL     1      -3.465   1.470   4.027  0.00  0.00    -0.076 S 
BRANCH  13  14
ATOM     14  C   UNL     1      -3.437   3.037   4.932  0.00  0.00    +0.173 C 
BRANCH  14  21
ATOM     15  N   UNL     1      -5.652   6.564   7.667  0.00  0.00    -0.327 N 
ATOM     16  C   UNL     1      -6.559   5.408   7.645  0.00  0.00    +0.124 C 
ATOM     17  C   UNL     1      -5.745   4.120   7.804  0.00  0.00    +0.126 C 
ATOM     18  N   UNL     1      -4.691   4.104   6.778  0.00  0.00    -0.298 N 
ATOM     19  C   UNL     1      -3.824   5.285   6.652  0.00  0.00    +0.126 C 
ATOM     20  C   UNL     1      -4.718   6.529   6.534  0.00  0.00    +0.124 C 
ATOM     21  C   UNL     1      -4.522   3.032   5.977  0.00  0.00    +0.226 C 
ATOM     22  O   UNL     1      -5.244   2.065   6.098  0.00  0.00    -0.275 OA
BRANCH  15  26
ATOM     23  C   UNL     1      -7.787  10.137   7.731  0.00  0.00    +0.000 A 
ATOM     24  C   UNL     1      -6.405  10.160   7.733  0.00  0.00    +0.002 A 
ATOM     25  C   UNL     1      -5.693   8.976   7.712  0.00  0.00    +0.023 A 
ATOM     26  C   UNL     1      -6.368   7.762   7.689  0.00  0.00    +0.030 A 
ATOM     27  C   UNL     1      -7.757   7.744   7.682  0.00  0.00    +0.023 A 
ATOM     28  C   UNL     1      -8.463   8.931   7.708  0.00  0.00    +0.002 A 
ENDBRANCH  15  26
ENDBRANCH  14  21
ENDBRANCH  13  14
ENDBRANCH   1  13
BRANCH   4  29
ATOM     29  C   UNL     1       0.190   0.964   0.197  0.00  0.00    -0.001 C 
BRANCH  29  35
ATOM     30  C   UNL     1       2.295   0.967   1.396  0.00  0.00    -0.050 C 
ATOM     31  C   UNL     1       3.371   0.061   2.002  0.00  0.00    +0.141 C 
ATOM     32  O   UNL     1       3.922  -0.768   0.976  0.00  0.00    -0.383 OA
ATOM     33  C   UNL     1       2.954  -1.592   0.320  0.00  0.00    +0.141 C 
ATOM     34  C   UNL     1       1.874  -0.703  -0.303  0.00  0.00    -0.050 C 
ATOM     35  N   UNL     1       1.264   0.118   0.763  0.00  0.00    +0.387 N 
ATOM     36  H   UNL     1       0.859  -0.503   1.473  0.00  0.00    -0.081 HD
ENDBRANCH  29  35
ENDBRANCH   4  29
TORSDOF 7
