REMARK  Name = ZINC63351337
REMARK  9 active torsions:
REMARK  status: ('A' for Active; 'I' for Inactive)
REMARK    1  A    between atoms: C_1  and  O_2
REMARK    2  A    between atoms: O_2  and  C_3
REMARK    3  A    between atoms: C_7  and  C_9
REMARK    4  A    between atoms: N_28  and  N_29
REMARK    5  A    between atoms: C_30  and  C_31
REMARK    6  A    between atoms: C_34  and  O_39
REMARK    7  A    between atoms: C_36  and  O_37
REMARK    8  A    between atoms: O_37  and  C_38
REMARK    9  A    between atoms: O_39  and  C_40
REMARK                            x       y       z     vdW  Elec       q    Type
REMARK                         _______ _______ _______ _____ _____    ______ ____
ROOT
ATOM      1  C   UNL     1       1.325  -4.106  -2.289  0.00  0.00    +0.202 C 
ATOM      2  N   UNL     1       2.495  -4.540  -3.068  0.00  0.00    -0.265 NA
ATOM      3  C   UNL     1       2.808  -3.780  -4.273  0.00  0.00    +0.116 C 
ATOM      4  C   UNL     1       3.979  -4.507  -4.952  0.00  0.00    +0.120 C 
ATOM      5  C   UNL     1       5.064  -4.708  -3.902  0.00  0.00    -0.035 C 
ATOM      6  C   UNL     1       6.185  -4.235  -4.430  0.00  0.00    -0.001 A 
ATOM      7  C   UNL     1       7.575  -4.239  -3.949  0.00  0.00    +0.010 A 
ATOM      8  C   UNL     1       8.490  -3.638  -4.755  0.00  0.00    +0.001 A 
ATOM      9  C   UNL     1       8.165  -3.040  -5.976  0.00  0.00    +0.002 A 
ATOM     10  C   UNL     1       6.914  -2.997  -6.500  0.00  0.00    +0.026 A 
ATOM     11  C   UNL     1       5.867  -3.603  -5.747  0.00  0.00    +0.043 A 
ATOM     12  N   UNL     1       4.587  -3.729  -6.027  0.00  0.00    -0.376 N 
ATOM     13  C   UNL     1       4.765  -5.241  -2.513  0.00  0.00    +0.062 C 
ATOM     14  C   UNL     1       3.571  -4.403  -2.048  0.00  0.00    +0.151 C 
ATOM     15  C   UNL     1       2.904  -4.912  -0.800  0.00  0.00    +0.254 C 
ATOM     16  O   UNL     1       3.451  -5.420   0.157  0.00  0.00    -0.272 OA
ATOM     17  N   UNL     1       1.563  -4.694  -0.948  0.00  0.00    -0.170 N 
ATOM     18  H   UNL     1       4.125  -3.370  -6.801  0.00  0.00    +0.160 HD
ENDROOT
BRANCH   1  23
ATOM     19  C   UNL     1       0.291  -0.519  -2.877  0.00  0.00    +0.120 A 
ATOM     20  C   UNL     1       1.176   0.160  -2.052  0.00  0.00    +0.045 A 
ATOM     21  C   UNL     1       2.103  -0.543  -1.308  0.00  0.00    +0.004 A 
ATOM     22  C   UNL     1       2.150  -1.923  -1.385  0.00  0.00    +0.007 A 
ATOM     23  C   UNL     1       1.271  -2.602  -2.207  0.00  0.00    -0.007 A 
ATOM     24  C   UNL     1       0.337  -1.904  -2.949  0.00  0.00    +0.052 A 
BRANCH  19  26
ATOM     25  C   UNL     1      -0.612   1.594  -3.487  0.00  0.00    +0.277 C 
ATOM     26  O   UNL     1      -0.622   0.170  -3.610  0.00  0.00    -0.495 OA
ENDBRANCH  19  26
ENDBRANCH   1  23
BRANCH  17  27
ATOM     27  N   UNL     1       0.576  -4.977   0.005  0.00  0.00    -0.183 NA
ATOM     28  C   UNL     1       0.908  -5.494   1.149  0.00  0.00    +0.142 C 
BRANCH  28  29
ATOM     29  C   UNL     1      -0.130  -5.792   2.151  0.00  0.00    +0.036 A 
ATOM     30  C   UNL     1       0.224  -6.343   3.385  0.00  0.00    +0.016 A 
ATOM     31  C   UNL     1      -0.750  -6.619   4.319  0.00  0.00    +0.046 A 
ATOM     32  C   UNL     1      -2.085  -6.353   4.039  0.00  0.00    +0.124 A 
ATOM     33  C   UNL     1      -2.447  -5.806   2.816  0.00  0.00    +0.091 A 
ATOM     34  C   UNL     1      -1.477  -5.518   1.872  0.00  0.00    +0.132 A 
BRANCH  34  35
ATOM     35  O   UNL     1      -1.829  -4.978   0.676  0.00  0.00    -0.494 OA
ATOM     36  C   UNL     1      -3.220  -4.726   0.463  0.00  0.00    +0.277 C 
ENDBRANCH  34  35
BRANCH  32  37
ATOM     37  O   UNL     1      -3.039  -6.629   4.965  0.00  0.00    -0.495 OA
ATOM     38  C   UNL     1      -2.598  -7.191   6.203  0.00  0.00    +0.277 C 
ENDBRANCH  32  37
ENDBRANCH  28  29
ENDBRANCH  17  27
TORSDOF 6
