REMARK  Name = ZINC33534587
REMARK  8 active torsions:
REMARK  status: ('A' for Active; 'I' for Inactive)
REMARK    1  A    between atoms: C_1  and  C_2
REMARK    2  A    between atoms: C_5  and  N_8
REMARK    3  A    between atoms: C_9  and  C_11
REMARK    4  A    between atoms: C_11  and  N_12
REMARK    5  A    between atoms: N_12  and  C_13
REMARK    6  A    between atoms: C_13  and  C_14
REMARK    7  A    between atoms: C_22  and  C_25
REMARK    8  A    between atoms: C_25  and  C_26
REMARK                            x       y       z     vdW  Elec       q    Type
REMARK                         _______ _______ _______ _____ _____    ______ ____
ROOT
ATOM      1  N   UNL     1       2.387   1.023   0.343  0.00  0.00    -0.295 N 
ATOM      2  C   UNL     1       2.983   0.435  -0.758  0.00  0.00    +0.181 A 
ATOM      3  N   UNL     1       2.701   0.586  -2.046  0.00  0.00    -0.208 NA
ATOM      4  C   UNL     1       3.408  -0.082  -2.927  0.00  0.00    +0.145 A 
ATOM      5  N   UNL     1       4.370  -0.878  -2.523  0.00  0.00    -0.192 NA
ATOM      6  S   UNL     1       4.303  -0.690  -0.823  0.00  0.00    +0.049 S 
ENDROOT
BRANCH   1   7
ATOM      7  C   UNL     1       1.277   1.961   0.161  0.00  0.00    +0.203 C 
BRANCH   7   9
ATOM      8  N   UNL     1      -1.191   1.867   0.018  0.00  0.00    -0.284 N 
ATOM      9  C   UNL     1      -0.027   1.205   0.175  0.00  0.00    +0.235 C 
ATOM     10  O   UNL     1      -0.028   0.001   0.322  0.00  0.00    -0.274 OA
ATOM     11  H   UNL     1      -1.197   2.966  -0.029  0.00  0.00    +0.155 HD
BRANCH   8  16
ATOM     12  C   UNL     1      -6.058  -1.018  -0.403  0.00  0.00    +0.044 C 
ATOM     13  C   UNL     1      -4.765  -0.251  -0.291  0.00  0.00    -0.050 A 
ATOM     14  C   UNL     1      -4.748   0.989   0.320  0.00  0.00    +0.005 A 
ATOM     15  C   UNL     1      -3.565   1.694   0.423  0.00  0.00    +0.023 A 
ATOM     16  C   UNL     1      -2.391   1.155  -0.086  0.00  0.00    +0.033 A 
ATOM     17  C   UNL     1      -2.412  -0.088  -0.704  0.00  0.00    +0.023 A 
ATOM     18  C   UNL     1      -3.597  -0.790  -0.800  0.00  0.00    +0.005 A 
ENDBRANCH   8  16
ENDBRANCH   7   9
ENDBRANCH   1   7
BRANCH   1  19
ATOM     19  C   UNL     1       2.866   0.707   1.691  0.00  0.00    +0.142 C 
BRANCH  19  20
ATOM     20  C   UNL     1       2.108  -0.479   2.229  0.00  0.00    -0.030 A 
ATOM     21  C   UNL     1       0.941  -0.286   2.945  0.00  0.00    +0.005 A 
ATOM     22  C   UNL     1       0.242  -1.373   3.434  0.00  0.00    +0.000 A 
ATOM     23  C   UNL     1       0.716  -2.654   3.216  0.00  0.00    +0.000 A 
ATOM     24  C   UNL     1       1.886  -2.847   2.505  0.00  0.00    +0.000 A 
ATOM     25  C   UNL     1       2.581  -1.759   2.011  0.00  0.00    +0.005 A 
ENDBRANCH  19  20
ENDBRANCH   1  19
BRANCH   4  26
ATOM     26  C   UNL     1       3.116   0.065  -4.398  0.00  0.00    +0.112 C 
BRANCH  26  27
ATOM     27  C   UNL     1       3.942   1.191  -4.964  0.00  0.00    -0.040 A 
ATOM     28  C   UNL     1       3.439   2.478  -4.976  0.00  0.00    +0.007 A 
ATOM     29  C   UNL     1       4.197   3.513  -5.491  0.00  0.00    +0.038 A 
ATOM     30  C   UNL     1       5.458   3.258  -6.003  0.00  0.00    +0.123 A 
ATOM     31  C   UNL     1       5.959   1.967  -5.995  0.00  0.00    +0.038 A 
ATOM     32  C   UNL     1       5.201   0.935  -5.475  0.00  0.00    +0.007 A 
ATOM     33  F   UNL     1       6.199   4.267  -6.510  0.00  0.00    -0.205 F 
ENDBRANCH  26  27
ENDBRANCH   4  26
TORSDOF 7
