REMARK  Name = ZINC20807961
REMARK  9 active torsions:
REMARK  status: ('A' for Active; 'I' for Inactive)
REMARK    1  A    between atoms: C_1  and  C_2
REMARK    2  A    between atoms: C_6  and  N_9
REMARK    3  A    between atoms: C_7  and  C_8
REMARK    4  A    between atoms: C_10  and  C_12
REMARK    5  A    between atoms: C_12  and  N_13
REMARK    6  A    between atoms: N_16  and  C_19
REMARK    7  A    between atoms: C_19  and  C_21
REMARK    8  A    between atoms: C_19  and  C_22
REMARK    9  A    between atoms: N_24  and  C_25
REMARK                            x       y       z     vdW  Elec       q    Type
REMARK                         _______ _______ _______ _____ _____    ______ ____
ROOT
ATOM      1  N   UNL     1      -3.242   8.796  -4.729  0.00  0.00    -0.298 NA
ATOM      2  C   UNL     1      -3.824   9.434  -3.541  0.00  0.00    +0.066 C 
ATOM      3  C   UNL     1      -2.984   9.080  -2.312  0.00  0.00    -0.062 C 
ATOM      4  N   UNL     1      -2.942   7.620  -2.154  0.00  0.00    +0.389 N 
ATOM      5  C   UNL     1      -2.360   6.981  -3.343  0.00  0.00    -0.062 C 
ATOM      6  C   UNL     1      -3.200   7.335  -4.572  0.00  0.00    +0.066 C 
ATOM      7  H   UNL     1      -3.976   7.260  -2.047  0.00  0.00    -0.081 HD
ENDROOT
BRANCH   4   8
ATOM      8  C   UNL     1      -2.207   7.242  -0.940  0.00  0.00    +0.016 C 
ATOM      9  C   UNL     1      -0.866   7.979  -0.906  0.00  0.00    -0.004 C 
BRANCH   8  10
ATOM     10  C   UNL     1      -3.017   7.616   0.275  0.00  0.00    +0.200 C 
ATOM     11  O   UNL     1      -4.024   8.280   0.151  0.00  0.00    -0.278 OA
ATOM     12  N   UNL     1      -2.622   7.212   1.498  0.00  0.00    -0.311 N 
ATOM     13  H   UNL     1      -1.708   6.609   1.611  0.00  0.00    +0.149 HD
BRANCH  12  14
ATOM     14  C   UNL     1      -3.409   7.575   2.679  0.00  0.00    +0.035 C 
ATOM     15  C   UNL     1      -4.824   7.010   2.542  0.00  0.00    +0.029 C 
ATOM     16  C   UNL     1      -5.647   7.390   3.775  0.00  0.00    -0.008 C 
ATOM     17  C   UNL     1      -4.985   6.810   5.027  0.00  0.00    +0.007 C 
ATOM     18  C   UNL     1      -3.570   7.375   5.164  0.00  0.00    -0.008 C 
ATOM     19  C   UNL     1      -2.748   6.995   3.931  0.00  0.00    +0.029 C 
ATOM     20  C   UNL     1      -3.638   8.899   5.283  0.00  0.00    +0.007 C 
ATOM     21  C   UNL     1      -4.300   9.479   4.031  0.00  0.00    -0.008 C 
ATOM     22  C   UNL     1      -5.715   8.914   3.894  0.00  0.00    +0.007 C 
ATOM     23  C   UNL     1      -3.477   9.099   2.797  0.00  0.00    +0.029 C 
ENDBRANCH  12  14
ENDBRANCH   8  10
ENDBRANCH   4   8
BRANCH   1  24
ATOM     24  C   UNL     1      -3.977   9.174  -5.944  0.00  0.00    +0.180 C 
BRANCH  24  26
ATOM     25  N   UNL     1      -4.376  11.219  -7.277  0.00  0.00    -0.284 N 
ATOM     26  C   UNL     1      -3.796  10.647  -6.203  0.00  0.00    +0.231 C 
ATOM     27  O   UNL     1      -3.128  11.318  -5.445  0.00  0.00    -0.274 OA
ATOM     28  H   UNL     1      -5.034  10.625  -7.928  0.00  0.00    +0.155 HD
BRANCH  25  34
ATOM     29  C   UNL     1      -4.051  14.852 -10.573  0.00  0.00    +0.044 C 
ATOM     30  C   UNL     1      -3.978  14.357  -9.152  0.00  0.00    -0.046 A 
ATOM     31  C   UNL     1      -3.681  15.237  -8.128  0.00  0.00    +0.004 A 
ATOM     32  C   UNL     1      -3.613  14.787  -6.822  0.00  0.00    +0.002 A 
ATOM     33  C   UNL     1      -3.843  13.455  -6.537  0.00  0.00    +0.023 A 
ATOM     34  C   UNL     1      -4.143  12.569  -7.562  0.00  0.00    +0.037 A 
ATOM     35  C   UNL     1      -4.204  13.023  -8.873  0.00  0.00    -0.026 A 
ATOM     36  C   UNL     1      -4.522  12.063  -9.991  0.00  0.00    +0.046 C 
ENDBRANCH  25  34
ENDBRANCH  24  26
ENDBRANCH   1  24
TORSDOF 6
