REMARK  Name = ZINC57898216
REMARK  10 active torsions:
REMARK  status: ('A' for Active; 'I' for Inactive)
REMARK    1  A    between atoms: C_1  and  C_2
REMARK    2  A    between atoms: C_5  and  C_8
REMARK    3  A    between atoms: C_8  and  S_9
REMARK    4  A    between atoms: S_9  and  C_10
REMARK    5  A    between atoms: C_10  and  C_11
REMARK    6  A    between atoms: N_13  and  C_14
REMARK    7  A    between atoms: C_14  and  C_16
REMARK    8  A    between atoms: C_14  and  C_17
REMARK    9  A    between atoms: C_21  and  S_23
REMARK   10  A    between atoms: S_23  and  N_26
REMARK                            x       y       z     vdW  Elec       q    Type
REMARK                         _______ _______ _______ _____ _____    ______ ____
ROOT
ATOM      1  C   UNL     1       3.002  -7.283  -0.054  0.00  0.00    +0.223 C 
ATOM      2  O   UNL     1       3.986  -6.574  -0.056  0.00  0.00    -0.275 OA
ATOM      3  N   UNL     1       3.138  -8.624  -0.062  0.00  0.00    -0.308 N 
ATOM      4  H   UNL     1       2.352  -9.192  -0.061  0.00  0.00    +0.149 HD
ENDROOT
BRANCH   3   5
ATOM      5  C   UNL     1       4.474  -9.225  -0.073  0.00  0.00    +0.100 C 
ATOM      6  C   UNL     1       4.983  -9.311  -1.513  0.00  0.00    +0.033 C 
BRANCH   5   7
ATOM      7  C   UNL     1       4.408 -10.608   0.520  0.00  0.00    -0.026 A 
ATOM      8  C   UNL     1       3.342 -11.437   0.225  0.00  0.00    +0.005 A 
ATOM      9  C   UNL     1       3.281 -12.706   0.769  0.00  0.00    +0.002 A 
ATOM     10  C   UNL     1       4.287 -13.147   1.609  0.00  0.00    +0.028 A 
ATOM     11  C   UNL     1       5.353 -12.319   1.904  0.00  0.00    +0.105 A 
ATOM     12  C   UNL     1       5.416 -11.051   1.356  0.00  0.00    +0.034 A 
BRANCH  11  13
ATOM     13  S   UNL     1       6.635 -12.881   2.975  0.00  0.00    +0.056 S 
ATOM     14  O   UNL     1       7.242 -11.720   3.525  0.00  0.00    -0.153 OA
ATOM     15  O   UNL     1       6.068 -13.902   3.785  0.00  0.00    -0.153 OA
BRANCH  13  16
ATOM     16  N   UNL     1       7.780 -13.610   2.027  0.00  0.00    -0.204 NA
ATOM     17  H   UNL     1       7.656 -13.658   1.066  0.00  0.00    +0.144 HD
ATOM     18  H   UNL     1       8.575 -13.990   2.433  0.00  0.00    +0.144 HD
ENDBRANCH  13  16
ENDBRANCH  11  13
ENDBRANCH   5   7
ENDBRANCH   3   5
BRANCH   1  19
ATOM     19  C   UNL     1       1.628  -6.666  -0.043  0.00  0.00    +0.165 C 
BRANCH  19  20
ATOM     20  S   UNL     1       1.777  -4.858  -0.034  0.00  0.00    -0.147 S 
BRANCH  20  21
ATOM     21  C   UNL     1       0.059  -4.275  -0.021  0.00  0.00    +0.104 C 
BRANCH  21  26
ATOM     22  C   UNL     1      -0.018   1.503   0.010  0.00  0.00    +0.044 C 
ATOM     23  C   UNL     1       0.002  -0.004   0.002  0.00  0.00    -0.050 A 
ATOM     24  C   UNL     1       0.006  -0.689  -1.199  0.00  0.00    +0.003 A 
ATOM     25  C   UNL     1       0.025  -2.071  -1.206  0.00  0.00    +0.005 A 
ATOM     26  C   UNL     1       0.040  -2.768  -0.013  0.00  0.00    -0.038 A 
ATOM     27  C   UNL     1       0.037  -2.084   1.188  0.00  0.00    +0.005 A 
ATOM     28  C   UNL     1       0.023  -0.702   1.195  0.00  0.00    +0.003 A 
ENDBRANCH  21  26
ENDBRANCH  20  21
ENDBRANCH  19  20
ENDBRANCH   1  19
TORSDOF 8
