REMARK  Name = ZINC49150387
REMARK  9 active torsions:
REMARK  status: ('A' for Active; 'I' for Inactive)
REMARK    1  A    between atoms: C_1  and  C_2
REMARK    2  A    between atoms: C_4  and  N_22
REMARK    3  A    between atoms: C_6  and  S_9
REMARK    4  A    between atoms: C_7  and  C_8
REMARK    5  A    between atoms: S_9  and  N_12
REMARK    6  A    between atoms: N_12  and  C_13
REMARK    7  A    between atoms: C_13  and  C_15
REMARK    8  A    between atoms: C_13  and  C_16
REMARK    9  A    between atoms: C_16  and  N_17
REMARK                            x       y       z     vdW  Elec       q    Type
REMARK                         _______ _______ _______ _____ _____    ______ ____
ROOT
ATOM      1  S   UNL     1       0.262  -2.995   2.112  0.00  0.00    +0.059 S 
ATOM      2  O   UNL     1      -0.470  -2.455   3.204  0.00  0.00    -0.153 OA
ATOM      3  O   UNL     1      -0.140  -4.179   1.438  0.00  0.00    -0.153 OA
ENDROOT
BRANCH   1   9
ATOM      4  C   UNL     1       1.784  -1.243  -2.570  0.00  0.00    +0.044 C 
ATOM      5  C   UNL     1       1.078  -0.976  -1.266  0.00  0.00    -0.044 A 
ATOM      6  C   UNL     1       0.507   0.260  -1.031  0.00  0.00    +0.026 A 
ATOM      7  C   UNL     1      -0.144   0.505   0.171  0.00  0.00    +0.027 A 
ATOM      8  C   UNL     1      -0.218  -0.494   1.133  0.00  0.00    +0.051 A 
ATOM      9  C   UNL     1       0.355  -1.727   0.892  0.00  0.00    +0.110 A 
ATOM     10  C   UNL     1       0.998  -1.970  -0.308  0.00  0.00    -0.021 A 
ATOM     11  C   UNL     1       1.617  -3.318  -0.571  0.00  0.00    +0.046 C 
BRANCH   7  12
ATOM     12  N   UNL     1      -0.722   1.753   0.412  0.00  0.00    -0.358 N 
ATOM     13  H   UNL     1      -0.669   2.450  -0.261  0.00  0.00    +0.142 HD
ATOM     14  H   UNL     1      -1.177   1.923   1.252  0.00  0.00    +0.142 HD
ENDBRANCH   7  12
ENDBRANCH   1   9
BRANCH   1  15
ATOM     15  N   UNL     1       1.801  -3.261   2.660  0.00  0.00    -0.189 NA
ATOM     16  H   UNL     1       2.241  -4.106   2.479  0.00  0.00    +0.148 HD
BRANCH  15  17
ATOM     17  C   UNL     1       2.499  -2.220   3.420  0.00  0.00    +0.057 C 
ATOM     18  C   UNL     1       2.276  -2.445   4.917  0.00  0.00    +0.024 C 
BRANCH  17  19
ATOM     19  C   UNL     1       3.996  -2.282   3.112  0.00  0.00    -0.059 C 
BRANCH  19  20
ATOM     20  N   UNL     1       4.208  -2.100   1.670  0.00  0.00    +0.381 N 
ATOM     21  C   UNL     1       3.881  -0.706   1.276  0.00  0.00    -0.079 C 
ATOM     22  C   UNL     1       4.660  -0.520  -0.050  0.00  0.00    -0.020 C 
ATOM     23  C   UNL     1       5.972  -1.296   0.208  0.00  0.00    -0.020 C 
ATOM     24  C   UNL     1       5.637  -2.288   1.337  0.00  0.00    -0.079 C 
ATOM     25  H   UNL     1       3.641  -2.752   1.150  0.00  0.00    -0.082 HD
ENDBRANCH  19  20
ENDBRANCH  17  19
ENDBRANCH  15  17
ENDBRANCH   1  15
TORSDOF 6
