REMARK  Name = ZINC59460655
REMARK  5 active torsions:
REMARK  status: ('A' for Active; 'I' for Inactive)
REMARK    1  A    between atoms: C_6  and  C_11
REMARK    2  A    between atoms: C_11  and  C_17
REMARK    3  A    between atoms: N_12  and  N_13
REMARK    4  A    between atoms: C_17  and  S_18
REMARK    5  A    between atoms: S_18  and  C_19
REMARK                            x       y       z     vdW  Elec       q    Type
REMARK                         _______ _______ _______ _____ _____    ______ ____
ROOT
ATOM      1  C   UNL     1       5.015  -2.713   0.150  0.00  0.00    +0.079 C 
ATOM      2  N   UNL     1       6.083  -2.047  -0.166  0.00  0.00    -0.175 NA
ENDROOT
BRANCH   1   8
ATOM      3  C   UNL     1      -0.742  -0.394   1.869  0.00  0.00    +0.001 A 
ATOM      4  C   UNL     1      -0.926  -1.499   1.040  0.00  0.00    +0.001 A 
ATOM      5  C   UNL     1       0.138  -2.180   0.534  0.00  0.00    +0.008 A 
ATOM      6  C   UNL     1       1.444  -1.764   0.849  0.00  0.00    -0.017 A 
ATOM      7  C   UNL     1       2.563  -2.443   0.344  0.00  0.00    +0.018 A 
ATOM      8  C   UNL     1       3.834  -2.004   0.677  0.00  0.00    -0.001 A 
ATOM      9  C   UNL     1       4.007  -0.886   1.514  0.00  0.00    +0.010 A 
ATOM     10  C   UNL     1       2.935  -0.218   2.012  0.00  0.00    +0.009 A 
ATOM     11  C   UNL     1       1.631  -0.640   1.692  0.00  0.00    -0.018 A 
ATOM     12  C   UNL     1       0.508   0.037   2.195  0.00  0.00    +0.008 A 
ENDBRANCH   1   8
BRANCH   2  13
ATOM     13  N   UNL     1       6.064  -0.647  -0.159  0.00  0.00    -0.248 N 
ATOM     14  C   UNL     1       7.221   0.055  -0.373  0.00  0.00    +0.187 C 
ATOM     15  N   UNL     1       7.203   1.388  -0.366  0.00  0.00    -0.370 N 
ATOM     16  N   UNL     1       8.364  -0.594  -0.588  0.00  0.00    -0.370 N 
ATOM     17  H   UNL     1       5.232  -0.174  -0.002  0.00  0.00    +0.192 HD
ATOM     18  H   UNL     1       6.371   1.861  -0.210  0.00  0.00    +0.159 HD
ATOM     19  H   UNL     1       8.378  -1.564  -0.593  0.00  0.00    +0.159 HD
ATOM     20  H   UNL     1       9.184  -0.097  -0.739  0.00  0.00    +0.159 HD
ATOM     21  H   UNL     1       8.022   1.885  -0.518  0.00  0.00    +0.159 HD
ENDBRANCH   2  13
BRANCH   1  22
ATOM     22  C   UNL     1       4.981  -4.209  -0.022  0.00  0.00    +0.134 C 
BRANCH  22  23
ATOM     23  S   UNL     1       6.571  -4.779  -0.684  0.00  0.00    -0.092 S 
BRANCH  23  24
ATOM     24  C   UNL     1       6.373  -6.524  -0.826  0.00  0.00    +0.136 A 
ATOM     25  N   UNL     1       5.325  -7.261  -0.533  0.00  0.00    -0.233 NA
ATOM     26  C   UNL     1       5.315  -8.602  -0.694  0.00  0.00    +0.079 A 
ATOM     27  C   UNL     1       4.263  -9.506  -0.420  0.00  0.00    +0.029 A 
ATOM     28  C   UNL     1       4.418 -10.850  -0.642  0.00  0.00    +0.002 A 
ATOM     29  C   UNL     1       5.604 -11.370  -1.139  0.00  0.00    +0.001 A 
ATOM     30  C   UNL     1       6.655 -10.514  -1.419  0.00  0.00    +0.017 A 
ATOM     31  C   UNL     1       6.508  -9.168  -1.200  0.00  0.00    +0.040 A 
ATOM     32  S   UNL     1       7.544  -7.740  -1.412  0.00  0.00    -0.061 S 
ENDBRANCH  23  24
ENDBRANCH  22  23
ENDBRANCH   1  22
TORSDOF 5
