REMARK  Name = ZINC04087151
REMARK  8 active torsions:
REMARK  status: ('A' for Active; 'I' for Inactive)
REMARK    1  A    between atoms: C_1  and  C_2
REMARK    2  A    between atoms: C_2  and  C_3
REMARK    3  A    between atoms: C_2  and  O_4
REMARK    4  A    between atoms: O_4  and  C_5
REMARK    5  A    between atoms: C_8  and  C_11
REMARK    6  A    between atoms: N_13  and  C_14
REMARK    7  A    between atoms: C_15  and  C_23
REMARK    8  A    between atoms: C_22  and  N_49
REMARK                            x       y       z     vdW  Elec       q    Type
REMARK                         _______ _______ _______ _____ _____    ______ ____
ROOT
ATOM      1  C   UNL     1       1.333   3.305   1.277  0.00  0.00    +0.085 A 
ATOM      2  C   UNL     1       0.695   2.981   0.086  0.00  0.00    +0.068 A 
ATOM      3  C   UNL     1       1.202   3.587  -1.130  0.00  0.00    -0.027 A 
ATOM      4  C   UNL     1       2.264   4.410  -0.967  0.00  0.00    -0.021 A 
ATOM      5  S   UNL     1       2.589   4.386   0.772  0.00  0.00    -0.079 S 
ATOM      6  C   UNL     1       2.982   5.159  -2.045  0.00  0.00    -0.036 C 
ATOM      7  C   UNL     1       1.122   4.473  -3.439  0.00  0.00    -0.074 C 
ATOM      8  C   UNL     1       0.623   3.355  -2.520  0.00  0.00    +0.018 C 
ATOM      9  C   UNL     1       3.122   5.385  -4.457  0.00  0.00    -0.096 C 
ATOM     10  N   UNL     1       2.594   4.563  -3.347  0.00  0.00    +0.381 N 
ATOM     11  H   UNL     1       2.991   3.618  -3.413  0.00  0.00    -0.082 HD
ENDROOT
BRANCH   2  12
ATOM     12  C   UNL     1      -0.451   2.067   0.060  0.00  0.00    +0.244 C 
ATOM     13  O   UNL     1      -0.273   0.872  -0.084  0.00  0.00    -0.270 OA
ATOM     14  N   UNL     1      -1.702   2.551   0.191  0.00  0.00    -0.325 N 
ATOM     15  H   UNL     1      -2.461   1.947   0.170  0.00  0.00    +0.145 HD
ATOM     16  H   UNL     1      -1.844   3.504   0.306  0.00  0.00    +0.145 HD
ENDBRANCH   2  12
BRANCH   1  19
ATOM     17  C   UNL     1       1.774   3.293   3.603  0.00  0.00    +0.249 C 
ATOM     18  O   UNL     1       2.699   4.062   3.421  0.00  0.00    -0.270 OA
ATOM     19  N   UNL     1       1.037   2.867   2.558  0.00  0.00    -0.275 N 
ATOM     20  H   UNL     1       0.299   2.254   2.703  0.00  0.00    +0.156 HD
BRANCH  17  24
ATOM     21  C   UNL     1       0.868   1.954   7.529  0.00  0.00    +0.121 A 
ATOM     22  C   UNL     1       1.926   2.832   7.323  0.00  0.00    +0.046 A 
ATOM     23  C   UNL     1       2.223   3.268   6.051  0.00  0.00    +0.016 A 
ATOM     24  C   UNL     1       1.460   2.828   4.967  0.00  0.00    +0.037 A 
ATOM     25  C   UNL     1       0.394   1.949   5.179  0.00  0.00    +0.016 A 
ATOM     26  C   UNL     1       0.106   1.513   6.453  0.00  0.00    +0.046 A 
BRANCH  21  27
ATOM     27  O   UNL     1       0.578   1.526   8.784  0.00  0.00    -0.489 OA
BRANCH  27  29
ATOM     28  C   UNL     1       1.078   3.313  10.333  0.00  0.00    +0.051 C 
ATOM     29  C   UNL     1       1.470   1.923   9.827  0.00  0.00    +0.167 C 
ATOM     30  C   UNL     1       1.387   0.919  10.978  0.00  0.00    +0.051 C 
ENDBRANCH  27  29
ENDBRANCH  21  27
ENDBRANCH  17  24
ENDBRANCH   1  19
TORSDOF 5
