REMARK  Name = ZINC12885767
REMARK  7 active torsions:
REMARK  status: ('A' for Active; 'I' for Inactive)
REMARK    1  A    between atoms: C_1  and  C_2
REMARK    2  A    between atoms: C_17  and  C_19
REMARK    3  A    between atoms: C_19  and  C_21
REMARK    4  A    between atoms: C_19  and  O_22
REMARK    5  A    between atoms: N_25  and  C_28
REMARK    6  A    between atoms: C_28  and  C_29
REMARK    7  A    between atoms: C_29  and  C_30
REMARK                            x       y       z     vdW  Elec       q    Type
REMARK                         _______ _______ _______ _____ _____    ______ ____
ROOT
ATOM      1  C   UNL     1      -1.292  -0.777   0.011  0.00  0.00    +0.044 C 
ATOM      2  C   UNL     1       0.002  -0.004   0.002  0.00  0.00    -0.049 A 
ATOM      3  C   UNL     1       1.212  -0.676  -0.014  0.00  0.00    +0.008 A 
ATOM      4  C   UNL     1       2.393   0.030  -0.021  0.00  0.00    -0.026 A 
ATOM      5  C   UNL     1       2.388   1.422  -0.013  0.00  0.00    +0.054 A 
ATOM      6  C   UNL     1       1.166   2.091   0.002  0.00  0.00    +0.063 A 
ATOM      7  C   UNL     1      -0.017   1.378   0.010  0.00  0.00    +0.025 A 
ATOM      8 CL   UNL     1       1.130   3.827   0.011  0.00  0.00    -0.082 Cl
ATOM      9  N   UNL     1       3.697   1.910  -0.021  0.00  0.00    -0.285 N 
ATOM     10  C   UNL     1       4.608   0.919  -0.032  0.00  0.00    +0.211 C 
ATOM     11  O   UNL     1       5.815   1.044  -0.036  0.00  0.00    -0.277 OA
ATOM     12  C   UNL     1       3.840  -0.375  -0.036  0.00  0.00    +0.050 C 
ATOM     13  C   UNL     1       4.194  -1.243   1.176  0.00  0.00    +0.088 C 
ATOM     14  C   UNL     1       5.233  -2.266   0.636  0.00  0.00    +0.075 C 
ATOM     15  C   UNL     1       5.417  -1.894  -0.851  0.00  0.00    -0.028 C 
ATOM     16  C   UNL     1       6.493  -1.915   1.395  0.00  0.00    +0.224 C 
ATOM     17  O   UNL     1       7.561  -2.476   1.276  0.00  0.00    -0.275 OA
ATOM     18  N   UNL     1       6.246  -0.888   2.217  0.00  0.00    -0.241 N 
ATOM     19  C   UNL     1       4.989  -0.432   2.174  0.00  0.00    +0.225 C 
ATOM     20  O   UNL     1       4.555   0.489   2.832  0.00  0.00    -0.275 OA
ATOM     21  H   UNL     1       3.922   2.853  -0.019  0.00  0.00    +0.155 HD
ATOM     22  N   UNL     1       4.182  -1.184  -1.193  0.00  0.00    +0.396 N 
ATOM     23  H   UNL     1       4.332  -0.586  -2.014  0.00  0.00    -0.083 HD
ATOM     24  H   UNL     1       3.430  -1.855  -1.391  0.00  0.00    -0.083 HD
ENDROOT
BRANCH  15  25
ATOM     25  C   UNL     1       5.589  -3.156  -1.698  0.00  0.00    +0.098 C 
ATOM     26  C   UNL     1       5.769  -2.764  -3.167  0.00  0.00    +0.036 C 
BRANCH  25  27
ATOM     27  O   UNL     1       6.740  -3.876  -1.253  0.00  0.00    -0.394 OA
ATOM     28  H   UNL     1       6.910  -4.690  -1.746  0.00  0.00    +0.210 HD
ENDBRANCH  25  27
ENDBRANCH  15  25
BRANCH  18  29
ATOM     29  C   UNL     1       7.269  -0.311   3.092  0.00  0.00    +0.121 C 
BRANCH  29  30
ATOM     30  C   UNL     1       7.996   0.815   2.353  0.00  0.00    +0.054 C 
BRANCH  30  31
ATOM     31  C   UNL     1       9.048   1.409   3.254  0.00  0.00    -0.046 A 
ATOM     32  C   UNL     1       8.732   2.474   4.077  0.00  0.00    +0.004 A 
ATOM     33  C   UNL     1       9.696   3.016   4.906  0.00  0.00    +0.000 A 
ATOM     34  C   UNL     1      10.979   2.500   4.905  0.00  0.00    +0.000 A 
ATOM     35  C   UNL     1      11.296   1.439   4.078  0.00  0.00    +0.000 A 
ATOM     36  C   UNL     1      10.330   0.893   3.252  0.00  0.00    +0.004 A 
ENDBRANCH  30  31
ENDBRANCH  29  30
ENDBRANCH  18  29
TORSDOF 5
