REMARK  Name = ZINC14751748
REMARK  7 active torsions:
REMARK  status: ('A' for Active; 'I' for Inactive)
REMARK    1  A    between atoms: C_1  and  N_2
REMARK    2  A    between atoms: C_3  and  C_5
REMARK    3  A    between atoms: N_8  and  C_10
REMARK    4  A    between atoms: C_10  and  C_11
REMARK    5  A    between atoms: C_19  and  N_22
REMARK    6  A    between atoms: N_22  and  C_23
REMARK    7  A    between atoms: C_32  and  O_35
REMARK                            x       y       z     vdW  Elec       q    Type
REMARK                         _______ _______ _______ _____ _____    ______ ____
ROOT
ATOM      1  C   UNL     1      -1.290  -1.790  -0.213  0.00  0.00    +0.150 A 
ATOM      2  C   UNL     1      -2.334  -2.729  -0.183  0.00  0.00    +0.004 A 
ATOM      3  C   UNL     1      -1.743  -3.946  -0.276  0.00  0.00    +0.043 A 
ATOM      4  N   UNL     1      -0.418  -3.740  -0.354  0.00  0.00    -0.267 N 
ATOM      5  N   UNL     1      -0.165  -2.477  -0.323  0.00  0.00    -0.166 NA
ATOM      6  C   UNL     1      -2.500  -5.249  -0.286  0.00  0.00    +0.054 C 
ATOM      7  C   UNL     1      -3.973  -4.949  -0.595  0.00  0.00    -0.009 C 
ATOM      8  C   UNL     1      -4.475  -3.834   0.326  0.00  0.00    -0.067 C 
ATOM      9  C   UNL     1      -3.817  -2.506  -0.072  0.00  0.00    +0.023 C 
ENDROOT
BRANCH   1  12
ATOM     10  C   UNL     1      -0.455   1.916  -0.118  0.00  0.00    +0.128 C 
ATOM     11  N   UNL     1      -0.323   0.459  -0.189  0.00  0.00    -0.313 N 
ATOM     12  C   UNL     1      -1.422  -0.320  -0.142  0.00  0.00    +0.264 C 
ATOM     13  O   UNL     1      -2.523   0.186  -0.043  0.00  0.00    -0.268 OA
ATOM     14  H   UNL     1       0.555   0.054  -0.268  0.00  0.00    +0.149 HD
ENDBRANCH   1  12
BRANCH   8  15
ATOM     15  N   UNL     1      -5.934  -3.714   0.199  0.00  0.00    +0.383 N 
ATOM     16  H   UNL     1      -6.166  -3.403  -0.733  0.00  0.00    -0.085 HD
ATOM     17  H   UNL     1      -6.361  -4.612   0.370  0.00  0.00    -0.085 HD
BRANCH  15  18
ATOM     18  C   UNL     1      -6.432  -2.740   1.179  0.00  0.00    -0.065 C 
ATOM     19  C   UNL     1      -6.212  -3.281   2.593  0.00  0.00    -0.022 C 
ATOM     20  C   UNL     1      -6.968  -4.601   2.757  0.00  0.00    +0.005 C 
ATOM     21  C   UNL     1      -8.462  -4.366   2.528  0.00  0.00    -0.008 C 
ATOM     22  C   UNL     1      -8.682  -3.825   1.114  0.00  0.00    +0.005 C 
ATOM     23  C   UNL     1      -7.926  -2.505   0.950  0.00  0.00    -0.022 C 
ATOM     24  C   UNL     1      -8.446  -1.490   1.970  0.00  0.00    +0.036 C 
ATOM     25  C   UNL     1      -8.226  -2.031   3.384  0.00  0.00    +0.067 C 
ATOM     26  C   UNL     1      -6.731  -2.266   3.614  0.00  0.00    +0.036 C 
ATOM     27  C   UNL     1      -8.981  -3.352   3.548  0.00  0.00    +0.038 C 
BRANCH  25  28
ATOM     28  O   UNL     1      -8.711  -1.083   4.338  0.00  0.00    -0.389 OA
ATOM     29  H   UNL     1      -8.603  -1.361   5.258  0.00  0.00    +0.210 HD
ENDBRANCH  25  28
ENDBRANCH  15  18
ENDBRANCH   8  15
BRANCH   4  30
ATOM     30  C   UNL     1       0.591  -4.796  -0.465  0.00  0.00    +0.147 C 
BRANCH  30  31
ATOM     31  C   UNL     1       0.849  -5.103  -1.941  0.00  0.00    +0.010 C 
ATOM     32  C   UNL     1      -0.419  -5.687  -2.569  0.00  0.00    +0.005 C 
ATOM     33  C   UNL     1      -0.161  -5.994  -4.046  0.00  0.00    +0.000 C 
ATOM     34  C   UNL     1       0.980  -7.006  -4.165  0.00  0.00    +0.000 C 
ATOM     35  C   UNL     1       2.247  -6.422  -3.537  0.00  0.00    +0.000 C 
ATOM     36  C   UNL     1       1.990  -6.115  -2.061  0.00  0.00    +0.005 C 
ENDBRANCH  30  31
ENDBRANCH   4  30
TORSDOF 6
