REMARK  Name = ZINC67183063
REMARK  12 active torsions:
REMARK  status: ('A' for Active; 'I' for Inactive)
REMARK    1  A    between atoms: C_1  and  C_2
REMARK    2  A    between atoms: C_4  and  C_25
REMARK    3  A    between atoms: C_5  and  N_9
REMARK    4  A    between atoms: C_6  and  C_8
REMARK    5  A    between atoms: C_10  and  C_12
REMARK    6  A    between atoms: C_12  and  N_13
REMARK    7  A    between atoms: N_13  and  C_14
REMARK    8  A    between atoms: C_14  and  C_15
REMARK    9  A    between atoms: C_17  and  C_24
REMARK   10  A    between atoms: C_18  and  O_22
REMARK   11  A    between atoms: C_19  and  C_21
REMARK   12  A    between atoms: O_22  and  C_23
REMARK                            x       y       z     vdW  Elec       q    Type
REMARK                         _______ _______ _______ _____ _____    ______ ____
ROOT
ATOM      1  C   UNL     1      -0.526  -6.390   0.733  0.00  0.00    +0.016 C 
ENDROOT
BRANCH   1   3
ATOM      2  N   UNL     1      -0.299  -4.141  -0.272  0.00  0.00    -0.287 N 
ATOM      3  C   UNL     1      -0.270  -4.908   0.835  0.00  0.00    +0.200 C 
ATOM      4  O   UNL     1      -0.036  -4.407   1.915  0.00  0.00    -0.278 OA
ATOM      5  H   UNL     1      -0.420  -4.551  -1.143  0.00  0.00    +0.155 HD
BRANCH   2  10
ATOM      6  C   UNL     1       0.286   1.486   0.158  0.00  0.00    +0.044 C 
ATOM      7  C   UNL     1       0.130  -0.009   0.043  0.00  0.00    -0.050 A 
ATOM      8  C   UNL     1       1.121  -0.844   0.526  0.00  0.00    +0.008 A 
ATOM      9  C   UNL     1       0.982  -2.215   0.423  0.00  0.00    -0.029 A 
ATOM     10  C   UNL     1      -0.155  -2.753  -0.166  0.00  0.00    +0.039 A 
ATOM     11  C   UNL     1      -1.148  -1.911  -0.649  0.00  0.00    -0.029 A 
ATOM     12  C   UNL     1      -1.005  -0.542  -0.539  0.00  0.00    +0.008 A 
ATOM     13  C   UNL     1      -2.383  -2.491  -1.289  0.00  0.00    +0.045 C 
ATOM     14  C   UNL     1       2.062  -3.124   0.949  0.00  0.00    +0.045 C 
ENDBRANCH   2  10
ENDBRANCH   1   3
BRANCH   1  15
ATOM     15  N   UNL     1      -0.438  -6.996   2.068  0.00  0.00    +0.387 N 
ATOM     16  H   UNL     1       0.483  -6.840   2.448  0.00  0.00    -0.085 HD
ATOM     17  H   UNL     1      -1.128  -6.576   2.674  0.00  0.00    -0.085 HD
BRANCH  15  18
ATOM     18  C   UNL     1      -0.689  -8.440   1.968  0.00  0.00    -0.046 C 
BRANCH  18  19
ATOM     19  C   UNL     1      -0.598  -9.061   3.338  0.00  0.00    -0.064 A 
ATOM     20  C   UNL     1       0.615  -9.533   3.803  0.00  0.00    +0.008 A 
ATOM     21  C   UNL     1       0.701 -10.103   5.058  0.00  0.00    -0.008 A 
ATOM     22  C   UNL     1      -0.433 -10.203   5.852  0.00  0.00    +0.126 A 
ATOM     23  C   UNL     1      -1.649  -9.729   5.383  0.00  0.00    -0.008 A 
ATOM     24  C   UNL     1      -1.728  -9.154   4.129  0.00  0.00    +0.008 A 
ATOM     25  C   UNL     1      -2.882  -9.836   6.243  0.00  0.00    +0.047 C 
ATOM     26  C   UNL     1       2.023 -10.617   5.565  0.00  0.00    +0.047 C 
BRANCH  22  27
ATOM     27  O   UNL     1      -0.352 -10.764   7.087  0.00  0.00    -0.495 OA
ATOM     28  C   UNL     1      -0.061  -9.890   8.180  0.00  0.00    +0.277 C 
ENDBRANCH  22  27
ENDBRANCH  18  19
ENDBRANCH  15  18
ENDBRANCH   1  15
TORSDOF 6
