REMARK  Name = ZINC09358155
REMARK  3 active torsions:
REMARK  status: ('A' for Active; 'I' for Inactive)
REMARK    1  A    between atoms: C_7  and  N_11
REMARK    2  A    between atoms: C_8  and  C_9
REMARK    3  A    between atoms: N_11  and  C_12
REMARK                            x       y       z     vdW  Elec       q    Type
REMARK                         _______ _______ _______ _____ _____    ______ ____
ROOT
ATOM      1  N   UNL     1       5.600  -1.985  -2.120  0.00  0.00    -0.313 N 
ATOM      2  H   UNL     1       5.976  -1.610  -2.932  0.00  0.00    +0.152 HD
ENDROOT
BRANCH   1   3
ATOM      3  C   UNL     1       6.014  -3.192  -1.679  0.00  0.00    +0.090 C 
ATOM      4  C   UNL     1       7.055  -3.841  -2.316  0.00  0.00    +0.113 C 
ATOM      5  C   UNL     1       7.851  -3.175  -3.363  0.00  0.00    +0.256 C 
ATOM      6  O   UNL     1       7.613  -2.030  -3.696  0.00  0.00    -0.270 OA
ATOM      7  N   UNL     1       8.851  -3.871  -3.942  0.00  0.00    -0.263 N 
ATOM      8  C   UNL     1       9.125  -5.134  -3.586  0.00  0.00    +0.143 C 
ATOM      9  S   UNL     1      10.413  -5.938  -4.376  0.00  0.00    -0.018 S 
ATOM     10  N   UNL     1       8.443  -5.800  -2.643  0.00  0.00    -0.263 N 
ATOM     11  C   UNL     1       7.421  -5.228  -1.975  0.00  0.00    +0.256 C 
ATOM     12  O   UNL     1       6.813  -5.841  -1.118  0.00  0.00    -0.270 OA
ATOM     13  H   UNL     1       9.385  -3.447  -4.633  0.00  0.00    +0.157 HD
ATOM     14  H   UNL     1       8.694  -6.713  -2.434  0.00  0.00    +0.157 HD
ENDBRANCH   1   3
BRANCH   1  21
ATOM     15  C   UNL     1       0.537   1.907   0.659  0.00  0.00    +0.001 C 
ATOM     16  C   UNL     1       1.948   2.390   0.329  0.00  0.00    +0.005 C 
ATOM     17  C   UNL     1       2.402   1.827  -1.015  0.00  0.00    +0.037 C 
ATOM     18  C   UNL     1       3.090   0.486  -0.806  0.00  0.00    -0.018 A 
ATOM     19  C   UNL     1       2.819  -0.322   0.242  0.00  0.00    -0.004 A 
ATOM     20  S   UNL     1       3.859  -1.735   0.003  0.00  0.00    -0.077 S 
ATOM     21  C   UNL     1       4.638  -1.281  -1.413  0.00  0.00    +0.087 A 
ATOM     22  C   UNL     1       4.097  -0.043  -1.713  0.00  0.00    +0.084 A 
ATOM     23  C   UNL     1       1.864  -0.071   1.367  0.00  0.00    +0.043 C 
ATOM     24  C   UNL     1       0.517   0.387   0.792  0.00  0.00    +0.005 C 
BRANCH  22  25
ATOM     25  C   UNL     1       4.512   0.689  -2.872  0.00  0.00    +0.102 C 
ATOM     26  N   UNL     1       4.842   1.270  -3.791  0.00  0.00    -0.191 NA
ENDBRANCH  22  25
ENDBRANCH   1  21
TORSDOF 3
