REMARK  Name = ZINC60039777
REMARK  16 active torsions:
REMARK  status: ('A' for Active; 'I' for Inactive)
REMARK    1  A    between atoms: C_1  and  C_2
REMARK    2  A    between atoms: C_2  and  C_3
REMARK    3  A    between atoms: C_3  and  C_4
REMARK    4  A    between atoms: C_4  and  N_5
REMARK    5  A    between atoms: N_5  and  C_6
REMARK    6  A    between atoms: C_7  and  N_19
REMARK    7  A    between atoms: N_8  and  C_15
REMARK    8  A    between atoms: C_15  and  C_16
REMARK    9  A    between atoms: C_16  and  C_17
REMARK   10  A    between atoms: C_16  and  C_18
REMARK   11  A    between atoms: C_20  and  C_22
REMARK   12  A    between atoms: C_22  and  N_23
REMARK   13  A    between atoms: N_23  and  C_24
REMARK   14  A    between atoms: N_23  and  C_27
REMARK   15  A    between atoms: C_24  and  C_25
REMARK   16  A    between atoms: C_25  and  C_26
REMARK                            x       y       z     vdW  Elec       q    Type
REMARK                         _______ _______ _______ _____ _____    ______ ____
ROOT
ATOM      1  N   UNL     1      -2.506  -2.783   0.328  0.00  0.00    -0.266 N 
ATOM      2  C   UNL     1      -3.224  -3.259   1.366  0.00  0.00    +0.203 C 
ATOM      3  O   UNL     1      -4.210  -3.937   1.162  0.00  0.00    -0.277 OA
ENDROOT
BRANCH   1   4
ATOM      4  C   UNL     1      -2.954  -2.990  -0.994  0.00  0.00    +0.140 A 
ATOM      5  C   UNL     1      -2.243  -3.799  -1.858  0.00  0.00    +0.127 A 
ATOM      6  N   UNL     1      -2.705  -3.981  -3.140  0.00  0.00    -0.280 N 
ATOM      7  C   UNL     1      -3.837  -3.378  -3.549  0.00  0.00    +0.331 A 
ATOM      8  O   UNL     1      -4.229  -3.552  -4.686  0.00  0.00    -0.246 OA
ATOM      9  N   UNL     1      -4.543  -2.588  -2.721  0.00  0.00    -0.273 N 
ATOM     10  H   UNL     1      -5.356  -2.165  -3.039  0.00  0.00    +0.173 HD
ATOM     11  C   UNL     1      -4.137  -2.381  -1.453  0.00  0.00    +0.277 A 
ATOM     12  O   UNL     1      -4.787  -1.666  -0.709  0.00  0.00    -0.266 OA
BRANCH   5  13
ATOM     13  N   UNL     1      -1.087  -4.413  -1.441  0.00  0.00    -0.343 N 
ATOM     14  H   UNL     1      -0.740  -4.242  -0.552  0.00  0.00    +0.144 HD
ATOM     15  H   UNL     1      -0.618  -5.019  -2.037  0.00  0.00    +0.144 HD
ENDBRANCH   5  13
BRANCH   6  16
ATOM     16  C   UNL     1      -1.961  -4.836  -4.068  0.00  0.00    +0.131 C 
BRANCH  16  17
ATOM     17  C   UNL     1      -2.467  -6.276  -3.953  0.00  0.00    +0.003 C 
ATOM     18  C   UNL     1      -1.778  -7.144  -5.007  0.00  0.00    +0.009 C 
ATOM     19  C   UNL     1      -2.149  -6.818  -2.558  0.00  0.00    +0.009 C 
ENDBRANCH  16  17
ENDBRANCH   6  16
ENDBRANCH   1   4
BRANCH   1  20
ATOM     20  C   UNL     1      -1.261  -2.051   0.573  0.00  0.00    +0.114 C 
BRANCH  20  21
ATOM     21  C   UNL     1      -1.550  -0.550   0.609  0.00  0.00    +0.019 C 
BRANCH  21  23
ATOM     22  C   UNL     1      -0.540   1.716   0.901  0.00  0.00    +0.004 C 
ATOM     23  C   UNL     1      -0.250   0.215   0.865  0.00  0.00    -0.002 C 
ENDBRANCH  21  23
ENDBRANCH  20  21
ENDBRANCH   1  20
BRANCH   2  24
ATOM     24  C   UNL     1      -2.802  -2.950   2.779  0.00  0.00    +0.019 C 
BRANCH  24  25
ATOM     25  N   UNL     1      -3.740  -3.578   3.719  0.00  0.00    +0.388 N 
ATOM     26  H   UNL     1      -4.680  -3.280   3.505  0.00  0.00    -0.081 HD
BRANCH  25  27
ATOM     27  C   UNL     1      -3.400  -3.178   5.091  0.00  0.00    -0.063 C 
ATOM     28  C   UNL     1      -3.552  -1.660   5.240  0.00  0.00    -0.010 C 
ATOM     29  C   UNL     1      -3.427  -1.306   6.720  0.00  0.00    +0.034 C 
ATOM     30  C   UNL     1      -2.182  -1.917   7.307  0.00  0.00    -0.044 A 
ATOM     31  C   UNL     1      -1.714  -1.402   8.509  0.00  0.00    +0.004 A 
ATOM     32  C   UNL     1      -0.582  -1.922   9.101  0.00  0.00    +0.000 A 
ATOM     33  C   UNL     1       0.092  -2.966   8.495  0.00  0.00    +0.000 A 
ATOM     34  C   UNL     1      -0.370  -3.478   7.300  0.00  0.00    +0.004 A 
ATOM     35  C   UNL     1      -1.508  -2.953   6.700  0.00  0.00    -0.046 A 
ATOM     36  C   UNL     1      -1.948  -3.549   5.389  0.00  0.00    +0.020 C 
ENDBRANCH  25  27
BRANCH  25  37
ATOM     37  C   UNL     1      -3.651  -5.039   3.598  0.00  0.00    -0.078 C 
BRANCH  37  38
ATOM     38  C   UNL     1      -4.733  -5.690   4.461  0.00  0.00    -0.022 C 
ATOM     39  C   UNL     1      -4.579  -7.211   4.411  0.00  0.00    +0.002 C 
ENDBRANCH  37  38
ENDBRANCH  25  37
ENDBRANCH  24  25
ENDBRANCH   2  24
TORSDOF 12
