REMARK  Name = ZINC39663763
REMARK  10 active torsions:
REMARK  status: ('A' for Active; 'I' for Inactive)
REMARK    1  A    between atoms: C_1  and  N_2
REMARK    2  A    between atoms: N_2  and  C_3
REMARK    3  A    between atoms: N_2  and  C_4
REMARK    4  A    between atoms: C_4  and  C_6
REMARK    5  A    between atoms: C_4  and  C_27
REMARK    6  A    between atoms: C_6  and  N_7
REMARK    7  A    between atoms: C_8  and  C_10
REMARK    8  A    between atoms: C_21  and  C_23
REMARK    9  A    between atoms: C_30  and  O_33
REMARK   10  A    between atoms: O_33  and  C_34
REMARK                            x       y       z     vdW  Elec       q    Type
REMARK                         _______ _______ _______ _____ _____    ______ ____
ROOT
ATOM      1  N   UNL     1       3.555   1.492   0.256  0.00  0.00    -0.316 N 
ATOM      2  C   UNL     1       3.518   2.331  -0.798  0.00  0.00    +0.218 C 
ATOM      3  O   UNL     1       3.350   1.893  -1.916  0.00  0.00    -0.275 OA
ATOM      4  H   UNL     1       3.690   1.843   1.151  0.00  0.00    +0.149 HD
ENDROOT
BRANCH   2   5
ATOM      5  C   UNL     1       3.688   3.814  -0.588  0.00  0.00    +0.100 C 
ATOM      6  C   UNL     1       2.929   4.602  -1.679  0.00  0.00    +0.121 C 
ATOM      7  N   UNL     1       3.801   5.763  -1.976  0.00  0.00    -0.300 N 
ATOM      8  C   UNL     1       5.176   5.210  -1.940  0.00  0.00    +0.115 C 
ATOM      9  C   UNL     1       5.162   4.215  -0.763  0.00  0.00    -0.004 C 
ATOM     10  C   UNL     1       6.007   2.989  -1.098  0.00  0.00    -0.010 C 
ATOM     11  C   UNL     1       7.477   3.403  -1.210  0.00  0.00    -0.082 C 
ATOM     12  N   UNL     1       7.918   3.995   0.059  0.00  0.00    +0.379 N 
ATOM     13  C   UNL     1       7.164   5.225   0.327  0.00  0.00    -0.082 C 
ATOM     14  C   UNL     1       5.681   4.888   0.504  0.00  0.00    -0.010 C 
ATOM     15  C   UNL     1       3.428   7.034  -2.223  0.00  0.00    +0.219 C 
ATOM     16  O   UNL     1       4.268   7.879  -2.452  0.00  0.00    -0.275 OA
ATOM     17  H   UNL     1       7.763   3.337   0.807  0.00  0.00    -0.086 HD
ATOM     18  H   UNL     1       8.902   4.211   0.003  0.00  0.00    -0.086 HD
BRANCH  15  19
ATOM     19  C   UNL     1       1.968   7.406  -2.215  0.00  0.00    +0.075 C 
ATOM     20  C   UNL     1       1.245   7.095  -3.536  0.00  0.00    +0.013 C 
ATOM     21  C   UNL     1       0.507   8.432  -3.356  0.00  0.00    +0.001 C 
ATOM     22  C   UNL     1       1.709   8.892  -2.514  0.00  0.00    +0.013 C 
ENDBRANCH  15  19
ENDBRANCH   2   5
BRANCH   1  23
ATOM     23  C   UNL     1       3.391   0.051   0.052  0.00  0.00    +0.093 C 
BRANCH  23  24
ATOM     24  C   UNL     1       3.583  -0.678   1.383  0.00  0.00    -0.021 C 
BRANCH  24  25
ATOM     25  C   UNL     1       2.494  -0.271   2.341  0.00  0.00    -0.059 A 
ATOM     26  C   UNL     1       1.242  -0.851   2.250  0.00  0.00    +0.005 A 
ATOM     27  C   UNL     1       0.242  -0.480   3.127  0.00  0.00    +0.046 A 
ATOM     28  C   UNL     1       0.494   0.476   4.100  0.00  0.00    +0.120 A 
ATOM     29  C   UNL     1       1.751   1.057   4.190  0.00  0.00    +0.046 A 
ATOM     30  C   UNL     1       2.749   0.678   3.314  0.00  0.00    +0.005 A 
BRANCH  28  31
ATOM     31  O   UNL     1      -0.489   0.844   4.964  0.00  0.00    -0.495 OA
ATOM     32  C   UNL     1      -0.158   1.834   5.940  0.00  0.00    +0.277 C 
ENDBRANCH  28  31
ENDBRANCH  24  25
BRANCH  24  34
ATOM     33  C   UNL     1       4.584  -2.526   0.225  0.00  0.00    -0.096 C 
ATOM     34  N   UNL     1       3.523  -2.129   1.160  0.00  0.00    +0.382 N 
ATOM     35  C   UNL     1       3.708  -2.829   2.438  0.00  0.00    -0.096 C 
ATOM     36  H   UNL     1       2.624  -2.372   0.771  0.00  0.00    -0.082 HD
ENDBRANCH  24  34
ENDBRANCH  23  24
ENDBRANCH   1  23
TORSDOF 7
