REMARK  Name = ZINC19499322
REMARK  8 active torsions:
REMARK  status: ('A' for Active; 'I' for Inactive)
REMARK    1  A    between atoms: C_1  and  C_2
REMARK    2  A    between atoms: C_2  and  C_3
REMARK    3  A    between atoms: N_5  and  C_6
REMARK    4  A    between atoms: C_9  and  C_12
REMARK    5  A    between atoms: C_12  and  C_14
REMARK    6  A    between atoms: C_12  and  O_33
REMARK    7  A    between atoms: C_14  and  N_15
REMARK    8  A    between atoms: C_22  and  O_32
REMARK                            x       y       z     vdW  Elec       q    Type
REMARK                         _______ _______ _______ _____ _____    ______ ____
ROOT
ATOM      1  N   UNL     1      -6.490   5.369   1.387  0.00  0.00    +0.382 N 
ATOM      2  C   UNL     1      -7.535   4.469   0.882  0.00  0.00    -0.075 C 
ATOM      3  C   UNL     1      -8.888   5.183   0.922  0.00  0.00    +0.029 C 
ATOM      4  C   UNL     1      -9.197   5.605   2.359  0.00  0.00    +0.110 C 
ATOM      5  C   UNL     1      -8.070   6.496   2.882  0.00  0.00    +0.029 C 
ATOM      6  C   UNL     1      -6.741   5.742   2.785  0.00  0.00    -0.075 C 
ATOM      7  C   UNL     1     -10.519   6.380   2.391  0.00  0.00    +0.084 C 
ATOM      8  C   UNL     1     -11.605   5.504   1.759  0.00  0.00    +0.152 C 
ATOM      9  C   UNL     1     -11.546   4.118   2.349  0.00  0.00    +0.024 A 
ATOM     10  C   UNL     1     -12.645   3.287   2.207  0.00  0.00    +0.029 A 
ATOM     11  C   UNL     1     -12.624   2.009   2.731  0.00  0.00    +0.042 A 
ATOM     12  C   UNL     1     -11.502   1.554   3.401  0.00  0.00    +0.023 A 
ATOM     13  C   UNL     1     -10.405   2.378   3.545  0.00  0.00    +0.047 A 
ATOM     14  C   UNL     1     -10.423   3.667   3.019  0.00  0.00    +0.127 A 
ATOM     15  O   UNL     1      -9.325   4.449   3.186  0.00  0.00    -0.485 OA
ATOM     16 CL   UNL     1     -14.005   0.973   2.547  0.00  0.00    -0.084 Cl
ATOM     17  H   UNL     1      -6.520   6.289   0.784  0.00  0.00    -0.082 HD
ENDROOT
BRANCH   8  18
ATOM     18  O   UNL     1     -12.888   6.077   2.018  0.00  0.00    -0.387 OA
ATOM     19  H   UNL     1     -13.796   5.586   1.639  0.00  0.00    +0.210 HD
ENDBRANCH   8  18
BRANCH   1  20
ATOM     20  C   UNL     1      -5.159   4.769   1.233  0.00  0.00    -0.042 C 
BRANCH  20  21
ATOM     21  C   UNL     1      -4.971   4.307  -0.213  0.00  0.00    +0.128 C 
BRANCH  21  25
ATOM     22  C   UNL     1      -1.107   2.535  -0.654  0.00  0.00    +0.033 A 
ATOM     23  C   UNL     1      -1.243   3.917  -0.654  0.00  0.00    +0.023 A 
ATOM     24  C   UNL     1      -2.494   4.487  -0.517  0.00  0.00    +0.008 A 
ATOM     25  C   UNL     1      -3.609   3.682  -0.369  0.00  0.00    -0.021 A 
ATOM     26  C   UNL     1      -3.476   2.306  -0.363  0.00  0.00    +0.008 A 
ATOM     27  C   UNL     1      -2.228   1.730  -0.504  0.00  0.00    +0.023 A 
BRANCH  22  30
ATOM     28  C   UNL     1       1.094   2.558  -1.558  0.00  0.00    +0.217 C 
ATOM     29  O   UNL     1       0.813   3.557  -2.186  0.00  0.00    -0.275 OA
ATOM     30  N   UNL     1       0.158   1.955  -0.797  0.00  0.00    -0.286 N 
ATOM     31  H   UNL     1       0.390   1.007  -0.290  0.00  0.00    +0.155 HD
BRANCH  28  33
ATOM     32  C   UNL     1       3.345   2.858  -2.552  0.00  0.00    +0.013 C 
ATOM     33  C   UNL     1       2.488   1.992  -1.627  0.00  0.00    +0.093 C 
ENDBRANCH  28  33
ENDBRANCH  22  30
ENDBRANCH  21  25
BRANCH  21  34
ATOM     34  O   UNL     1      -5.083   5.429  -1.090  0.00  0.00    -0.389 OA
ATOM     35  H   UNL     1      -6.014   6.016  -1.117  0.00  0.00    +0.210 HD
ENDBRANCH  21  34
ENDBRANCH  20  21
ENDBRANCH   1  20
TORSDOF 7
