REMARK  Name = ZINC12311814
REMARK  8 active torsions:
REMARK  status: ('A' for Active; 'I' for Inactive)
REMARK    1  A    between atoms: C_1  and  C_2
REMARK    2  A    between atoms: C_6  and  N_9
REMARK    3  A    between atoms: C_7  and  C_8
REMARK    4  A    between atoms: N_9  and  C_10
REMARK    5  A    between atoms: C_11  and  C_29
REMARK    6  A    between atoms: C_14  and  C_17
REMARK    7  A    between atoms: N_19  and  C_20
REMARK    8  A    between atoms: C_25  and  C_26
REMARK                            x       y       z     vdW  Elec       q    Type
REMARK                         _______ _______ _______ _____ _____    ______ ____
ROOT
ATOM      1  C   UNL     1      -0.098  -4.157   2.379  0.00  0.00    +0.078 C 
ATOM      2  C   UNL     1      -0.199  -5.009   3.473  0.00  0.00    +0.057 C 
ATOM      3  C   UNL     1      -0.267  -6.390   3.292  0.00  0.00    +0.067 C 
ATOM      4  N   UNL     1      -0.362  -7.222   4.289  0.00  0.00    -0.302 NA
ATOM      5  C   UNL     1      -0.224  -6.851   1.847  0.00  0.00    +0.187 C 
ATOM      6  S   UNL     1      -0.098  -5.244   0.965  0.00  0.00    -0.090 S 
ATOM      7  H   UNL     1      -0.314  -6.894   5.201  0.00  0.00    +0.186 HD
ENDROOT
BRANCH   2   8
ATOM      8  C   UNL     1      -0.233  -4.450   4.832  0.00  0.00    +0.113 A 
ATOM      9  N   UNL     1      -0.231  -5.085   5.988  0.00  0.00    -0.239 NA
ATOM     10  C   UNL     1      -0.265  -4.434   7.169  0.00  0.00    +0.079 A 
ATOM     11  C   UNL     1      -0.268  -4.988   8.471  0.00  0.00    +0.029 A 
ATOM     12  C   UNL     1      -0.305  -4.179   9.576  0.00  0.00    +0.002 A 
ATOM     13  C   UNL     1      -0.341  -2.796   9.462  0.00  0.00    +0.001 A 
ATOM     14  C   UNL     1      -0.339  -2.220   8.204  0.00  0.00    +0.017 A 
ATOM     15  C   UNL     1      -0.302  -3.022   7.091  0.00  0.00    +0.040 A 
ATOM     16  S   UNL     1      -0.279  -2.737   5.338  0.00  0.00    -0.067 S 
ENDBRANCH   2   8
BRANCH   5  17
ATOM     17  C   UNL     1       0.985  -7.713   1.589  0.00  0.00    +0.236 C 
ATOM     18  O   UNL     1       2.002  -7.537   2.226  0.00  0.00    -0.274 OA
ATOM     19  N   UNL     1       0.936  -8.679   0.651  0.00  0.00    -0.284 N 
ATOM     20  H   UNL     1       0.151  -8.770   0.089  0.00  0.00    +0.155 HD
BRANCH  19  21
ATOM     21  C   UNL     1       2.014  -9.547   0.488  0.00  0.00    +0.046 A 
ATOM     22  C   UNL     1       2.757  -9.951   1.589  0.00  0.00    +0.024 A 
ATOM     23  C   UNL     1       3.824 -10.811   1.425  0.00  0.00    +0.002 A 
ATOM     24  C   UNL     1       4.162 -11.277   0.165  0.00  0.00    +0.001 A 
ATOM     25  C   UNL     1       3.435 -10.887  -0.939  0.00  0.00    +0.015 A 
ATOM     26  C   UNL     1       2.349 -10.022  -0.788  0.00  0.00    +0.058 A 
BRANCH  26  27
ATOM     27  C   UNL     1       1.563  -9.606  -1.965  0.00  0.00    +0.243 C 
ATOM     28  O   UNL     1       0.682  -8.777  -1.846  0.00  0.00    -0.270 OA
ATOM     29  N   UNL     1       1.822 -10.144  -3.173  0.00  0.00    -0.325 N 
ATOM     30  H   UNL     1       2.525 -10.806  -3.269  0.00  0.00    +0.145 HD
ATOM     31  H   UNL     1       1.305  -9.871  -3.947  0.00  0.00    +0.145 HD
ENDBRANCH  26  27
ENDBRANCH  19  21
ENDBRANCH   5  17
BRANCH   1  32
ATOM     32  N   UNL     1      -0.022  -2.789   2.386  0.00  0.00    -0.308 N 
ATOM     33  H   UNL     1       0.058  -2.312   3.227  0.00  0.00    +0.153 HD
BRANCH  32  39
ATOM     34  C   UNL     1       1.120   1.237  -0.192  0.00  0.00    +0.044 C 
ATOM     35  C   UNL     1       0.486  -0.127  -0.097  0.00  0.00    -0.046 A 
ATOM     36  C   UNL     1      -0.134  -0.679  -1.203  0.00  0.00    +0.004 A 
ATOM     37  C   UNL     1      -0.716  -1.930  -1.120  0.00  0.00    +0.002 A 
ATOM     38  C   UNL     1      -0.681  -2.633   0.069  0.00  0.00    +0.023 A 
ATOM     39  C   UNL     1      -0.059  -2.081   1.182  0.00  0.00    +0.035 A 
ATOM     40  C   UNL     1       0.530  -0.826   1.093  0.00  0.00    -0.026 A 
ATOM     41  C   UNL     1       1.210  -0.226   2.297  0.00  0.00    +0.046 C 
ENDBRANCH  32  39
ENDBRANCH   1  32
TORSDOF 6
