REMARK  Name = ZINC58156425
REMARK  10 active torsions:
REMARK  status: ('A' for Active; 'I' for Inactive)
REMARK    1  A    between atoms: C_1  and  N_2
REMARK    2  A    between atoms: N_2  and  C_3
REMARK    3  A    between atoms: N_2  and  C_21
REMARK    4  A    between atoms: C_3  and  C_4
REMARK    5  A    between atoms: C_4  and  C_5
REMARK    6  A    between atoms: C_5  and  N_6
REMARK    7  A    between atoms: N_9  and  C_10
REMARK    8  A    between atoms: C_15  and  S_16
REMARK    9  A    between atoms: S_16  and  C_17
REMARK   10  A    between atoms: C_17  and  C_18
REMARK                            x       y       z     vdW  Elec       q    Type
REMARK                         _______ _______ _______ _____ _____    ______ ____
ROOT
ATOM      1  N   UNL     1       4.277  -0.126  -2.377  0.00  0.00    -0.299 N 
ATOM      2  C   UNL     1       5.111  -0.462  -3.382  0.00  0.00    +0.304 C 
ATOM      3  O   UNL     1       4.693  -1.097  -4.331  0.00  0.00    -0.253 OA
ATOM      4  N   UNL     1       6.406  -0.093  -3.335  0.00  0.00    -0.268 N 
ATOM      5  H   UNL     1       4.610   0.381  -1.620  0.00  0.00    +0.150 HD
ATOM      6  H   UNL     1       6.724   0.468  -2.611  0.00  0.00    +0.156 HD
ENDROOT
BRANCH   4   7
ATOM      7  C   UNL     1       7.293  -0.521  -4.332  0.00  0.00    +0.048 A 
ATOM      8  C   UNL     1       6.854  -0.663  -5.639  0.00  0.00    +0.024 A 
ATOM      9  C   UNL     1       7.731  -1.086  -6.622  0.00  0.00    +0.002 A 
ATOM     10  C   UNL     1       9.047  -1.369  -6.304  0.00  0.00    +0.001 A 
ATOM     11  C   UNL     1       9.494  -1.230  -5.004  0.00  0.00    +0.016 A 
ATOM     12  C   UNL     1       8.622  -0.801  -4.013  0.00  0.00    +0.030 A 
BRANCH  12  13
ATOM     13  S   UNL     1       9.191  -0.616  -2.356  0.00  0.00    -0.114 S 
BRANCH  13  14
ATOM     14  C   UNL     1      10.941  -1.085  -2.437  0.00  0.00    +0.169 C 
BRANCH  14  15
ATOM     15  C   UNL     1      11.557  -0.970  -1.066  0.00  0.00    +0.221 C 
ATOM     16  O   UNL     1      10.881  -0.607  -0.127  0.00  0.00    -0.275 OA
ATOM     17  N   UNL     1      12.858  -1.270  -0.885  0.00  0.00    -0.329 N 
ATOM     18  H   UNL     1      13.399  -1.560  -1.636  0.00  0.00    +0.145 HD
ATOM     19  H   UNL     1      13.254  -1.195  -0.002  0.00  0.00    +0.145 HD
ENDBRANCH  14  15
ENDBRANCH  13  14
ENDBRANCH  12  13
ENDBRANCH   4   7
BRANCH   1  20
ATOM     20  C   UNL     1       2.869  -0.527  -2.429  0.00  0.00    +0.104 C 
BRANCH  20  21
ATOM     21  C   UNL     1       2.150  -0.024  -1.175  0.00  0.00    +0.000 C 
BRANCH  21  22
ATOM     22  C   UNL     1       0.679  -0.442  -1.229  0.00  0.00    -0.077 C 
BRANCH  22  24
ATOM     23  C   UNL     1      -0.025   1.510  -0.025  0.00  0.00    -0.096 C 
ATOM     24  N   UNL     1      -0.011   0.041  -0.026  0.00  0.00    +0.380 N 
ATOM     25  H   UNL     1       0.472  -0.291   0.795  0.00  0.00    -0.082 HD
BRANCH  24  26
ATOM     26  C   UNL     1      -1.392  -0.462  -0.018  0.00  0.00    -0.069 C 
ATOM     27  C   UNL     1      -1.378  -1.992  -0.019  0.00  0.00    -0.015 C 
ATOM     28  C   UNL     1      -2.816  -2.515  -0.011  0.00  0.00    -0.002 C 
ATOM     29  C   UNL     1      -3.535  -2.012   1.242  0.00  0.00    -0.000 C 
ATOM     30  C   UNL     1      -3.549  -0.482   1.242  0.00  0.00    -0.002 C 
ATOM     31  C   UNL     1      -2.111   0.042   1.235  0.00  0.00    -0.015 C 
ENDBRANCH  24  26
ENDBRANCH  22  24
ENDBRANCH  21  22
ENDBRANCH  20  21
ENDBRANCH   1  20
TORSDOF 9
