REMARK  Name = ZINC11869122
REMARK  10 active torsions:
REMARK  status: ('A' for Active; 'I' for Inactive)
REMARK    1  A    between atoms: C_1  and  C_2
REMARK    2  A    between atoms: C_5  and  C_8
REMARK    3  A    between atoms: C_8  and  N_9
REMARK    4  A    between atoms: C_18  and  C_20
REMARK    5  A    between atoms: C_20  and  N_60
REMARK    6  A    between atoms: C_21  and  C_22
REMARK    7  A    between atoms: C_21  and  N_60
REMARK    8  A    between atoms: C_22  and  O_23
REMARK    9  A    between atoms: C_24  and  N_60
REMARK   10  A    between atoms: C_31  and  O_33
REMARK                            x       y       z     vdW  Elec       q    Type
REMARK                         _______ _______ _______ _____ _____    ______ ____
ROOT
ATOM      1  N   UNL     1       3.541   0.933  -1.950  0.00  0.00    -0.324 N 
ATOM      2  C   UNL     1       4.635   0.101  -2.051  0.00  0.00    +0.130 A 
ATOM      3  C   UNL     1       5.101  -0.338  -3.315  0.00  0.00    +0.040 A 
ATOM      4  C   UNL     1       4.483   0.046  -4.510  0.00  0.00    +0.013 A 
ATOM      5  C   UNL     1       4.976  -0.408  -5.698  0.00  0.00    +0.001 A 
ATOM      6  C   UNL     1       6.086  -1.248  -5.737  0.00  0.00    +0.002 A 
ATOM      7  C   UNL     1       6.717  -1.631  -4.591  0.00  0.00    +0.028 A 
ATOM      8  C   UNL     1       6.234  -1.188  -3.353  0.00  0.00    +0.076 A 
ATOM      9  N   UNL     1       6.808  -1.548  -2.195  0.00  0.00    -0.234 NA
ATOM     10  C   UNL     1       6.329  -1.115  -1.053  0.00  0.00    +0.115 A 
ATOM     11  N   UNL     1       5.278  -0.316  -0.968  0.00  0.00    -0.219 NA
ATOM     12  H   UNL     1       3.081   1.229  -2.751  0.00  0.00    +0.148 HD
ENDROOT
BRANCH   1  13
ATOM     13  C   UNL     1       3.072   1.369  -0.632  0.00  0.00    +0.138 C 
BRANCH  13  18
ATOM     14  C   UNL     1      -1.532   4.802  -1.265  0.00  0.00    +0.044 C 
ATOM     15  C   UNL     1      -0.332   3.907  -1.100  0.00  0.00    -0.050 A 
ATOM     16  C   UNL     1      -0.500   2.541  -0.970  0.00  0.00    +0.003 A 
ATOM     17  C   UNL     1       0.601   1.720  -0.813  0.00  0.00    +0.005 A 
ATOM     18  C   UNL     1       1.871   2.264  -0.797  0.00  0.00    -0.030 A 
ATOM     19  C   UNL     1       2.041   3.630  -0.932  0.00  0.00    +0.005 A 
ATOM     20  C   UNL     1       0.939   4.451  -1.084  0.00  0.00    +0.003 A 
ENDBRANCH  13  18
ENDBRANCH   1  13
BRANCH  10  21
ATOM     21  C   UNL     1       7.009  -1.547   0.221  0.00  0.00    -0.001 C 
BRANCH  21  22
ATOM     22  N   UNL     1       6.368  -2.787   0.707  0.00  0.00    +0.391 N 
ATOM     23  H   UNL     1       5.352  -2.643   0.750  0.00  0.00    -0.081 HD
BRANCH  22  24
ATOM     24  C   UNL     1       6.865  -3.116   2.059  0.00  0.00    -0.016 C 
ATOM     25  C   UNL     1       6.343  -4.525   2.459  0.00  0.00    +0.153 C 
ATOM     26  S   UNL     1       6.498  -4.400   4.295  0.00  0.00    -0.030 S 
ATOM     27  O   UNL     1       5.451  -5.144   4.904  0.00  0.00    -0.174 OA
ATOM     28  O   UNL     1       7.847  -4.648   4.668  0.00  0.00    -0.174 OA
ATOM     29  C   UNL     1       6.143  -2.602   4.468  0.00  0.00    +0.195 C 
ATOM     30  C   UNL     1       6.350  -2.063   3.039  0.00  0.00    +0.123 C 
BRANCH  30  31
ATOM     31  O   UNL     1       5.104  -1.558   2.555  0.00  0.00    -0.392 OA
ATOM     32  H   UNL     1       4.707  -0.881   3.121  0.00  0.00    +0.210 HD
ENDBRANCH  30  31
ENDBRANCH  22  24
BRANCH  22  33
ATOM     33  C   UNL     1       6.655  -3.901  -0.222  0.00  0.00    -0.049 C 
BRANCH  33  34
ATOM     34  C   UNL     1       8.161  -4.028  -0.458  0.00  0.00    +0.137 C 
BRANCH  34  35
ATOM     35  O   UNL     1       8.801  -4.426   0.756  0.00  0.00    -0.397 OA
ATOM     36  H   UNL     1       9.760  -4.527   0.681  0.00  0.00    +0.209 HD
ENDBRANCH  34  35
ENDBRANCH  33  34
ENDBRANCH  22  33
ENDBRANCH  21  22
ENDBRANCH  10  21
TORSDOF 9
