REMARK  Name = ZINC06833224
REMARK  7 active torsions:
REMARK  status: ('A' for Active; 'I' for Inactive)
REMARK    1  A    between atoms: C_1  and  C_2
REMARK    2  A    between atoms: C_7  and  N_12
REMARK    3  A    between atoms: C_9  and  C_11
REMARK    4  A    between atoms: N_12  and  C_13
REMARK    5  A    between atoms: N_12  and  S_14
REMARK    6  A    between atoms: S_14  and  C_17
REMARK    7  A    between atoms: C_27  and  C_29
REMARK                            x       y       z     vdW  Elec       q    Type
REMARK                         _______ _______ _______ _____ _____    ______ ____
ROOT
ATOM      1  S   UNL     1      -1.257   0.506   2.254  0.00  0.00    +0.061 S 
ATOM      2  O   UNL     1      -2.296   1.183   2.948  0.00  0.00    -0.153 OA
ATOM      3  O   UNL     1      -1.480  -0.703   1.542  0.00  0.00    -0.153 OA
ENDROOT
BRANCH   1   4
ATOM      4  C   UNL     1       0.002   0.168   3.439  0.00  0.00    +0.107 A 
ATOM      5  C   UNL     1       0.103   0.943   4.580  0.00  0.00    +0.032 A 
ATOM      6  C   UNL     1       1.090   0.685   5.513  0.00  0.00    +0.049 A 
ATOM      7  C   UNL     1       1.984  -0.356   5.309  0.00  0.00    +0.142 A 
ATOM      8  C   UNL     1       1.878  -1.136   4.160  0.00  0.00    +0.080 A 
ATOM      9  C   UNL     1       0.885  -0.875   3.230  0.00  0.00    +0.055 A 
ATOM     10  N   UNL     1       2.779  -2.195   3.952  0.00  0.00    -0.265 N 
ATOM     11  C   UNL     1       3.983  -2.246   4.798  0.00  0.00    +0.154 C 
ATOM     12  C   UNL     1       3.559  -1.895   6.231  0.00  0.00    +0.248 C 
ATOM     13  O   UNL     1       2.953  -0.600   6.229  0.00  0.00    -0.489 OA
ATOM     14  C   UNL     1       2.547  -3.132   3.011  0.00  0.00    +0.217 C 
ATOM     15  O   UNL     1       1.500  -3.132   2.400  0.00  0.00    -0.276 OA
ATOM     16  C   UNL     1       3.590  -4.180   2.719  0.00  0.00    +0.109 C 
ENDBRANCH   1   4
BRANCH   1  17
ATOM     17  N   UNL     1      -0.630   1.587   1.168  0.00  0.00    -0.176 NA
ATOM     18  C   UNL     1      -0.769   3.026   1.404  0.00  0.00    +0.132 C 
BRANCH  17  24
ATOM     19  C   UNL     1       0.070  -0.418  -2.532  0.00  0.00    +0.008 C 
ATOM     20  C   UNL     1       0.065   1.111  -2.527  0.00  0.00    -0.010 C 
ATOM     21  C   UNL     1       1.506   1.626  -2.525  0.00  0.00    +0.003 C 
ATOM     22  C   UNL     1       2.228   1.115  -1.276  0.00  0.00    +0.002 C 
ATOM     23  C   UNL     1       1.504   1.619  -0.026  0.00  0.00    +0.021 C 
ATOM     24  C   UNL     1       0.063   1.104  -0.029  0.00  0.00    +0.083 C 
ATOM     25  C   UNL     1      -0.659   1.616  -1.277  0.00  0.00    +0.008 C 
ATOM     26  C   UNL     1      -2.100   1.101  -1.280  0.00  0.00    +0.009 C 
ENDBRANCH  17  24
ENDBRANCH   1  17
TORSDOF 3
