REMARK  Name = ZINC29615861
REMARK  13 active torsions:
REMARK  status: ('A' for Active; 'I' for Inactive)
REMARK    1  A    between atoms: C_1  and  C_2
REMARK    2  A    between atoms: C_5  and  N_9
REMARK    3  A    between atoms: C_6  and  C_8
REMARK    4  A    between atoms: C_13  and  C_15
REMARK    5  A    between atoms: C_15  and  C_17
REMARK    6  A    between atoms: C_15  and  N_18
REMARK    7  A    between atoms: N_18  and  C_19
REMARK    8  A    between atoms: C_19  and  C_21
REMARK    9  A    between atoms: C_19  and  C_22
REMARK   10  A    between atoms: C_24  and  O_30
REMARK   11  A    between atoms: C_27  and  O_28
REMARK   12  A    between atoms: O_28  and  C_29
REMARK   13  A    between atoms: O_30  and  C_31
REMARK                            x       y       z     vdW  Elec       q    Type
REMARK                         _______ _______ _______ _____ _____    ______ ____
ROOT
ATOM      1  C   UNL     1      -4.417   1.885   6.242  0.00  0.00    +0.014 C 
ATOM      2  C   UNL     1      -4.244   0.452   6.749  0.00  0.00    -0.004 C 
ENDROOT
BRANCH   1   7
ATOM      3  N   UNL     1      -3.948   3.813  10.620  0.00  0.00    -0.269 N 
ATOM      4  C   UNL     1      -3.549   3.754   9.334  0.00  0.00    +0.310 C 
ATOM      5  O   UNL     1      -2.648   4.471   8.944  0.00  0.00    -0.252 OA
ATOM      6  N   UNL     1      -4.147   2.900   8.481  0.00  0.00    -0.241 N 
ATOM      7  C   UNL     1      -3.748   2.840   7.196  0.00  0.00    +0.206 C 
ATOM      8  O   UNL     1      -2.849   3.556   6.806  0.00  0.00    -0.277 OA
ATOM      9  H   UNL     1      -4.822   3.233  10.952  0.00  0.00    +0.156 HD
ATOM     10  H   UNL     1      -4.962   2.250   8.835  0.00  0.00    +0.159 HD
BRANCH   3  15
ATOM     11  C   UNL     1      -1.123   7.054  14.322  0.00  0.00    +0.044 C 
ATOM     12  C   UNL     1      -1.873   6.193  13.339  0.00  0.00    -0.050 A 
ATOM     13  C   UNL     1      -1.232   5.713  12.211  0.00  0.00    +0.005 A 
ATOM     14  C   UNL     1      -1.917   4.925  11.308  0.00  0.00    +0.024 A 
ATOM     15  C   UNL     1      -3.251   4.612  11.533  0.00  0.00    +0.038 A 
ATOM     16  C   UNL     1      -3.894   5.099  12.664  0.00  0.00    -0.029 A 
ATOM     17  C   UNL     1      -3.202   5.884  13.566  0.00  0.00    +0.008 A 
ATOM     18  C   UNL     1      -5.343   4.768  12.909  0.00  0.00    +0.045 C 
ENDBRANCH   3  15
ENDBRANCH   1   7
BRANCH   1  19
ATOM     19  N   UNL     1      -3.805   2.011   4.912  0.00  0.00    +0.391 N 
ATOM     20  H   UNL     1      -3.523   3.060   4.736  0.00  0.00    -0.084 HD
ATOM     21  H   UNL     1      -2.908   1.377   4.860  0.00  0.00    -0.084 HD
BRANCH  19  22
ATOM     22  C   UNL     1      -4.741   1.592   3.860  0.00  0.00    -0.039 C 
ATOM     23  C   UNL     1      -5.645   2.768   3.483  0.00  0.00    -0.009 C 
BRANCH  22  24
ATOM     24  C   UNL     1      -3.966   1.146   2.647  0.00  0.00    -0.016 A 
ATOM     25  C   UNL     1      -2.654   1.546   2.480  0.00  0.00    +0.051 A 
ATOM     26  C   UNL     1      -1.941   1.135   1.364  0.00  0.00    +0.121 A 
ATOM     27  C   UNL     1      -2.546   0.326   0.413  0.00  0.00    +0.049 A 
ATOM     28  C   UNL     1      -3.856  -0.078   0.583  0.00  0.00    +0.049 A 
ATOM     29  C   UNL     1      -4.569   0.333   1.699  0.00  0.00    +0.122 A 
BRANCH  29  30
ATOM     30  O   UNL     1      -5.860  -0.061   1.864  0.00  0.00    -0.495 OA
ATOM     31  C   UNL     1      -6.418  -0.898   0.849  0.00  0.00    +0.277 C 
ENDBRANCH  29  30
BRANCH  26  32
ATOM     32  O   UNL     1      -0.650   1.528   1.199  0.00  0.00    -0.495 OA
ATOM     33  C   UNL     1       0.024   1.067   0.027  0.00  0.00    +0.277 C 
ENDBRANCH  26  32
ENDBRANCH  22  24
ENDBRANCH  19  22
ENDBRANCH   1  19
TORSDOF 7
