REMARK  Name = ZINC14328606
REMARK  8 active torsions:
REMARK  status: ('A' for Active; 'I' for Inactive)
REMARK    1  A    between atoms: C_1  and  C_2
REMARK    2  A    between atoms: C_2  and  C_4
REMARK    3  A    between atoms: C_2  and  N_68
REMARK    4  A    between atoms: N_6  and  C_7
REMARK    5  A    between atoms: C_7  and  C_8
REMARK    6  A    between atoms: C_7  and  C_14
REMARK    7  A    between atoms: C_22  and  C_25
REMARK    8  A    between atoms: C_25  and  C_27
REMARK                            x       y       z     vdW  Elec       q    Type
REMARK                         _______ _______ _______ _____ _____    ______ ____
ROOT
ATOM      1  C   UNL     1      -9.779  -0.549   0.489  0.00  0.00    -0.004 C 
ATOM      2  C   UNL     1      -9.078   0.704   1.017  0.00  0.00    +0.016 C 
ENDROOT
BRANCH   2   8
ATOM      3  C   UNL     1      -7.178  -0.755   1.364  0.00  0.00    -0.077 C 
ATOM      4  C   UNL     1      -5.649  -0.821   1.327  0.00  0.00    -0.007 C 
ATOM      5  C   UNL     1      -5.169  -0.610  -0.112  0.00  0.00    +0.057 C 
ATOM      6  C   UNL     1      -5.688   0.736  -0.625  0.00  0.00    -0.007 C 
ATOM      7  C   UNL     1      -7.216   0.757  -0.529  0.00  0.00    -0.077 C 
ATOM      8  N   UNL     1      -7.612   0.574   0.883  0.00  0.00    +0.387 N 
ATOM      9  H   UNL     1      -7.160   1.299   1.453  0.00  0.00    -0.081 HD
BRANCH   5  10
ATOM     10  C   UNL     1      -3.662  -0.615  -0.146  0.00  0.00    +0.166 C 
ATOM     11  O   UNL     1      -3.032  -0.319   0.848  0.00  0.00    -0.292 OA
BRANCH  10  12
ATOM     12  C   UNL     1      -2.957  -0.976  -1.382  0.00  0.00    +0.021 A 
ATOM     13  C   UNL     1      -3.681  -1.318  -2.530  0.00  0.00    +0.015 A 
ATOM     14  C   UNL     1      -3.016  -1.661  -3.685  0.00  0.00    +0.050 A 
ATOM     15  C   UNL     1      -1.625  -1.664  -3.720  0.00  0.00    +0.162 A 
ATOM     16  C   UNL     1      -0.897  -1.323  -2.582  0.00  0.00    +0.163 A 
ATOM     17  C   UNL     1      -1.557  -0.981  -1.417  0.00  0.00    +0.060 A 
ATOM     18  O   UNL     1       0.464  -1.320  -2.600  0.00  0.00    -0.485 OA
ATOM     19  C   UNL     1       1.094  -2.028  -3.674  0.00  0.00    +0.270 C 
ATOM     20  C   UNL     1       0.389  -1.642  -4.981  0.00  0.00    +0.270 C 
ATOM     21  O   UNL     1      -0.991  -2.007  -4.872  0.00  0.00    -0.485 OA
ENDBRANCH  10  12
ENDBRANCH   5  10
ENDBRANCH   2   8
BRANCH   2  22
ATOM     22  C   UNL     1      -9.415   0.893   2.473  0.00  0.00    +0.200 C 
ATOM     23  O   UNL     1      -8.582   0.661   3.324  0.00  0.00    -0.278 OA
ATOM     24  N   UNL     1     -10.642   1.319   2.831  0.00  0.00    -0.306 N 
ATOM     25  H   UNL     1     -11.309   1.505   2.151  0.00  0.00    +0.150 HD
BRANCH  24  26
ATOM     26  C   UNL     1     -10.970   1.502   4.247  0.00  0.00    +0.133 C 
BRANCH  26  27
ATOM     27  C   UNL     1     -12.081   2.512   4.379  0.00  0.00    -0.023 A 
ATOM     28  C   UNL     1     -13.129   2.508   3.477  0.00  0.00    +0.006 A 
ATOM     29  C   UNL     1     -14.151   3.431   3.601  0.00  0.00    +0.000 A 
ATOM     30  C   UNL     1     -14.120   4.364   4.621  0.00  0.00    +0.000 A 
ATOM     31  C   UNL     1     -13.069   4.371   5.519  0.00  0.00    +0.000 A 
ATOM     32  C   UNL     1     -12.050   3.445   5.398  0.00  0.00    +0.006 A 
ENDBRANCH  26  27
BRANCH  26  33
ATOM     33  C   UNL     1     -11.414   0.188   4.834  0.00  0.00    -0.023 A 
ATOM     34  C   UNL     1     -12.228  -0.657   4.103  0.00  0.00    +0.006 A 
ATOM     35  C   UNL     1     -12.631  -1.865   4.639  0.00  0.00    +0.000 A 
ATOM     36  C   UNL     1     -12.228  -2.225   5.912  0.00  0.00    +0.000 A 
ATOM     37  C   UNL     1     -11.419  -1.378   6.646  0.00  0.00    +0.000 A 
ATOM     38  C   UNL     1     -11.011  -0.172   6.107  0.00  0.00    +0.006 A 
ENDBRANCH  26  33
ENDBRANCH  24  26
ENDBRANCH   2  22
TORSDOF 7
