REMARK  Name = ZINC13063375
REMARK  16 active torsions:
REMARK  status: ('A' for Active; 'I' for Inactive)
REMARK    1  A    between atoms: C_1  and  C_2
REMARK    2  A    between atoms: C_2  and  O_3
REMARK    3  A    between atoms: O_3  and  C_4
REMARK    4  A    between atoms: C_4  and  C_6
REMARK    5  A    between atoms: C_8  and  C_28
REMARK    6  A    between atoms: C_10  and  N_11
REMARK    7  A    between atoms: C_12  and  C_14
REMARK    8  A    between atoms: C_14  and  N_62
REMARK    9  A    between atoms: C_15  and  N_62
REMARK   10  A    between atoms: C_16  and  C_17
REMARK   11  A    between atoms: C_16  and  N_62
REMARK   12  A    between atoms: N_19  and  C_20
REMARK   13  A    between atoms: C_24  and  C_27
REMARK   14  A    between atoms: C_25  and  C_26
REMARK   15  A    between atoms: C_28  and  C_29
REMARK   16  A    between atoms: C_28  and  C_30
REMARK                            x       y       z     vdW  Elec       q    Type
REMARK                         _______ _______ _______ _____ _____    ______ ____
ROOT
ATOM      1  N   UNL     1      -3.211   9.320   0.166  0.00  0.00    -0.281 N 
ATOM      2  C   UNL     1      -2.908   8.014   0.026  0.00  0.00    +0.201 C 
ATOM      3  O   UNL     1      -3.791   7.183   0.026  0.00  0.00    -0.278 OA
ATOM      4  H   UNL     1      -2.505   9.985   0.166  0.00  0.00    +0.155 HD
ENDROOT
BRANCH   1   9
ATOM      5  C   UNL     1      -5.039  10.998   0.467  0.00  0.00    +0.088 A 
ATOM      6  C   UNL     1      -6.472  11.119   0.597  0.00  0.00    +0.028 A 
ATOM      7  C   UNL     1      -7.191   9.983   0.557  0.00  0.00    -0.005 A 
ATOM      8  S   UNL     1      -5.952   8.723   0.335  0.00  0.00    -0.077 S 
ATOM      9  C   UNL     1      -4.532   9.713   0.311  0.00  0.00    +0.086 A 
BRANCH   7  10
ATOM     10  C   UNL     1      -8.684   9.817   0.667  0.00  0.00    +0.020 C 
ATOM     11  C   UNL     1      -9.219   9.156  -0.605  0.00  0.00    +0.013 C 
ATOM     12  C   UNL     1      -9.012   8.938   1.876  0.00  0.00    +0.013 C 
ENDBRANCH   7  10
BRANCH   5  13
ATOM     13  C   UNL     1      -4.163  12.172   0.496  0.00  0.00    +0.342 C 
ATOM     14  O   UNL     1      -2.960  12.035   0.383  0.00  0.00    -0.245 OA
BRANCH  13  15
ATOM     15  O   UNL     1      -4.691  13.404   0.649  0.00  0.00    -0.461 OA
BRANCH  15  17
ATOM     16  C   UNL     1      -4.540  15.826   0.849  0.00  0.00    +0.048 C 
ATOM     17  C   UNL     1      -3.763  14.520   0.669  0.00  0.00    +0.229 C 
ENDBRANCH  15  17
ENDBRANCH  13  15
ENDBRANCH   5  13
ENDBRANCH   1   9
BRANCH   2  18
ATOM     18  C   UNL     1      -1.471   7.587  -0.132  0.00  0.00    +0.019 C 
BRANCH  18  20
ATOM     19  C   UNL     1      -2.042   5.683  -1.514  0.00  0.00    -0.095 C 
ATOM     20  N   UNL     1      -1.421   6.114  -0.244  0.00  0.00    +0.389 N 
ATOM     21  H   UNL     1      -1.943   5.702   0.538  0.00  0.00    -0.081 HD
BRANCH  20  22
ATOM     22  C   UNL     1      -0.019   5.650  -0.184  0.00  0.00    +0.019 C 
BRANCH  22  23
ATOM     23  C   UNL     1      -0.009   4.146  -0.078  0.00  0.00    +0.201 C 
ATOM     24  O   UNL     1      -1.055   3.532  -0.072  0.00  0.00    -0.278 OA
ATOM     25  N   UNL     1       1.162   3.485   0.009  0.00  0.00    -0.287 N 
ATOM     26  H   UNL     1       1.993   3.979   0.085  0.00  0.00    +0.155 HD
BRANCH  25  27
ATOM     27  C   UNL     1       1.178   2.086  -0.009  0.00  0.00    +0.036 A 
ATOM     28  C   UNL     1       0.141   1.386  -0.611  0.00  0.00    +0.023 A 
ATOM     29  C   UNL     1       0.160   0.005  -0.628  0.00  0.00    +0.002 A 
ATOM     30  C   UNL     1       1.211  -0.680  -0.045  0.00  0.00    +0.004 A 
ATOM     31  C   UNL     1       2.245   0.014   0.554  0.00  0.00    -0.046 A 
ATOM     32  C   UNL     1       2.232   1.395   0.574  0.00  0.00    -0.026 A 
ATOM     33  C   UNL     1       3.359   2.151   1.229  0.00  0.00    +0.046 C 
ATOM     34  C   UNL     1       3.389  -0.737   1.187  0.00  0.00    +0.044 C 
ENDBRANCH  25  27
ENDBRANCH  22  23
ENDBRANCH  20  22
ENDBRANCH  18  20
ENDBRANCH   2  18
TORSDOF 10
