REMARK  Name = ZINC08790057
REMARK  8 active torsions:
REMARK  status: ('A' for Active; 'I' for Inactive)
REMARK    1  A    between atoms: C_1  and  C_2
REMARK    2  A    between atoms: C_7  and  C_8
REMARK    3  A    between atoms: C_17  and  C_20
REMARK    4  A    between atoms: C_20  and  C_22
REMARK    5  A    between atoms: C_20  and  O_23
REMARK    6  A    between atoms: N_26  and  C_29
REMARK    7  A    between atoms: C_29  and  C_30
REMARK    8  A    between atoms: C_30  and  C_31
REMARK                            x       y       z     vdW  Elec       q    Type
REMARK                         _______ _______ _______ _____ _____    ______ ____
ROOT
ATOM      1  C   UNL     1      -0.593   1.503   0.480  0.00  0.00    +0.044 C 
ATOM      2  C   UNL     1      -0.461   0.005   0.373  0.00  0.00    -0.046 A 
ATOM      3  C   UNL     1      -0.480  -0.600  -0.870  0.00  0.00    +0.004 A 
ATOM      4  C   UNL     1      -0.359  -1.975  -0.968  0.00  0.00    +0.005 A 
ATOM      5  C   UNL     1      -0.220  -2.737   0.170  0.00  0.00    -0.027 A 
ATOM      6  C   UNL     1      -0.199  -2.139   1.426  0.00  0.00    +0.039 A 
ATOM      7  C   UNL     1      -0.316  -0.754   1.516  0.00  0.00    -0.026 A 
ATOM      8  C   UNL     1      -0.291  -0.084   2.865  0.00  0.00    +0.046 C 
ATOM      9  N   UNL     1      -0.048  -3.108   2.420  0.00  0.00    -0.286 N 
ATOM     10  C   UNL     1       0.036  -4.352   1.909  0.00  0.00    +0.211 C 
ATOM     11  O   UNL     1       0.170  -5.384   2.532  0.00  0.00    -0.277 OA
ATOM     12  C   UNL     1      -0.069  -4.212   0.415  0.00  0.00    +0.050 C 
ATOM     13  C   UNL     1       1.172  -4.776  -0.289  0.00  0.00    +0.088 C 
ATOM     14  C   UNL     1       0.751  -6.204  -0.737  0.00  0.00    +0.075 C 
ATOM     15  C   UNL     1      -0.699  -6.367  -0.233  0.00  0.00    -0.028 C 
ATOM     16  N   UNL     1      -1.216  -4.970  -0.118  0.00  0.00    +0.396 N 
ATOM     17  C   UNL     1       0.763  -6.114  -2.246  0.00  0.00    +0.224 C 
ATOM     18  O   UNL     1       0.483  -7.017  -3.004  0.00  0.00    -0.275 OA
ATOM     19  N   UNL     1       1.131  -4.881  -2.615  0.00  0.00    -0.241 N 
ATOM     20  C   UNL     1       1.396  -4.038  -1.590  0.00  0.00    +0.225 C 
ATOM     21  O   UNL     1       1.752  -2.884  -1.688  0.00  0.00    -0.275 OA
ATOM     22  H   UNL     1      -0.009  -2.909   3.369  0.00  0.00    +0.155 HD
ATOM     23  H   UNL     1      -1.991  -4.938   0.527  0.00  0.00    -0.083 HD
ATOM     24  H   UNL     1      -1.490  -4.609  -1.019  0.00  0.00    -0.083 HD
ENDROOT
BRANCH  15  25
ATOM     25  C   UNL     1      -1.532  -7.146  -1.252  0.00  0.00    +0.098 C 
ATOM     26  C   UNL     1      -1.017  -8.584  -1.339  0.00  0.00    +0.036 C 
BRANCH  25  27
ATOM     27  O   UNL     1      -2.901  -7.154  -0.842  0.00  0.00    -0.394 OA
ATOM     28  H   UNL     1      -3.050  -7.563   0.021  0.00  0.00    +0.210 HD
ENDBRANCH  25  27
ENDBRANCH  15  25
BRANCH  19  29
ATOM     29  C   UNL     1       1.245  -4.475  -4.018  0.00  0.00    +0.121 C 
BRANCH  29  30
ATOM     30  C   UNL     1      -0.097  -3.919  -4.498  0.00  0.00    +0.054 C 
BRANCH  30  31
ATOM     31  C   UNL     1       0.020  -3.501  -5.942  0.00  0.00    -0.046 A 
ATOM     32  C   UNL     1       0.410  -2.213  -6.259  0.00  0.00    +0.004 A 
ATOM     33  C   UNL     1       0.518  -1.830  -7.583  0.00  0.00    +0.000 A 
ATOM     34  C   UNL     1       0.235  -2.734  -8.589  0.00  0.00    +0.000 A 
ATOM     35  C   UNL     1      -0.155  -4.022  -8.272  0.00  0.00    +0.000 A 
ATOM     36  C   UNL     1      -0.258  -4.407  -6.948  0.00  0.00    +0.004 A 
ENDBRANCH  30  31
ENDBRANCH  29  30
ENDBRANCH  19  29
TORSDOF 5
