REMARK  Name = ZINC02134633
REMARK  9 active torsions:
REMARK  status: ('A' for Active; 'I' for Inactive)
REMARK    1  A    between atoms: C_1  and  C_2
REMARK    2  A    between atoms: C_2  and  C_3
REMARK    3  A    between atoms: C_17  and  C_19
REMARK    4  A    between atoms: C_19  and  C_21
REMARK    5  A    between atoms: C_19  and  O_22
REMARK    6  A    between atoms: N_25  and  C_28
REMARK    7  A    between atoms: C_28  and  C_29
REMARK    8  A    between atoms: C_34  and  O_35
REMARK    9  A    between atoms: O_35  and  C_36
REMARK                            x       y       z     vdW  Elec       q    Type
REMARK                         _______ _______ _______ _____ _____    ______ ____
ROOT
ATOM      1  C   UNL     1       0.587   5.831   2.298  0.00  0.00    -0.026 A 
ATOM      2  C   UNL     1       1.317   6.720   1.535  0.00  0.00    +0.005 A 
ATOM      3  C   UNL     1       2.261   6.258   0.637  0.00  0.00    +0.001 A 
ATOM      4  C   UNL     1       2.476   4.897   0.502  0.00  0.00    +0.004 A 
ATOM      5  C   UNL     1       1.752   4.007   1.262  0.00  0.00    -0.027 A 
ATOM      6  C   UNL     1       0.797   4.460   2.168  0.00  0.00    +0.039 A 
ATOM      7  N   UNL     1       0.195   3.380   2.816  0.00  0.00    -0.286 N 
ATOM      8  C   UNL     1       0.688   2.198   2.398  0.00  0.00    +0.211 C 
ATOM      9  O   UNL     1       0.353   1.097   2.782  0.00  0.00    -0.277 OA
ATOM     10  C   UNL     1       1.735   2.508   1.363  0.00  0.00    +0.050 C 
ATOM     11  C   UNL     1       1.403   1.855  -0.001  0.00  0.00    +0.088 C 
ATOM     12  C   UNL     1       2.261   0.560  -0.013  0.00  0.00    +0.075 C 
ATOM     13  C   UNL     1       3.012   0.552   1.336  0.00  0.00    -0.028 C 
ATOM     14  C   UNL     1       1.227  -0.543  -0.011  0.00  0.00    +0.224 C 
ATOM     15  O   UNL     1       1.469  -1.731  -0.020  0.00  0.00    -0.275 OA
ATOM     16  N   UNL     1       0.002  -0.004   0.002  0.00  0.00    -0.237 N 
ATOM     17  C   UNL     1      -0.016   1.334   0.009  0.00  0.00    +0.225 C 
ATOM     18  O   UNL     1      -1.015   2.021   0.018  0.00  0.00    -0.275 OA
ATOM     19  H   UNL     1      -0.499   3.470   3.489  0.00  0.00    +0.155 HD
ATOM     20  N   UNL     1       3.026   1.960   1.741  0.00  0.00    +0.396 N 
ATOM     21  H   UNL     1       3.161   2.036   2.756  0.00  0.00    -0.083 HD
ATOM     22  H   UNL     1       3.780   2.461   1.256  0.00  0.00    -0.083 HD
ENDROOT
BRANCH   1  24
ATOM     23  C   UNL     1       0.189   6.457   4.664  0.00  0.00    +0.009 C 
ATOM     24  C   UNL     1      -0.440   6.345   3.273  0.00  0.00    +0.033 C 
ENDBRANCH   1  24
BRANCH  13  25
ATOM     25  C   UNL     1       4.431   0.010   1.153  0.00  0.00    +0.098 C 
ATOM     26  C   UNL     1       5.155   0.011   2.500  0.00  0.00    +0.036 C 
BRANCH  25  27
ATOM     27  O   UNL     1       4.369  -1.325   0.647  0.00  0.00    -0.394 OA
ATOM     28  H   UNL     1       3.899  -1.943   1.224  0.00  0.00    +0.210 HD
ENDBRANCH  25  27
ENDBRANCH  13  25
BRANCH  16  29
ATOM     29  C   UNL     1      -1.219  -0.813   0.007  0.00  0.00    +0.155 C 
BRANCH  29  30
ATOM     30  C   UNL     1      -1.649  -1.083  -1.412  0.00  0.00    +0.012 A 
ATOM     31  C   UNL     1      -2.663  -0.336  -1.981  0.00  0.00    +0.009 A 
ATOM     32  C   UNL     1      -3.055  -0.580  -3.284  0.00  0.00    +0.001 A 
ATOM     33  C   UNL     1      -2.440  -1.578  -4.018  0.00  0.00    +0.004 A 
ATOM     34  C   UNL     1      -1.429  -2.330  -3.452  0.00  0.00    +0.046 A 
ATOM     35  C   UNL     1      -1.031  -2.084  -2.146  0.00  0.00    +0.125 A 
BRANCH  35  36
ATOM     36  O   UNL     1      -0.037  -2.823  -1.587  0.00  0.00    -0.495 OA
ATOM     37  C   UNL     1       0.554  -3.837  -2.402  0.00  0.00    +0.277 C 
ENDBRANCH  35  36
ENDBRANCH  29  30
ENDBRANCH  16  29
TORSDOF 6
