REMARK  Name = ZINC33673596
REMARK  14 active torsions:
REMARK  status: ('A' for Active; 'I' for Inactive)
REMARK    1  A    between atoms: C_1  and  C_2
REMARK    2  A    between atoms: C_2  and  O_3
REMARK    3  A    between atoms: O_3  and  C_4
REMARK    4  A    between atoms: C_4  and  C_6
REMARK    5  A    between atoms: C_7  and  C_36
REMARK    6  A    between atoms: C_11  and  C_13
REMARK    7  A    between atoms: C_15  and  O_22
REMARK    8  A    between atoms: C_16  and  O_20
REMARK    9  A    between atoms: O_20  and  C_21
REMARK   10  A    between atoms: O_22  and  C_23
REMARK   11  A    between atoms: C_26  and  C_32
REMARK   12  A    between atoms: C_28  and  C_31
REMARK   13  A    between atoms: C_32  and  O_34
REMARK   14  A    between atoms: O_34  and  C_35
REMARK                            x       y       z     vdW  Elec       q    Type
REMARK                         _______ _______ _______ _____ _____    ______ ____
ROOT
ATOM      1  C   UNL     1      -0.479   5.812  -1.787  0.00  0.00    +0.065 C 
ATOM      2  C   UNL     1       0.115   5.111  -2.768  0.00  0.00    +0.016 C 
ATOM      3  N   UNL     1       1.370   4.600  -2.591  0.00  0.00    -0.321 N 
ATOM      4  C   UNL     1       2.197   5.099  -1.621  0.00  0.00    +0.016 C 
ATOM      5  C   UNL     1       1.692   5.807  -0.589  0.00  0.00    +0.025 C 
ATOM      6  C   UNL     1       0.208   6.050  -0.474  0.00  0.00    +0.093 C 
ATOM      7  C   UNL     1       2.531   6.340   0.406  0.00  0.00    +0.176 C 
ATOM      8  O   UNL     1       2.043   6.965   1.327  0.00  0.00    -0.291 OA
ATOM      9  C   UNL     1       4.022   6.149   0.351  0.00  0.00    +0.171 C 
ATOM     10  C   UNL     1       4.452   6.006  -1.113  0.00  0.00    +0.013 C 
ATOM     11  C   UNL     1       3.679   4.841  -1.735  0.00  0.00    +0.055 C 
ATOM     12  C   UNL     1       4.139   7.296  -1.874  0.00  0.00    +0.009 C 
ATOM     13  C   UNL     1      -0.609   4.885  -4.070  0.00  0.00    +0.061 C 
ATOM     14  H   UNL     1       1.726   3.780  -3.233  0.00  0.00    +0.152 HD
ENDROOT
BRANCH   6  15
ATOM     15  C   UNL     1      -0.368   5.119   0.562  0.00  0.00    -0.018 A 
ATOM     16  C   UNL     1      -0.259   3.750   0.395  0.00  0.00    +0.055 A 
ATOM     17  C   UNL     1      -0.787   2.893   1.346  0.00  0.00    +0.162 A 
ATOM     18  C   UNL     1      -1.432   3.411   2.466  0.00  0.00    +0.163 A 
ATOM     19  C   UNL     1      -1.532   4.783   2.630  0.00  0.00    +0.065 A 
ATOM     20  C   UNL     1      -1.002   5.635   1.677  0.00  0.00    +0.026 A 
ATOM     21 BR   UNL     1      -1.146   7.507   1.899  0.00  0.00    -0.050 Br
BRANCH  18  22
ATOM     22  O   UNL     1      -1.957   2.573   3.399  0.00  0.00    -0.491 OA
ATOM     23  C   UNL     1      -2.604   3.176   4.522  0.00  0.00    +0.277 C 
ENDBRANCH  18  22
BRANCH  17  24
ATOM     24  O   UNL     1      -0.682   1.547   1.184  0.00  0.00    -0.491 OA
ATOM     25  C   UNL     1      -0.013   1.086   0.008  0.00  0.00    +0.277 C 
ENDBRANCH  17  24
ENDBRANCH   6  15
BRANCH   1  26
ATOM     26  C   UNL     1      -1.776   6.336  -1.996  0.00  0.00    +0.338 C 
ATOM     27  O   UNL     1      -2.344   6.150  -3.056  0.00  0.00    -0.245 OA
BRANCH  26  28
ATOM     28  O   UNL     1      -2.384   7.042  -1.020  0.00  0.00    -0.462 OA
BRANCH  28  30
ATOM     29  C   UNL     1      -4.217   8.310  -0.085  0.00  0.00    +0.048 C 
ATOM     30  C   UNL     1      -3.694   7.542  -1.300  0.00  0.00    +0.229 C 
ENDBRANCH  28  30
ENDBRANCH  26  28
ENDBRANCH   1  26
BRANCH   9  31
ATOM     31  C   UNL     1       4.706   7.345   0.963  0.00  0.00    +0.318 C 
ATOM     32  O   UNL     1       5.461   8.015   0.298  0.00  0.00    -0.250 OA
BRANCH  31  33
ATOM     33  O   UNL     1       4.477   7.665   2.246  0.00  0.00    -0.467 OA
ATOM     34  C   UNL     1       5.170   8.829   2.768  0.00  0.00    +0.280 C 
ENDBRANCH  31  33
ENDBRANCH   9  31
TORSDOF 8
