REMARK  Name = ZINC46580755
REMARK  7 active torsions:
REMARK  status: ('A' for Active; 'I' for Inactive)
REMARK    1  A    between atoms: C_1  and  C_2
REMARK    2  A    between atoms: N_4  and  C_5
REMARK    3  A    between atoms: C_9  and  N_11
REMARK    4  A    between atoms: C_12  and  S_16
REMARK    5  A    between atoms: S_16  and  C_17
REMARK    6  A    between atoms: C_17  and  C_18
REMARK    7  A    between atoms: N_23  and  C_24
REMARK                            x       y       z     vdW  Elec       q    Type
REMARK                         _______ _______ _______ _____ _____    ______ ____
ROOT
ATOM      1  C   UNL     1      -3.189  -8.693  -1.724  0.00  0.00    +0.173 C 
ENDROOT
BRANCH   1   2
ATOM      2  C   UNL     1      -2.256  -9.604  -2.481  0.00  0.00    +0.231 C 
ATOM      3  O   UNL     1      -1.110  -9.264  -2.684  0.00  0.00    -0.274 OA
ATOM      4  N   UNL     1      -2.696 -10.795  -2.932  0.00  0.00    -0.239 N 
ATOM      5  C   UNL     1      -1.863 -11.609  -3.609  0.00  0.00    +0.306 C 
ATOM      6  O   UNL     1      -0.714 -11.269  -3.813  0.00  0.00    -0.252 OA
ATOM      7  N   UNL     1      -2.303 -12.801  -4.060  0.00  0.00    -0.294 N 
ATOM      8  H   UNL     1      -3.613 -11.066  -2.770  0.00  0.00    +0.159 HD
ATOM      9  H   UNL     1      -3.220 -13.072  -3.897  0.00  0.00    +0.151 HD
BRANCH   7  10
ATOM     10  C   UNL     1      -1.396 -13.686  -4.796  0.00  0.00    +0.037 C 
ATOM     11  C   UNL     1      -0.900 -12.974  -6.056  0.00  0.00    +0.029 C 
ATOM     12  C   UNL     1       0.047 -13.899  -6.824  0.00  0.00    -0.008 C 
ATOM     13  C   UNL     1      -0.697 -15.176  -7.219  0.00  0.00    +0.007 C 
ATOM     14  C   UNL     1      -1.194 -15.887  -5.959  0.00  0.00    -0.008 C 
ATOM     15  C   UNL     1      -2.140 -14.963  -5.191  0.00  0.00    +0.029 C 
ATOM     16  C   UNL     1       0.000 -16.246  -5.072  0.00  0.00    +0.007 C 
ATOM     17  C   UNL     1       0.744 -14.969  -4.677  0.00  0.00    -0.008 C 
ATOM     18  C   UNL     1       1.241 -14.257  -5.937  0.00  0.00    +0.007 C 
ATOM     19  C   UNL     1      -0.202 -14.044  -3.909  0.00  0.00    +0.029 C 
ENDBRANCH   7  10
ENDBRANCH   1   2
BRANCH   1  20
ATOM     20  S   UNL     1      -2.307  -7.179  -1.256  0.00  0.00    -0.075 S 
BRANCH  20  22
ATOM     21  N   UNL     1      -3.336  -5.001   0.164  0.00  0.00    -0.187 N 
ATOM     22  C   UNL     1      -3.515  -6.232  -0.391  0.00  0.00    +0.214 A 
ATOM     23  N   UNL     1      -4.763  -6.579  -0.160  0.00  0.00    -0.101 NA
ATOM     24  N   UNL     1      -5.372  -5.658   0.496  0.00  0.00    -0.022 NA
ATOM     25  N   UNL     1      -4.577  -4.673   0.737  0.00  0.00    -0.038 NA
BRANCH  21  30
ATOM     26  C   UNL     1      -1.081  -2.089   0.091  0.00  0.00    +0.035 A 
ATOM     27  C   UNL     1       0.156  -2.715   0.178  0.00  0.00    +0.023 A 
ATOM     28  C   UNL     1       0.230  -4.092   0.259  0.00  0.00    +0.004 A 
ATOM     29  C   UNL     1      -0.925  -4.851   0.255  0.00  0.00    +0.028 A 
ATOM     30  C   UNL     1      -2.164  -4.230   0.169  0.00  0.00    +0.072 A 
ATOM     31  C   UNL     1      -2.243  -2.847   0.093  0.00  0.00    +0.051 A 
BRANCH  26  35
ATOM     32  C   UNL     1      -2.194   1.470   0.609  0.00  0.00    +0.109 C 
ATOM     33  C   UNL     1      -2.169  -0.037   0.608  0.00  0.00    +0.214 C 
ATOM     34  O   UNL     1      -3.061  -0.658   1.146  0.00  0.00    -0.276 OA
ATOM     35  N   UNL     1      -1.156  -0.694   0.009  0.00  0.00    -0.286 N 
ATOM     36  H   UNL     1      -0.478  -0.200  -0.478  0.00  0.00    +0.155 HD
ENDBRANCH  26  35
ENDBRANCH  21  30
ENDBRANCH  20  22
ENDBRANCH   1  20
TORSDOF 6
