REMARK  Name = ZINC59309580
REMARK  12 active torsions:
REMARK  status: ('A' for Active; 'I' for Inactive)
REMARK    1  A    between atoms: C_1  and  C_2
REMARK    2  A    between atoms: C_2  and  C_3
REMARK    3  A    between atoms: C_3  and  S_4
REMARK    4  A    between atoms: S_4  and  C_5
REMARK    5  A    between atoms: C_10  and  N_14
REMARK    6  A    between atoms: C_15  and  C_17
REMARK    7  A    between atoms: C_17  and  S_18
REMARK    8  A    between atoms: S_18  and  C_19
REMARK    9  A    between atoms: N_24  and  N_25
REMARK   10  A    between atoms: C_26  and  C_27
REMARK   11  A    between atoms: C_26  and  C_28
REMARK   12  A    between atoms: C_31  and  N_34
REMARK                            x       y       z     vdW  Elec       q    Type
REMARK                         _______ _______ _______ _____ _____    ______ ____
ROOT
ATOM      1  C   UNL     1      10.041  -3.607  11.219  0.00  0.00    +0.211 A 
ATOM      2  N   UNL     1      10.211  -3.174  12.473  0.00  0.00    -0.186 NA
ATOM      3  C   UNL     1      10.437  -4.198  13.268  0.00  0.00    +0.232 A 
ATOM      4  N   UNL     1      10.413  -5.321  12.519  0.00  0.00    -0.245 N 
ATOM      5  N   UNL     1      10.150  -4.914  11.201  0.00  0.00    -0.144 NA
ATOM      6  N   UNL     1      10.658  -4.135  14.632  0.00  0.00    -0.205 N 
ATOM      7  H   UNL     1      10.816  -4.949  15.136  0.00  0.00    +0.177 HD
ATOM      8  H   UNL     1      10.547  -6.230  12.831  0.00  0.00    +0.192 HD
ENDROOT
BRANCH   6   9
ATOM      9  N   UNL     1      10.655  -2.896  15.285  0.00  0.00    -0.184 NA
ATOM     10  C   UNL     1      10.962  -2.825  16.545  0.00  0.00    +0.063 C 
ATOM     11  C   UNL     1      10.785  -1.529  17.292  0.00  0.00    +0.068 C 
BRANCH  10  12
ATOM     12  C   UNL     1      11.485  -4.013  17.243  0.00  0.00    -0.002 A 
ATOM     13  C   UNL     1      12.316  -4.913  16.570  0.00  0.00    +0.011 A 
ATOM     14  C   UNL     1      12.803  -6.022  17.226  0.00  0.00    +0.023 A 
ATOM     15  C   UNL     1      12.468  -6.247  18.557  0.00  0.00    +0.025 A 
ATOM     16  C   UNL     1      11.641  -5.355  19.230  0.00  0.00    +0.023 A 
ATOM     17  C   UNL     1      11.155  -4.240  18.582  0.00  0.00    +0.011 A 
BRANCH  15  18
ATOM     18  N   UNL     1      12.962  -7.372  19.218  0.00  0.00    -0.358 N 
ATOM     19  H   UNL     1      13.539  -7.996  18.750  0.00  0.00    +0.142 HD
ATOM     20  H   UNL     1      12.729  -7.531  20.146  0.00  0.00    +0.142 HD
ENDBRANCH  15  18
ENDBRANCH  10  12
ENDBRANCH   6   9
BRANCH   1  21
ATOM     21  S   UNL     1       9.716  -2.588   9.819  0.00  0.00    -0.075 S 
BRANCH  21  22
ATOM     22  C   UNL     1       9.584  -3.762   8.443  0.00  0.00    +0.173 C 
BRANCH  22  24
ATOM     23  N   UNL     1       9.163  -3.682   6.006  0.00  0.00    -0.285 N 
ATOM     24  C   UNL     1       9.302  -3.011   7.167  0.00  0.00    +0.227 C 
ATOM     25  O   UNL     1       9.201  -1.802   7.184  0.00  0.00    -0.275 OA
ATOM     26  H   UNL     1       9.184  -4.652   6.001  0.00  0.00    +0.155 HD
BRANCH  23  32
ATOM     27  C   UNL     1       7.718   0.314   1.377  0.00  0.00    +0.136 A 
ATOM     28  N   UNL     1       8.404  -0.804   1.301  0.00  0.00    -0.233 NA
ATOM     29  C   UNL     1       8.648  -1.581   2.381  0.00  0.00    +0.080 A 
ATOM     30  C   UNL     1       9.366  -2.798   2.434  0.00  0.00    +0.031 A 
ATOM     31  C   UNL     1       9.524  -3.468   3.618  0.00  0.00    +0.025 A 
ATOM     32  C   UNL     1       8.988  -2.979   4.807  0.00  0.00    +0.035 A 
ATOM     33  C   UNL     1       8.278  -1.786   4.788  0.00  0.00    +0.040 A 
ATOM     34  C   UNL     1       8.117  -1.112   3.604  0.00  0.00    +0.042 A 
ATOM     35  S   UNL     1       7.320   0.399   3.117  0.00  0.00    -0.061 S 
BRANCH  27  36
ATOM     36  S   UNL     1       7.304   1.446   0.092  0.00  0.00    -0.099 S 
BRANCH  36  37
ATOM     37  C   UNL     1       8.038   0.710  -1.395  0.00  0.00    +0.076 C 
BRANCH  37  39
ATOM     38  C   UNL     1       8.369   0.983  -3.856  0.00  0.00    +0.004 C 
ATOM     39  C   UNL     1       7.750   1.604  -2.602  0.00  0.00    +0.008 C 
ENDBRANCH  37  39
ENDBRANCH  36  37
ENDBRANCH  27  36
ENDBRANCH  23  32
ENDBRANCH  22  24
ENDBRANCH  21  22
ENDBRANCH   1  21
TORSDOF 10
