REMARK  Name = ZINC64422672
REMARK  6 active torsions:
REMARK  status: ('A' for Active; 'I' for Inactive)
REMARK    1  A    between atoms: C_1  and  C_2
REMARK    2  A    between atoms: C_4  and  C_8
REMARK    3  A    between atoms: C_8  and  N_9
REMARK    4  A    between atoms: C_10  and  C_12
REMARK    5  A    between atoms: C_12  and  C_13
REMARK    6  A    between atoms: C_13  and  C_14
REMARK                            x       y       z     vdW  Elec       q    Type
REMARK                         _______ _______ _______ _____ _____    ______ ____
ROOT
ATOM      1  N   UNL     1      -0.609  -2.213   2.437  0.00  0.00    -0.311 N 
ATOM      2  C   UNL     1      -0.927  -2.672   3.664  0.00  0.00    +0.213 C 
ATOM      3  O   UNL     1      -1.671  -3.623   3.781  0.00  0.00    -0.276 OA
ATOM      4  H   UNL     1      -0.014  -1.452   2.343  0.00  0.00    +0.149 HD
ENDROOT
BRANCH   1   5
ATOM      5  C   UNL     1      -1.162  -2.862   1.246  0.00  0.00    +0.160 C 
BRANCH   5   9
ATOM      6  C   UNL     1      -0.018   1.503   0.010  0.00  0.00    +0.085 C 
ATOM      7  C   UNL     1       0.002  -0.004   0.002  0.00  0.00    +0.100 C 
ATOM      8  N   UNL     1      -1.054  -0.741   0.003  0.00  0.00    -0.345 N 
ATOM      9  C   UNL     1      -0.646  -2.151  -0.007  0.00  0.00    +0.260 C 
ATOM     10  O   UNL     1       0.790  -2.128  -0.015  0.00  0.00    -0.247 OA
ATOM     11  N   UNL     1       1.142  -0.754  -0.013  0.00  0.00    -0.252 N 
ATOM     12  H   UNL     1       2.047  -0.404  -0.020  0.00  0.00    +0.195 HD
ATOM     13  H   UNL     1      -1.968  -0.417   0.010  0.00  0.00    +0.163 HD
ENDBRANCH   5   9
ENDBRANCH   1   5
BRANCH   2  14
ATOM     14  C   UNL     1      -0.359  -2.005   4.889  0.00  0.00    +0.100 C 
BRANCH  14  15
ATOM     15  C   UNL     1      -0.874  -2.715   6.142  0.00  0.00    +0.042 C 
BRANCH  15  16
ATOM     16  C   UNL     1      -0.306  -2.048   7.368  0.00  0.00    -0.041 C 
ATOM     17  C   UNL     1      -0.893  -1.087   8.117  0.00  0.00    -0.001 A 
ATOM     18  C   UNL     1      -2.187  -0.401   8.018  0.00  0.00    +0.010 A 
ATOM     19  C   UNL     1      -2.503   0.539   8.937  0.00  0.00    +0.001 A 
ATOM     20  C   UNL     1      -1.628   0.875   9.979  0.00  0.00    +0.002 A 
ATOM     21  C   UNL     1      -0.422   0.289  10.136  0.00  0.00    +0.026 A 
ATOM     22  C   UNL     1       0.013  -0.714   9.227  0.00  0.00    +0.043 A 
ATOM     23  N   UNL     1       1.118  -1.418   9.166  0.00  0.00    -0.380 N 
ATOM     24  C   UNL     1       1.035  -2.321   8.013  0.00  0.00    +0.144 C 
ATOM     25  H   UNL     1       1.864  -1.354   9.783  0.00  0.00    +0.160 HD
ENDBRANCH  15  16
ENDBRANCH  14  15
ENDBRANCH   2  14
TORSDOF 5
