REMARK  Name = ZINC50136794
REMARK  6 active torsions:
REMARK  status: ('A' for Active; 'I' for Inactive)
REMARK    1  A    between atoms: C_8  and  O_30
REMARK    2  A    between atoms: C_10  and  N_12
REMARK    3  A    between atoms: N_15  and  C_16
REMARK    4  A    between atoms: C_16  and  C_17
REMARK    5  A    between atoms: N_22  and  C_24
REMARK    6  A    between atoms: C_24  and  C_25
REMARK                            x       y       z     vdW  Elec       q    Type
REMARK                         _______ _______ _______ _____ _____    ______ ____
ROOT
ATOM      1  N   UNL     1       4.147  -1.058   1.302  0.00  0.00    -0.290 N 
ATOM      2  C   UNL     1       5.090  -0.183   1.704  0.00  0.00    +0.300 C 
ATOM      3  O   UNL     1       5.457   0.702   0.956  0.00  0.00    -0.253 OA
ATOM      4  N   UNL     1       5.626  -0.289   2.936  0.00  0.00    -0.299 N 
ATOM      5  H   UNL     1       3.854  -1.764   1.899  0.00  0.00    +0.151 HD
ATOM      6  H   UNL     1       5.333  -0.996   3.533  0.00  0.00    +0.150 HD
ENDROOT
BRANCH   1  15
ATOM      7  C   UNL     1      -0.017   1.377   0.010  0.00  0.00    +0.000 A 
ATOM      8  C   UNL     1       1.172   2.083   0.002  0.00  0.00    +0.000 A 
ATOM      9  C   UNL     1       2.376   1.406  -0.013  0.00  0.00    +0.006 A 
ATOM     10  C   UNL     1       2.396   0.021  -0.021  0.00  0.00    -0.021 A 
ATOM     11  C   UNL     1       1.208  -0.685  -0.013  0.00  0.00    -0.040 A 
ATOM     12  C   UNL     1       0.002  -0.004   0.002  0.00  0.00    +0.004 A 
ATOM     13  C   UNL     1       1.496  -2.171  -0.025  0.00  0.00    +0.069 C 
ATOM     14  C   UNL     1       2.966  -2.294  -0.480  0.00  0.00    +0.143 C 
ATOM     15  C   UNL     1       3.564  -0.942  -0.037  0.00  0.00    +0.134 C 
BRANCH  14  16
ATOM     16  O   UNL     1       3.613  -3.382   0.184  0.00  0.00    -0.389 OA
ATOM     17  H   UNL     1       3.217  -4.245   0.002  0.00  0.00    +0.210 HD
ENDBRANCH  14  16
ENDBRANCH   1  15
BRANCH   4  18
ATOM     18  C   UNL     1       6.651   0.662   3.373  0.00  0.00    +0.107 C 
BRANCH  18  19
ATOM     19  C   UNL     1       7.088   0.321   4.800  0.00  0.00    -0.011 C 
ATOM     20  C   UNL     1       5.911   0.527   5.758  0.00  0.00    +0.001 C 
ATOM     21  C   UNL     1       6.380   0.259   7.191  0.00  0.00    -0.018 C 
ATOM     22  C   UNL     1       7.560   1.177   7.516  0.00  0.00    -0.078 C 
ATOM     23  N   UNL     1       8.662   0.912   6.582  0.00  0.00    +0.383 N 
ATOM     24  C   UNL     1       8.243   1.235   5.213  0.00  0.00    -0.073 C 
ATOM     25  H   UNL     1       8.918  -0.062   6.633  0.00  0.00    -0.081 HD
BRANCH  23  26
ATOM     26  C   UNL     1       9.820   1.740   6.946  0.00  0.00    -0.036 C 
BRANCH  26  27
ATOM     27  C   UNL     1      10.333   1.317   8.299  0.00  0.00    -0.027 A 
ATOM     28  C   UNL     1      11.270   0.386   8.604  0.00  0.00    +0.009 A 
ATOM     29  C   UNL     1      11.586   0.164   9.931  0.00  0.00    +0.008 A 
ATOM     30  C   UNL     1      10.951   0.883  10.888  0.00  0.00    +0.045 A 
ATOM     31  S   UNL     1       9.871   1.920   9.915  0.00  0.00    -0.103 S 
ENDBRANCH  26  27
ENDBRANCH  23  26
ENDBRANCH  18  19
ENDBRANCH   4  18
TORSDOF 6
