REMARK  Name = ZINC18022963
REMARK  10 active torsions:
REMARK  status: ('A' for Active; 'I' for Inactive)
REMARK    1  A    between atoms: C_1  and  C_2
REMARK    2  A    between atoms: C_2  and  C_3
REMARK    3  A    between atoms: C_3  and  C_4
REMARK    4  A    between atoms: N_6  and  C_22
REMARK    5  A    between atoms: C_10  and  N_11
REMARK    6  A    between atoms: N_11  and  C_12
REMARK    7  A    between atoms: C_14  and  C_20
REMARK    8  A    between atoms: C_14  and  C_21
REMARK    9  A    between atoms: C_16  and  C_18
REMARK   10  A    between atoms: C_16  and  C_19
REMARK                            x       y       z     vdW  Elec       q    Type
REMARK                         _______ _______ _______ _____ _____    ______ ____
ROOT
ATOM      1  C   UNL     1      -2.001  -1.518   0.111  0.00  0.00    +0.073 C 
ATOM      2  N   UNL     1      -0.890  -2.187   0.170  0.00  0.00    -0.176 NA
ATOM      3  N   UNL     1      -1.127  -3.561   0.192  0.00  0.00    -0.156 N 
ATOM      4  C   UNL     1      -2.453  -3.804   0.146  0.00  0.00    +0.273 C 
ATOM      5  O   UNL     1      -3.000  -4.894   0.150  0.00  0.00    -0.268 OA
ATOM      6  C   UNL     1      -3.104  -2.489   0.097  0.00  0.00    +0.075 C 
ATOM      7  C   UNL     1      -4.462  -2.222   0.045  0.00  0.00    +0.082 C 
ENDROOT
BRANCH   3   8
ATOM      8  C   UNL     1      -0.133  -4.547   0.253  0.00  0.00    +0.061 A 
ATOM      9  C   UNL     1      -0.484  -5.890   0.264  0.00  0.00    +0.028 A 
ATOM     10  C   UNL     1       0.497  -6.859   0.323  0.00  0.00    +0.040 A 
ATOM     11  C   UNL     1       1.832  -6.493   0.373  0.00  0.00    +0.124 A 
ATOM     12  C   UNL     1       2.185  -5.154   0.362  0.00  0.00    +0.040 A 
ATOM     13  C   UNL     1       1.206  -4.181   0.296  0.00  0.00    +0.028 A 
ATOM     14  F   UNL     1       2.791  -7.442   0.432  0.00  0.00    -0.205 F 
ENDBRANCH   3   8
BRANCH   7  15
ATOM     15  N   UNL     1      -5.349  -3.238   0.039  0.00  0.00    -0.346 N 
ATOM     16  H   UNL     1      -5.036  -4.155   0.070  0.00  0.00    +0.146 HD
BRANCH  15  17
ATOM     17  C   UNL     1      -6.789  -2.955  -0.016  0.00  0.00    +0.067 C 
ATOM     18  C   UNL     1      -7.218  -2.811  -1.477  0.00  0.00    +0.009 C 
ATOM     19  C   UNL     1      -8.718  -2.528  -1.551  0.00  0.00    -0.072 C 
ATOM     20  N   UNL     1      -9.500  -3.525  -0.836  0.00  0.00    +0.386 N 
ATOM     21  C   UNL     1      -9.061  -3.898   0.499  0.00  0.00    -0.072 C 
ATOM     22  C   UNL     1      -7.556  -4.127   0.596  0.00  0.00    +0.009 C 
ATOM     23  C   UNL     1      -9.752  -5.234   0.859  0.00  0.00    -0.010 C 
ATOM     24  C   UNL     1      -9.501  -2.872   1.546  0.00  0.00    -0.010 C 
ATOM     25  C   UNL     1      -9.012  -1.109  -1.066  0.00  0.00    -0.010 C 
ATOM     26  C   UNL     1      -9.124  -2.596  -3.042  0.00  0.00    -0.010 C 
ATOM     27  H   UNL     1     -10.466  -3.195  -0.778  0.00  0.00    -0.084 HD
ATOM     28  H   UNL     1      -9.540  -4.372  -1.409  0.00  0.00    -0.084 HD
ENDBRANCH  15  17
ENDBRANCH   7  15
BRANCH   1  29
ATOM     29  C   UNL     1      -2.134  -0.017   0.072  0.00  0.00    +0.057 C 
BRANCH  29  31
ATOM     30  C   UNL     1      -0.880   2.143   0.064  0.00  0.00    +0.004 C 
ATOM     31  C   UNL     1      -0.744   0.620   0.104  0.00  0.00    +0.003 C 
ENDBRANCH  29  31
ENDBRANCH   1  29
TORSDOF 5
