REMARK  Name = ZINC06219599
REMARK  3 active torsions:
REMARK  status: ('A' for Active; 'I' for Inactive)
REMARK    1  A    between atoms: C_2  and  C_13
REMARK    2  A    between atoms: C_3  and  N_10
REMARK    3  A    between atoms: C_15  and  C_19
REMARK                            x       y       z     vdW  Elec       q    Type
REMARK                         _______ _______ _______ _____ _____    ______ ____
ROOT
ATOM      1  C   UNK     1       1.461  -2.204  -0.777  0.00  0.00    +0.054 A 
ATOM      2  C   UNK     1       1.539  -1.849   0.557  0.00  0.00    -0.018 A 
ATOM      3  C   UNK     1       2.181  -2.675   1.459  0.00  0.00    +0.132 A 
ATOM      4  C   UNK     1       2.740  -3.866   1.034  0.00  0.00    +0.082 A 
ATOM      5  C   UNK     1       2.664  -4.230  -0.301  0.00  0.00    +0.168 A 
ATOM      6  C   UNK     1       2.022  -3.394  -1.211  0.00  0.00    +0.167 A 
ATOM      7  O   UNK     1       2.082  -3.968  -2.448  0.00  0.00    -0.453 OA
ATOM      8  C   UNK     1       2.408  -5.351  -2.215  0.00  0.00    +0.466 C 
ATOM      9  O   UNK     1       3.127  -5.327  -0.968  0.00  0.00    -0.453 OA
ENDROOT
BRANCH   2  10
ATOM     10  C   UNK     1       0.928  -0.554   1.027  0.00  0.00    +0.022 C 
ATOM     11  C   UNK     1      -0.018   1.470   0.010  0.00  0.00    +0.055 C 
ATOM     12  C   UNK     1       1.452   1.988  -0.001  0.00  0.00    +0.063 C 
ATOM     13  S   UNK     1       2.207   0.764   1.156  0.00  0.00    -0.173 S 
ATOM     14  N   UNK     1      -0.008  -0.014  -0.009  0.00  0.00    +0.399 N 
ATOM     15  H   UNK     1      -0.956  -0.359   0.181  0.00  0.00    -0.083 HD
ATOM     16  H   UNK     1       0.295  -0.336  -0.936  0.00  0.00    -0.083 HD
BRANCH  11  17
ATOM     17  C   UNK     1      -0.742   1.974  -1.212  0.00  0.00    +0.343 C 
ATOM     18  O   UNK     1      -0.901   1.246  -2.163  0.00  0.00    -0.248 OA
ATOM     19  O   UNK     1      -1.210   3.232  -1.243  0.00  0.00    -0.248 OA
ENDBRANCH  11  17
ENDBRANCH   2  10
BRANCH   3  20
ATOM     20  N   UNK     1       2.267  -2.287   2.885  0.00  0.00    +0.057 N 
ATOM     21  O   UNK     1       2.833  -3.015   3.681  0.00  0.00    -0.126 OA
ATOM     22  O   UNK     1       1.772  -1.240   3.262  0.00  0.00    -0.126 OA
ENDBRANCH   3  20
TORSDOF 3
