REMARK  Name = ZINC60377262
REMARK  12 active torsions:
REMARK  status: ('A' for Active; 'I' for Inactive)
REMARK    1  A    between atoms: C_1  and  C_2
REMARK    2  A    between atoms: C_3  and  N_11
REMARK    3  A    between atoms: C_7  and  N_8
REMARK    4  A    between atoms: C_12  and  C_14
REMARK    5  A    between atoms: C_14  and  C_15
REMARK    6  A    between atoms: C_15  and  N_16
REMARK    7  A    between atoms: N_16  and  C_17
REMARK    8  A    between atoms: N_16  and  C_18
REMARK    9  A    between atoms: C_18  and  C_20
REMARK   10  A    between atoms: C_18  and  C_21
REMARK   11  A    between atoms: C_25  and  S_27
REMARK   12  A    between atoms: S_27  and  N_30
REMARK                            x       y       z     vdW  Elec       q    Type
REMARK                         _______ _______ _______ _____ _____    ______ ____
ROOT
ATOM      1  N   UNL     1      -1.672  -0.017  -7.218  0.00  0.00    +0.383 N 
ATOM      2  C   UNL     1      -2.938   0.701  -7.020  0.00  0.00    -0.095 C 
ATOM      3  H   UNL     1      -0.941   0.643  -7.436  0.00  0.00    -0.081 HD
ENDROOT
BRANCH   1   4
ATOM      4  C   UNL     1      -1.817  -0.971  -8.326  0.00  0.00    -0.041 C 
ATOM      5  C   UNL     1      -2.179  -0.214  -9.605  0.00  0.00    -0.008 C 
BRANCH   4   6
ATOM      6  C   UNL     1      -0.518  -1.708  -8.528  0.00  0.00    -0.059 A 
ATOM      7  C   UNL     1       0.683  -1.032  -8.422  0.00  0.00    +0.002 A 
ATOM      8  C   UNL     1       1.875  -1.708  -8.607  0.00  0.00    +0.002 A 
ATOM      9  C   UNL     1       1.864  -3.060  -8.900  0.00  0.00    +0.028 A 
ATOM     10  C   UNL     1       0.663  -3.735  -9.005  0.00  0.00    +0.105 A 
ATOM     11  C   UNL     1      -0.528  -3.059  -8.815  0.00  0.00    +0.030 A 
BRANCH  10  12
ATOM     12  S   UNL     1       0.650  -5.457  -9.378  0.00  0.00    +0.056 S 
ATOM     13  O   UNL     1      -0.616  -5.737  -9.960  0.00  0.00    -0.153 OA
ATOM     14  O   UNL     1       1.873  -5.737 -10.044  0.00  0.00    -0.153 OA
BRANCH  12  15
ATOM     15  N   UNL     1       0.698  -6.270  -7.937  0.00  0.00    -0.204 NA
ATOM     16  H   UNL     1       0.727  -5.777  -7.102  0.00  0.00    +0.144 HD
ATOM     17  H   UNL     1       0.698  -7.240  -7.927  0.00  0.00    +0.144 HD
ENDBRANCH  12  15
ENDBRANCH  10  12
ENDBRANCH   4   6
ENDBRANCH   1   4
BRANCH   1  18
ATOM     18  C   UNL     1      -1.324  -0.744  -5.989  0.00  0.00    -0.069 C 
BRANCH  18  19
ATOM     19  C   UNL     1      -1.050   0.257  -4.865  0.00  0.00    +0.077 C 
BRANCH  19  21
ATOM     20  N   UNL     1      -0.411   0.193  -2.476  0.00  0.00    -0.285 N 
ATOM     21  C   UNL     1      -0.694  -0.488  -3.604  0.00  0.00    +0.215 C 
ATOM     22  O   UNL     1      -0.662  -1.700  -3.606  0.00  0.00    -0.276 OA
ATOM     23  H   UNL     1      -0.384   1.162  -2.489  0.00  0.00    +0.155 HD
BRANCH  20  26
ATOM     24  C   UNL     1      -1.255   1.371  -0.027  0.00  0.00    +0.048 C 
ATOM     25  C   UNL     1      -0.550   0.040  -0.070  0.00  0.00    +0.001 A 
ATOM     26  C   UNL     1      -0.155  -0.499  -1.287  0.00  0.00    +0.038 A 
ATOM     27  C   UNL     1       0.495  -1.726  -1.322  0.00  0.00    +0.024 A 
ATOM     28  C   UNL     1       0.746  -2.407  -0.147  0.00  0.00    +0.004 A 
ATOM     29  C   UNL     1       0.350  -1.868   1.064  0.00  0.00    +0.033 A 
ATOM     30  C   UNL     1      -0.292  -0.643   1.102  0.00  0.00    +0.131 A 
BRANCH  30  31
ATOM     31  N   UNL     1      -0.707  -0.067   2.401  0.00  0.00    +0.057 N 
ATOM     32  O   UNL     1      -0.803   1.131   2.527  0.00  0.00    -0.126 OA
ATOM     33  O   UNL     1      -0.951  -0.795   3.335  0.00  0.00    -0.126 OA
ENDBRANCH  30  31
ENDBRANCH  20  26
ENDBRANCH  19  21
ENDBRANCH  18  19
ENDBRANCH   1  18
TORSDOF 9
