REMARK  Name = ZINC64128008
REMARK  9 active torsions:
REMARK  status: ('A' for Active; 'I' for Inactive)
REMARK    1  A    between atoms: C_1  and  C_2
REMARK    2  A    between atoms: C_2  and  C_3
REMARK    3  A    between atoms: C_6  and  C_30
REMARK    4  A    between atoms: C_9  and  C_11
REMARK    5  A    between atoms: C_13  and  C_24
REMARK    6  A    between atoms: C_16  and  C_23
REMARK    7  A    between atoms: C_33  and  N_36
REMARK    8  A    between atoms: N_36  and  C_37
REMARK    9  A    between atoms: N_36  and  C_38
REMARK                            x       y       z     vdW  Elec       q    Type
REMARK                         _______ _______ _______ _____ _____    ______ ____
ROOT
ATOM      1  C   UNL     1      -0.151  -5.749   0.544  0.00  0.00    +0.152 C 
ATOM      2  C   UNL     1      -0.814  -5.351   1.849  0.00  0.00    -0.014 C 
ATOM      3  C   UNL     1      -2.078  -5.887   2.108  0.00  0.00    +0.001 A 
ATOM      4  C   UNL     1      -2.766  -5.569   3.298  0.00  0.00    +0.013 A 
ATOM      5  C   UNL     1      -3.996  -6.104   3.525  0.00  0.00    -0.050 A 
ATOM      6  C   UNL     1      -4.593  -6.963   2.605  0.00  0.00    +0.005 A 
ATOM      7  C   UNL     1      -3.979  -7.307   1.439  0.00  0.00    +0.024 A 
ATOM      8  C   UNL     1      -2.706  -6.791   1.138  0.00  0.00    +0.041 A 
ATOM      9  N   UNL     1      -2.104  -7.130  -0.007  0.00  0.00    -0.284 N 
ATOM     10  C   UNL     1      -0.914  -6.689  -0.363  0.00  0.00    +0.230 C 
ATOM     11  O   UNL     1      -0.428  -7.039  -1.422  0.00  0.00    -0.274 OA
ATOM     12  C   UNL     1      -4.727  -5.762   4.797  0.00  0.00    +0.044 C 
ATOM     13  H   UNL     1      -2.569  -7.732  -0.609  0.00  0.00    +0.155 HD
ENDROOT
BRANCH   1  19
ATOM     14  C   UNL     1      -0.189  -1.014  -0.682  0.00  0.00    +0.235 C 
ATOM     15  O   UNL     1       0.209  -0.222  -1.510  0.00  0.00    -0.274 OA
ATOM     16  N   UNL     1       0.120  -2.321  -0.797  0.00  0.00    -0.185 N 
ATOM     17  C   UNL     1       0.933  -2.920  -1.869  0.00  0.00    +0.136 C 
ATOM     18  C   UNL     1       0.957  -4.417  -1.500  0.00  0.00    +0.083 C 
ATOM     19  C   UNL     1       0.136  -4.489  -0.233  0.00  0.00    +0.055 C 
ATOM     20  N   UNL     1      -0.272  -3.329   0.082  0.00  0.00    -0.185 NA
BRANCH  17  21
ATOM     21  C   UNL     1       0.281  -2.710  -3.211  0.00  0.00    -0.025 A 
ATOM     22  C   UNL     1      -1.094  -2.795  -3.331  0.00  0.00    +0.007 A 
ATOM     23  C   UNL     1      -1.695  -2.603  -4.559  0.00  0.00    +0.023 A 
ATOM     24  C   UNL     1      -0.917  -2.324  -5.675  0.00  0.00    +0.029 A 
ATOM     25  C   UNL     1       0.464  -2.239  -5.552  0.00  0.00    +0.023 A 
ATOM     26  C   UNL     1       1.058  -2.426  -4.319  0.00  0.00    +0.007 A 
BRANCH  24  27
ATOM     27  N   UNL     1      -1.521  -2.130  -6.920  0.00  0.00    -0.336 N 
ATOM     28  C   UNL     1      -2.982  -2.102  -7.028  0.00  0.00    +0.129 C 
ATOM     29  C   UNL     1      -0.695  -1.954  -8.116  0.00  0.00    +0.129 C 
ENDBRANCH  24  27
ENDBRANCH  17  21
BRANCH  14  31
ATOM     30  C   UNL     1      -1.230   0.976   0.369  0.00  0.00    +0.013 C 
ATOM     31  C   UNL     1      -1.028  -0.537   0.475  0.00  0.00    +0.094 C 
ENDBRANCH  14  31
ENDBRANCH   1  19
BRANCH   2  32
ATOM     32  C   UNL     1      -0.179  -4.474   2.764  0.00  0.00    -0.020 A 
ATOM     33  C   UNL     1      -0.740  -3.217   3.044  0.00  0.00    +0.008 A 
ATOM     34  C   UNL     1      -0.116  -2.373   3.934  0.00  0.00    +0.001 A 
ATOM     35  C   UNL     1       1.062  -2.759   4.554  0.00  0.00    +0.000 A 
ATOM     36  C   UNL     1       1.623  -3.997   4.285  0.00  0.00    +0.001 A 
ATOM     37  C   UNL     1       1.012  -4.858   3.402  0.00  0.00    +0.008 A 
ENDBRANCH   2  32
TORSDOF 5
