REMARK  Name = ZINC43710830
REMARK  4 active torsions:
REMARK  status: ('A' for Active; 'I' for Inactive)
REMARK    1  A    between atoms: C_4  and  C_7
REMARK    2  A    between atoms: C_7  and  C_9
REMARK    3  A    between atoms: C_20  and  C_22
REMARK    4  A    between atoms: N_26  and  C_29
REMARK                            x       y       z     vdW  Elec       q    Type
REMARK                         _______ _______ _______ _____ _____    ______ ____
ROOT
ATOM      1  C   UNL     1       3.752  -2.201  -0.059  0.00  0.00    +0.157 C 
ATOM      2  C   UNL     1       3.376  -2.726   1.334  0.00  0.00    +0.118 C 
ATOM      3  C   UNL     1       4.745  -3.032   2.013  0.00  0.00    +0.114 C 
ATOM      4  C   UNL     1       5.688  -3.287   0.831  0.00  0.00    +0.111 C 
ATOM      5  N   UNL     1       5.100  -2.667  -0.361  0.00  0.00    -0.317 N 
ATOM      6  C   UNL     1       5.823  -2.509  -1.537  0.00  0.00    +0.073 C 
ATOM      7  C   UNL     1       7.145  -2.291  -1.380  0.00  0.00    +0.033 C 
ATOM      8  C   UNL     1       7.713  -2.210  -0.020  0.00  0.00    +0.051 C 
ATOM      9  C   UNL     1       7.048  -2.680   1.074  0.00  0.00    +0.015 C 
ATOM     10  C   UNL     1       4.446  -4.352   2.707  0.00  0.00    +0.232 C 
ATOM     11  O   UNL     1       5.067  -4.824   3.635  0.00  0.00    -0.274 OA
ATOM     12  N   UNL     1       3.376  -4.906   2.116  0.00  0.00    -0.210 N 
ATOM     13  C   UNL     1       2.744  -4.098   1.229  0.00  0.00    +0.232 C 
ATOM     14  O   UNL     1       1.843  -4.410   0.480  0.00  0.00    -0.274 OA
ENDROOT
BRANCH  12  15
ATOM     15  C   UNL     1       2.938  -6.208   2.398  0.00  0.00    +0.044 A 
ATOM     16  C   UNL     1       1.752  -6.677   1.849  0.00  0.00    +0.024 A 
ATOM     17  C   UNL     1       1.323  -7.960   2.129  0.00  0.00    +0.002 A 
ATOM     18  C   UNL     1       2.074  -8.777   2.955  0.00  0.00    +0.000 A 
ATOM     19  C   UNL     1       3.255  -8.312   3.503  0.00  0.00    +0.002 A 
ATOM     20  C   UNL     1       3.692  -7.032   3.223  0.00  0.00    +0.024 A 
ENDBRANCH  12  15
BRANCH   1  21
ATOM     21  C   UNL     1       3.720  -0.695  -0.063  0.00  0.00    +0.184 C 
ATOM     22  O   UNL     1       4.756  -0.066  -0.051  0.00  0.00    -0.290 OA
BRANCH  21  26
ATOM     23  C   UNL     1       0.002   1.347  -0.115  0.00  0.00    +0.000 A 
ATOM     24  C   UNL     1       1.183   2.068  -0.101  0.00  0.00    +0.001 A 
ATOM     25  C   UNL     1       2.395   1.412  -0.084  0.00  0.00    +0.011 A 
ATOM     26  C   UNL     1       2.430   0.014  -0.081  0.00  0.00    +0.019 A 
ATOM     27  C   UNL     1       1.232  -0.708  -0.094  0.00  0.00    +0.011 A 
ATOM     28  C   UNL     1       0.027  -0.037  -0.112  0.00  0.00    +0.001 A 
ENDBRANCH  21  26
ENDBRANCH   1  21
BRANCH   8  29
ATOM     29  C   UNL     1       9.000  -1.613   0.169  0.00  0.00    +0.099 C 
ATOM     30  N   UNL     1      10.022  -1.138   0.319  0.00  0.00    -0.191 NA
ENDBRANCH   8  29
TORSDOF 4
