REMARK  Name = ZINC55088649
REMARK  8 active torsions:
REMARK  status: ('A' for Active; 'I' for Inactive)
REMARK    1  A    between atoms: C_1  and  C_2
REMARK    2  A    between atoms: C_2  and  C_3
REMARK    3  A    between atoms: C_2  and  N_16
REMARK    4  A    between atoms: C_6  and  N_9
REMARK    5  A    between atoms: N_12  and  C_15
REMARK    6  A    between atoms: N_19  and  C_20
REMARK    7  A    between atoms: C_20  and  C_21
REMARK    8  A    between atoms: C_21  and  C_22
REMARK                            x       y       z     vdW  Elec       q    Type
REMARK                         _______ _______ _______ _____ _____    ______ ____
ROOT
ATOM      1  C   UNL     1      -0.033   1.525   0.019  0.00  0.00    +0.033 C 
ATOM      2  C   UNL     1       0.002  -0.004   0.002  0.00  0.00    +0.102 C 
ENDROOT
BRANCH   2   3
ATOM      3  C   UNL     1       0.731  -0.503   1.223  0.00  0.00    -0.027 A 
ATOM      4  C   UNL     1       2.114  -0.500   1.250  0.00  0.00    +0.007 A 
ATOM      5  C   UNL     1       2.785  -0.957   2.368  0.00  0.00    +0.023 A 
ATOM      6  C   UNL     1       2.069  -1.420   3.465  0.00  0.00    +0.030 A 
ATOM      7  C   UNL     1       0.680  -1.422   3.434  0.00  0.00    +0.023 A 
ATOM      8  C   UNL     1       0.016  -0.958   2.315  0.00  0.00    +0.007 A 
BRANCH   6   9
ATOM      9  N   UNL     1       2.745  -1.883   4.596  0.00  0.00    -0.333 N 
ATOM     10  C   UNL     1       2.010  -2.267   5.811  0.00  0.00    +0.086 C 
ATOM     11  C   UNL     1       2.485  -3.657   6.247  0.00  0.00    -0.060 C 
ATOM     12  N   UNL     1       3.946  -3.649   6.399  0.00  0.00    +0.380 N 
ATOM     13  C   UNL     1       4.582  -3.404   5.099  0.00  0.00    -0.060 C 
ATOM     14  C   UNL     1       4.211  -2.006   4.604  0.00  0.00    +0.086 C 
ATOM     15  C   UNL     1       4.389  -4.948   6.922  0.00  0.00    -0.096 C 
ATOM     16  H   UNL     1       4.211  -2.921   7.045  0.00  0.00    -0.082 HD
ENDBRANCH   6   9
ENDBRANCH   2   3
BRANCH   2  17
ATOM     17  N   UNL     1       0.697  -0.463  -1.203  0.00  0.00    -0.293 N 
ATOM     18  C   UNL     1       0.021  -0.595  -2.362  0.00  0.00    +0.300 C 
ATOM     19  O   UNL     1      -1.165  -0.332  -2.407  0.00  0.00    -0.253 OA
ATOM     20  N   UNL     1       0.660  -1.017  -3.471  0.00  0.00    -0.299 N 
ATOM     21  H   UNL     1       1.643  -0.672  -1.167  0.00  0.00    +0.151 HD
ATOM     22  H   UNL     1       1.607  -1.226  -3.435  0.00  0.00    +0.150 HD
BRANCH  20  23
ATOM     23  C   UNL     1      -0.074  -1.160  -4.730  0.00  0.00    +0.111 C 
BRANCH  23  24
ATOM     24  C   UNL     1       0.878  -1.650  -5.823  0.00  0.00    +0.061 C 
BRANCH  24  25
ATOM     25  C   UNL     1       0.122  -1.797  -7.119  0.00  0.00    -0.009 A 
ATOM     26  C   UNL     1      -0.071  -0.885  -8.102  0.00  0.00    +0.011 A 
ATOM     27  C   UNL     1      -0.807  -1.245  -9.216  0.00  0.00    +0.008 A 
ATOM     28  C   UNL     1      -1.313  -2.500  -9.291  0.00  0.00    +0.045 A 
ATOM     29  S   UNL     1      -0.744  -3.220  -7.760  0.00  0.00    -0.102 S 
ENDBRANCH  24  25
ENDBRANCH  23  24
ENDBRANCH  20  23
ENDBRANCH   2  17
TORSDOF 6
