REMARK  Name = ZINC15419203
REMARK  11 active torsions:
REMARK  status: ('A' for Active; 'I' for Inactive)
REMARK    1  A    between atoms: C_1  and  C_2
REMARK    2  A    between atoms: C_7  and  N_8
REMARK    3  A    between atoms: C_9  and  C_11
REMARK    4  A    between atoms: C_11  and  N_57
REMARK    5  A    between atoms: C_12  and  N_57
REMARK    6  A    between atoms: C_13  and  C_15
REMARK    7  A    between atoms: C_13  and  C_16
REMARK    8  A    between atoms: C_13  and  N_57
REMARK    9  A    between atoms: N_18  and  C_19
REMARK   10  A    between atoms: C_19  and  C_20
REMARK   11  A    between atoms: C_20  and  C_21
REMARK                            x       y       z     vdW  Elec       q    Type
REMARK                         _______ _______ _______ _____ _____    ______ ____
ROOT
ATOM      1  C   UNL     1      -3.448   1.698   0.150  0.00  0.00    -0.094 C 
ATOM      2  N   UNL     1      -2.213   0.893   0.042  0.00  0.00    +0.391 N 
ATOM      3  H   UNL     1      -2.191   0.213   0.811  0.00  0.00    -0.080 HD
ENDROOT
BRANCH   2   4
ATOM      4  C   UNL     1      -1.028   1.771   0.142  0.00  0.00    +0.016 C 
ATOM      5  C   UNL     1      -0.855   2.585  -1.142  0.00  0.00    -0.004 C 
BRANCH   4   6
ATOM      6  C   UNL     1       0.192   0.914   0.362  0.00  0.00    +0.199 C 
ATOM      7  O   UNL     1       0.106  -0.293   0.291  0.00  0.00    -0.278 OA
ATOM      8  N   UNL     1       1.380   1.490   0.633  0.00  0.00    -0.316 N 
ATOM      9  H   UNL     1       1.449   2.456   0.689  0.00  0.00    +0.149 HD
BRANCH   8  10
ATOM     10  C   UNL     1       2.567   0.658   0.841  0.00  0.00    +0.108 C 
BRANCH  10  11
ATOM     11  C   UNL     1       3.774   1.554   1.129  0.00  0.00    +0.049 C 
BRANCH  11  12
ATOM     12  C   UNL     1       4.995   0.697   1.343  0.00  0.00    -0.072 C 
ATOM     13  C   UNL     1       5.772   0.483   0.330  0.00  0.00    -0.028 C 
ATOM     14  C   UNL     1       7.016  -0.354   0.386  0.00  0.00    +0.027 C 
ATOM     15  C   UNL     1       7.455  -0.550   1.839  0.00  0.00    +0.004 C 
ATOM     16  C   UNL     1       6.239  -1.008   2.655  0.00  0.00    +0.005 C 
ATOM     17  C   UNL     1       5.239   0.150   2.719  0.00  0.00    +0.030 C 
ENDBRANCH  11  12
ENDBRANCH  10  11
ENDBRANCH   8  10
ENDBRANCH   4   6
ENDBRANCH   2   4
BRANCH   2  18
ATOM     18  C   UNL     1      -2.195   0.165  -1.244  0.00  0.00    +0.020 C 
BRANCH  18  20
ATOM     19  N   UNL     1      -3.457  -1.688  -2.290  0.00  0.00    -0.287 N 
ATOM     20  C   UNL     1      -3.284  -0.877  -1.227  0.00  0.00    +0.201 C 
ATOM     21  O   UNL     1      -4.004  -0.987  -0.257  0.00  0.00    -0.278 OA
ATOM     22  H   UNL     1      -2.934  -1.550  -3.095  0.00  0.00    +0.155 HD
BRANCH  19  29
ATOM     23  C   UNL     1      -4.404  -2.784  -4.739  0.00  0.00    +0.046 C 
ATOM     24  C   UNL     1      -4.879  -3.292  -3.402  0.00  0.00    -0.028 A 
ATOM     25  C   UNL     1      -5.796  -4.323  -3.341  0.00  0.00    +0.020 A 
ATOM     26  C   UNL     1      -6.237  -4.787  -2.115  0.00  0.00    +0.018 A 
ATOM     27  C   UNL     1      -5.757  -4.223  -0.946  0.00  0.00    +0.017 A 
ATOM     28  C   UNL     1      -4.835  -3.197  -1.001  0.00  0.00    +0.024 A 
ATOM     29  C   UNL     1      -4.391  -2.729  -2.231  0.00  0.00    +0.036 A 
ATOM     30 BR   UNL     1      -7.500  -6.192  -2.036  0.00  0.00    -0.050 Br
ENDBRANCH  19  29
ENDBRANCH  18  20
ENDBRANCH   2  18
TORSDOF 8
