REMARK  Name = ZINC60863696
REMARK  6 active torsions:
REMARK  status: ('A' for Active; 'I' for Inactive)
REMARK    1  A    between atoms: C_1  and  N_2
REMARK    2  A    between atoms: N_2  and  C_3
REMARK    3  A    between atoms: N_2  and  C_21
REMARK    4  A    between atoms: C_3  and  C_4
REMARK    5  A    between atoms: C_9  and  N_10
REMARK    6  A    between atoms: N_10  and  C_11
REMARK                            x       y       z     vdW  Elec       q    Type
REMARK                         _______ _______ _______ _____ _____    ______ ____
ROOT
ATOM      1  C   UNL     1       2.149  -0.145  -1.260  0.00  0.00    -0.043 A 
ATOM      2  C   UNL     1       2.597   0.818  -2.143  0.00  0.00    +0.003 A 
ATOM      3  C   UNL     1       3.954   1.023  -2.315  0.00  0.00    +0.000 A 
ATOM      4  C   UNL     1       4.867   0.266  -1.604  0.00  0.00    +0.002 A 
ATOM      5  C   UNL     1       4.426  -0.699  -0.719  0.00  0.00    +0.023 A 
ATOM      6  C   UNL     1       3.063  -0.903  -0.540  0.00  0.00    +0.032 A 
ENDROOT
BRANCH   6   7
ATOM      7  N   UNL     1       2.614  -1.875   0.359  0.00  0.00    -0.319 N 
ATOM      8  H   UNL     1       1.662  -2.020   0.481  0.00  0.00    +0.152 HD
BRANCH   7   9
ATOM      9  C   UNL     1       3.503  -2.611   1.058  0.00  0.00    +0.090 C 
ATOM     10  C   UNL     1       3.065  -3.655   1.851  0.00  0.00    +0.113 C 
ATOM     11  C   UNL     1       1.660  -4.101   1.828  0.00  0.00    +0.256 C 
ATOM     12  O   UNL     1       0.844  -3.558   1.107  0.00  0.00    -0.270 OA
ATOM     13  N   UNL     1       1.304  -5.126   2.629  0.00  0.00    -0.263 N 
ATOM     14  C   UNL     1       2.192  -5.733   3.428  0.00  0.00    +0.143 C 
ATOM     15  S   UNL     1       1.649  -7.026   4.410  0.00  0.00    -0.018 S 
ATOM     16  N   UNL     1       3.484  -5.381   3.499  0.00  0.00    -0.263 N 
ATOM     17  C   UNL     1       3.983  -4.376   2.751  0.00  0.00    +0.256 C 
ATOM     18  O   UNL     1       5.158  -4.070   2.820  0.00  0.00    -0.270 OA
ATOM     19  H   UNL     1       0.383  -5.432   2.626  0.00  0.00    +0.157 HD
ATOM     20  H   UNL     1       4.074  -5.863   4.100  0.00  0.00    +0.157 HD
ENDBRANCH   7   9
ENDBRANCH   6   7
BRANCH   1  21
ATOM     21  C   UNL     1       0.671  -0.367  -1.072  0.00  0.00    -0.041 C 
BRANCH  21  23
ATOM     22  C   UNL     1       0.379   1.769  -0.021  0.00  0.00    -0.095 C 
ATOM     23  N   UNL     1       0.223   0.318   0.147  0.00  0.00    +0.382 N 
ATOM     24  H   UNL     1       0.779   0.008   0.931  0.00  0.00    -0.081 HD
BRANCH  23  25
ATOM     25  C   UNL     1      -1.190   0.003   0.395  0.00  0.00    -0.069 C 
ATOM     26  C   UNL     1      -1.657   0.717   1.666  0.00  0.00    -0.015 C 
ATOM     27  C   UNL     1      -3.129   0.389   1.924  0.00  0.00    -0.002 C 
ATOM     28  C   UNL     1      -3.292  -1.122   2.099  0.00  0.00    -0.000 C 
ATOM     29  C   UNL     1      -2.825  -1.836   0.829  0.00  0.00    -0.002 C 
ATOM     30  C   UNL     1      -1.353  -1.508   0.571  0.00  0.00    -0.015 C 
ENDBRANCH  23  25
ENDBRANCH  21  23
ENDBRANCH   1  21
TORSDOF 5
