REMARK  Name = ZINC02784281
REMARK  14 active torsions:
REMARK  status: ('A' for Active; 'I' for Inactive)
REMARK    1  A    between atoms: C_1  and  C_2
REMARK    2  A    between atoms: C_2  and  C_3
REMARK    3  A    between atoms: C_3  and  O_4
REMARK    4  A    between atoms: O_4  and  C_5
REMARK    5  A    between atoms: C_5  and  C_7
REMARK    6  A    between atoms: C_8  and  C_39
REMARK    7  A    between atoms: C_12  and  C_14
REMARK    8  A    between atoms: C_16  and  O_22
REMARK    9  A    between atoms: C_17  and  O_21
REMARK   10  A    between atoms: O_22  and  C_23
REMARK   11  A    between atoms: C_23  and  C_24
REMARK   12  A    between atoms: C_28  and  C_31
REMARK   13  A    between atoms: C_34  and  O_37
REMARK   14  A    between atoms: O_37  and  C_38
REMARK                            x       y       z     vdW  Elec       q    Type
REMARK                         _______ _______ _______ _____ _____    ______ ____
ROOT
ATOM      1  C   UNL     1       6.160  -3.435  -7.836  0.00  0.00    +0.065 C 
ATOM      2  C   UNL     1       6.683  -3.168  -6.627  0.00  0.00    +0.016 C 
ATOM      3  N   UNL     1       5.870  -3.018  -5.539  0.00  0.00    -0.321 N 
ATOM      4  C   UNL     1       4.539  -2.740  -5.696  0.00  0.00    +0.016 C 
ATOM      5  C   UNL     1       3.921  -2.989  -6.870  0.00  0.00    +0.024 C 
ATOM      6  C   UNL     1       4.679  -3.584  -8.029  0.00  0.00    +0.092 C 
ATOM      7  C   UNL     1       2.554  -2.706  -7.045  0.00  0.00    +0.162 C 
ATOM      8  O   UNL     1       2.033  -2.924  -8.120  0.00  0.00    -0.292 OA
ATOM      9  C   UNL     1       1.727  -2.138  -5.924  0.00  0.00    +0.088 C 
ATOM     10  C   UNL     1       2.321  -2.592  -4.586  0.00  0.00    +0.032 C 
ATOM     11  C   UNL     1       3.785  -2.148  -4.531  0.00  0.00    +0.059 C 
ATOM     12  C   UNL     1       8.176  -3.033  -6.470  0.00  0.00    +0.061 C 
ATOM     13  H   UNL     1       6.284  -3.120  -4.524  0.00  0.00    +0.152 HD
ENDROOT
BRANCH   6  14
ATOM     14  C   UNL     1       4.340  -5.048  -8.143  0.00  0.00    -0.030 A 
ATOM     15  C   UNL     1       3.763  -5.534  -9.302  0.00  0.00    +0.054 A 
ATOM     16  C   UNL     1       3.451  -6.879  -9.409  0.00  0.00    +0.163 A 
ATOM     17  C   UNL     1       3.719  -7.740  -8.349  0.00  0.00    +0.177 A 
ATOM     18  C   UNL     1       4.297  -7.247  -7.189  0.00  0.00    +0.086 A 
ATOM     19  C   UNL     1       4.611  -5.903  -7.091  0.00  0.00    +0.028 A 
ATOM     20 CL   UNL     1       4.632  -8.316  -5.864  0.00  0.00    -0.080 Cl
BRANCH  17  21
ATOM     21  O   UNL     1       3.414  -9.061  -8.450  0.00  0.00    -0.502 OA
ATOM     22  H   UNL     1       3.626  -9.740  -7.611  0.00  0.00    +0.292 HD
ENDBRANCH  17  21
BRANCH  16  23
ATOM     23  O   UNL     1       2.884  -7.358 -10.549  0.00  0.00    -0.489 OA
BRANCH  23  24
ATOM     24  C   UNL     1       2.638  -6.418 -11.596  0.00  0.00    +0.226 C 
ATOM     25  C   UNL     1       2.001  -7.136 -12.788  0.00  0.00    +0.048 C 
ENDBRANCH  23  24
ENDBRANCH  16  23
ENDBRANCH   6  14
BRANCH  10  26
ATOM     26  C   UNL     1       1.557  -1.960  -3.452  0.00  0.00    -0.043 A 
ATOM     27  C   UNL     1       0.931  -2.759  -2.513  0.00  0.00    +0.007 A 
ATOM     28  C   UNL     1       0.229  -2.182  -1.472  0.00  0.00    +0.046 A 
ATOM     29  C   UNL     1       0.153  -0.801  -1.369  0.00  0.00    +0.120 A 
ATOM     30  C   UNL     1       0.777  -0.002  -2.316  0.00  0.00    +0.046 A 
ATOM     31  C   UNL     1       1.482  -0.583  -3.352  0.00  0.00    +0.007 A 
BRANCH  29  32
ATOM     32  O   UNL     1      -0.537  -0.231  -0.346  0.00  0.00    -0.495 OA
ATOM     33  C   UNL     1      -0.573   1.197  -0.304  0.00  0.00    +0.277 C 
ENDBRANCH  29  32
ENDBRANCH  10  26
BRANCH   1  34
ATOM     34  C   UNL     1       7.022  -3.579  -8.948  0.00  0.00    +0.338 C 
ATOM     35  O   UNL     1       8.213  -3.359  -8.828  0.00  0.00    -0.245 OA
BRANCH  34  36
ATOM     36  O   UNL     1       6.524  -3.962 -10.143  0.00  0.00    -0.461 OA
BRANCH  36  37
ATOM     37  C   UNL     1       7.452  -4.087 -11.222  0.00  0.00    +0.232 C 
BRANCH  37  39
ATOM     38  C   UNL     1       7.702  -4.660 -13.641  0.00  0.00    +0.007 C 
ATOM     39  C   UNL     1       6.709  -4.526 -12.486  0.00  0.00    +0.038 C 
ENDBRANCH  37  39
ENDBRANCH  36  37
ENDBRANCH  34  36
ENDBRANCH   1  34
TORSDOF 10
