REMARK  Name = ZINC40568407
REMARK  9 active torsions:
REMARK  status: ('A' for Active; 'I' for Inactive)
REMARK    1  A    between atoms: C_1  and  C_2
REMARK    2  A    between atoms: C_2  and  C_3
REMARK    3  A    between atoms: C_3  and  C_4
REMARK    4  A    between atoms: C_4  and  O_5
REMARK    5  A    between atoms: O_5  and  C_6
REMARK    6  A    between atoms: C_6  and  C_8
REMARK    7  A    between atoms: C_9  and  N_27
REMARK    8  A    between atoms: C_13  and  C_17
REMARK    9  A    between atoms: C_17  and  C_18
REMARK                            x       y       z     vdW  Elec       q    Type
REMARK                         _______ _______ _______ _____ _____    ______ ____
ROOT
ATOM      1  C   UNL     1      -4.213  -4.458  -0.030  0.00  0.00    +0.119 A 
ATOM      2  C   UNL     1      -4.570  -5.788   0.020  0.00  0.00    +0.055 A 
ATOM      3  C   UNL     1      -5.985  -6.120   0.082  0.00  0.00    +0.031 A 
ATOM      4  C   UNL     1      -6.588  -7.406   0.140  0.00  0.00    -0.031 A 
ATOM      5  C   UNL     1      -7.952  -7.501   0.196  0.00  0.00    -0.024 A 
ATOM      6  C   UNL     1      -8.729  -6.343   0.186  0.00  0.00    +0.025 A 
ATOM      7  N   UNL     1      -8.169  -5.154   0.131  0.00  0.00    -0.352 N 
ATOM      8  C   UNL     1      -6.862  -5.014   0.081  0.00  0.00    +0.088 A 
ATOM      9  S   UNL     1      -5.779  -3.609   0.012  0.00  0.00    -0.062 S 
ATOM     10  C   UNL     1      -8.665  -8.827   0.277  0.00  0.00    +0.037 C 
ATOM     11  C   UNL     1      -7.738  -9.961  -0.157  0.00  0.00    +0.005 C 
ATOM     12  C   UNL     1      -6.426  -9.843   0.627  0.00  0.00    +0.005 C 
ATOM     13  C   UNL     1      -5.679  -8.604   0.133  0.00  0.00    +0.036 C 
ATOM     14  H   UNL     1      -8.732  -4.364   0.126  0.00  0.00    +0.166 HD
ENDROOT
BRANCH   2  15
ATOM     15  N   UNL     1      -3.605  -6.785   0.012  0.00  0.00    -0.356 N 
ATOM     16  H   UNL     1      -2.718  -6.604   0.359  0.00  0.00    +0.142 HD
ATOM     17  H   UNL     1      -3.818  -7.663  -0.342  0.00  0.00    +0.142 HD
ENDBRANCH   2  15
BRANCH   1  18
ATOM     18  C   UNL     1      -2.914  -3.900  -0.093  0.00  0.00    +0.348 C 
ATOM     19  O   UNL     1      -1.939  -4.628  -0.115  0.00  0.00    -0.244 OA
BRANCH  18  20
ATOM     20  O   UNL     1      -2.756  -2.560  -0.131  0.00  0.00    -0.461 OA
BRANCH  20  21
ATOM     21  C   UNL     1      -1.417  -2.066  -0.194  0.00  0.00    +0.232 C 
BRANCH  21  22
ATOM     22  C   UNL     1      -1.438  -0.536  -0.229  0.00  0.00    +0.041 C 
BRANCH  22  24
ATOM     23  C   UNL     1      -0.026   1.522  -0.331  0.00  0.00    +0.004 C 
ATOM     24  C   UNL     1      -0.004  -0.008  -0.297  0.00  0.00    -0.000 C 
ENDBRANCH  22  24
ENDBRANCH  21  22
ENDBRANCH  20  21
ENDBRANCH  18  20
ENDBRANCH   1  18
BRANCH   6  25
ATOM     25  C   UNL     1     -10.230  -6.456   0.240  0.00  0.00    +0.095 C 
BRANCH  25  26
ATOM     26  C   UNL     1     -10.674  -6.573   1.676  0.00  0.00    -0.005 A 
ATOM     27  C   UNL     1     -11.007  -5.592   2.549  0.00  0.00    +0.011 A 
ATOM     28  C   UNL     1     -11.390  -5.938   3.832  0.00  0.00    +0.008 A 
ATOM     29  C   UNL     1     -11.421  -7.248   4.178  0.00  0.00    +0.045 A 
ATOM     30  S   UNL     1     -10.905  -8.042   2.664  0.00  0.00    -0.101 S 
ENDBRANCH  25  26
ENDBRANCH   6  25
TORSDOF 8
