REMARK  Name = ZINC23398559
REMARK  9 active torsions:
REMARK  status: ('A' for Active; 'I' for Inactive)
REMARK    1  A    between atoms: C_1  and  C_2
REMARK    2  A    between atoms: C_2  and  C_3
REMARK    3  A    between atoms: C_3  and  C_4
REMARK    4  A    between atoms: C_3  and  C_6
REMARK    5  A    between atoms: C_3  and  N_27
REMARK    6  A    between atoms: C_4  and  C_5
REMARK    7  A    between atoms: N_8  and  C_11
REMARK    8  A    between atoms: C_11  and  C_12
REMARK    9  A    between atoms: N_21  and  C_22
REMARK                            x       y       z     vdW  Elec       q    Type
REMARK                         _______ _______ _______ _____ _____    ______ ____
ROOT
ATOM      1  C   UNL     1      -0.765   1.619   1.253  0.00  0.00    +0.150 C 
ENDROOT
BRANCH   1   2
ATOM      2  C   UNL     1      -0.045   1.100   0.006  0.00  0.00    +0.028 C 
ATOM      3  C   UNL     1       1.404   1.592   0.012  0.00  0.00    +0.008 C 
ATOM      4  C   UNL     1       2.134   1.046  -1.218  0.00  0.00    +0.019 C 
ATOM      5  C   UNL     1       1.451   1.568  -2.486  0.00  0.00    +0.109 C 
ATOM      6  N   UNL     1       0.023   1.225  -2.429  0.00  0.00    -0.285 N 
ATOM      7  C   UNL     1      -0.753   1.623  -1.248  0.00  0.00    +0.114 C 
ATOM      8  C   UNL     1      -0.563   0.557  -3.443  0.00  0.00    +0.306 C 
ATOM      9  O   UNL     1      -1.718   0.191  -3.343  0.00  0.00    -0.252 OA
ATOM     10  N   UNL     1       0.132   0.294  -4.568  0.00  0.00    -0.269 N 
ATOM     11  H   UNL     1       1.197   0.561  -4.631  0.00  0.00    +0.156 HD
BRANCH  10  12
ATOM     12  C   UNL     1      -0.506  -0.322  -5.661  0.00  0.00    +0.042 A 
ATOM     13  C   UNL     1      -0.034  -0.134  -6.951  0.00  0.00    +0.031 A 
ATOM     14  C   UNL     1      -0.672  -0.743  -7.979  0.00  0.00    +0.047 A 
ATOM     15  S   UNL     1      -1.984  -1.615  -7.139  0.00  0.00    -0.103 S 
ATOM     16  C   UNL     1      -1.592  -1.117  -5.471  0.00  0.00    +0.068 A 
ENDBRANCH  10  12
ENDBRANCH   1   2
BRANCH   1  19
ATOM     17  C   UNL     1      -3.901   0.028   1.974  0.00  0.00    +0.072 A 
ATOM     18  C   UNL     1      -2.642   0.360   2.345  0.00  0.00    +0.132 A 
ATOM     19  N   UNL     1      -2.115   1.053   1.309  0.00  0.00    -0.251 N 
ATOM     20  N   UNL     1      -3.005   1.134   0.383  0.00  0.00    -0.065 NA
ATOM     21  N   UNL     1      -4.080   0.528   0.747  0.00  0.00    -0.136 NA
BRANCH  17  22
ATOM     22  C   UNL     1      -4.904  -0.751   2.786  0.00  0.00    -0.025 C 
BRANCH  22  23
ATOM     23  N   UNL     1      -5.179  -0.038   4.040  0.00  0.00    +0.386 N 
ATOM     24  H   UNL     1      -4.246   0.069   4.614  0.00  0.00    -0.089 HD
ATOM     25  H   UNL     1      -5.911  -0.606   4.633  0.00  0.00    -0.089 HD
ATOM     26  H   UNL     1      -5.586   0.959   3.814  0.00  0.00    -0.089 HD
ENDBRANCH  22  23
BRANCH  22  28
ATOM     27  C   UNL     1      -5.915  -1.641   0.682  0.00  0.00    +0.003 C 
ATOM     28  C   UNL     1      -6.201  -0.898   1.988  0.00  0.00    -0.010 C 
ENDBRANCH  22  28
BRANCH  22  29
ATOM     29  C   UNL     1      -4.338  -2.137   3.101  0.00  0.00    -0.010 C 
ATOM     30  C   UNL     1      -5.356  -2.928   3.925  0.00  0.00    +0.003 C 
ENDBRANCH  22  29
ENDBRANCH  17  22
ENDBRANCH   1  19
TORSDOF 7
