REMARK  Name = ZINC00694332
REMARK  13 active torsions:
REMARK  status: ('A' for Active; 'I' for Inactive)
REMARK    1  A    between atoms: C_1  and  C_2
REMARK    2  A    between atoms: C_2  and  O_3
REMARK    3  A    between atoms: O_3  and  C_4
REMARK    4  A    between atoms: C_6  and  C_24
REMARK    5  A    between atoms: C_9  and  O_10
REMARK    6  A    between atoms: O_10  and  C_11
REMARK    7  A    between atoms: C_11  and  C_12
REMARK    8  A    between atoms: N_14  and  C_15
REMARK    9  A    between atoms: C_17  and  C_23
REMARK   10  A    between atoms: C_18  and  C_22
REMARK   11  A    between atoms: N_25  and  N_26
REMARK   12  A    between atoms: N_26  and  C_27
REMARK   13  A    between atoms: C_27  and  N_29
REMARK                            x       y       z     vdW  Elec       q    Type
REMARK                         _______ _______ _______ _____ _____    ______ ____
ROOT
ATOM      1  C   UNL     1       2.352  -4.201  -0.255  0.00  0.00    +0.163 A 
ATOM      2  C   UNL     1       3.504  -4.955  -0.371  0.00  0.00    +0.059 A 
ATOM      3  C   UNL     1       4.743  -4.320  -0.487  0.00  0.00    -0.002 A 
ATOM      4  C   UNL     1       4.811  -2.924  -0.484  0.00  0.00    +0.013 A 
ATOM      5  C   UNL     1       3.657  -2.178  -0.374  0.00  0.00    +0.050 A 
ATOM      6  C   UNL     1       2.427  -2.810  -0.253  0.00  0.00    +0.163 A 
ENDROOT
BRANCH   3   7
ATOM      7  C   UNL     1       5.975  -5.120  -0.612  0.00  0.00    +0.138 C 
ATOM      8  N   UNL     1       7.125  -4.527  -0.719  0.00  0.00    -0.188 NA
BRANCH   8   9
ATOM      9  N   UNL     1       8.296  -5.287  -0.837  0.00  0.00    -0.219 N 
ATOM     10  H   UNL     1       8.247  -6.256  -0.839  0.00  0.00    +0.176 HD
BRANCH   9  11
ATOM     11  C   UNL     1       9.490  -4.673  -0.949  0.00  0.00    +0.147 C 
ATOM     12  S   UNL     1      10.921  -5.601  -1.094  0.00  0.00    -0.017 S 
BRANCH  11  13
ATOM     13  N   UNL     1       9.558  -3.326  -0.946  0.00  0.00    -0.339 N 
ATOM     14  H   UNL     1       8.747  -2.800  -0.864  0.00  0.00    +0.144 HD
ATOM     15  H   UNL     1      10.417  -2.884  -1.027  0.00  0.00    +0.144 HD
ENDBRANCH  11  13
ENDBRANCH   9  11
ENDBRANCH   8   9
ENDBRANCH   3   7
BRANCH   1  16
ATOM     16  O   UNL     1       1.145  -4.816  -0.142  0.00  0.00    -0.489 OA
BRANCH  16  18
ATOM     17  C   UNL     1      -0.295  -6.753  -0.014  0.00  0.00    +0.048 C 
ATOM     18  C   UNL     1       1.141  -6.245  -0.150  0.00  0.00    +0.226 C 
ENDBRANCH  16  18
ENDBRANCH   1  16
BRANCH   6  19
ATOM     19  O   UNL     1       1.293  -2.069  -0.139  0.00  0.00    -0.479 OA
BRANCH  19  20
ATOM     20  C   UNL     1       1.443  -0.648  -0.144  0.00  0.00    +0.325 C 
BRANCH  20  21
ATOM     21  C   UNL     1       0.089   0.000  -0.009  0.00  0.00    +0.255 C 
ATOM     22  O   UNL     1      -0.906  -0.687   0.083  0.00  0.00    -0.272 OA
ATOM     23  N   UNL     1      -0.016   1.344   0.009  0.00  0.00    -0.282 N 
ATOM     24  H   UNL     1       0.783   1.893   0.015  0.00  0.00    +0.155 HD
BRANCH  23  25
ATOM     25  C   UNL     1      -1.279   1.947   0.016  0.00  0.00    +0.048 A 
ATOM     26  C   UNL     1      -2.376   1.270  -0.501  0.00  0.00    +0.028 A 
ATOM     27  C   UNL     1      -3.621   1.867  -0.493  0.00  0.00    -0.046 A 
ATOM     28  C   UNL     1      -3.777   3.139   0.029  0.00  0.00    -0.046 A 
ATOM     29  C   UNL     1      -2.687   3.816   0.544  0.00  0.00    +0.020 A 
ATOM     30  C   UNL     1      -1.439   3.222   0.544  0.00  0.00    +0.039 A 
ATOM     31 BR   UNL     1       0.050   4.145   1.255  0.00  0.00    -0.048 Br
ATOM     32  C   UNL     1      -5.137   3.788   0.036  0.00  0.00    +0.044 C 
ATOM     33  C   UNL     1      -4.812   1.133  -1.054  0.00  0.00    +0.044 C 
ENDBRANCH  23  25
ENDBRANCH  20  21
ENDBRANCH  19  20
ENDBRANCH   6  19
TORSDOF 10
