REMARK  Name = ZINC40315575
REMARK  6 active torsions:
REMARK  status: ('A' for Active; 'I' for Inactive)
REMARK    1  A    between atoms: C_3  and  S_9
REMARK    2  A    between atoms: C_4  and  N_8
REMARK    3  A    between atoms: S_9  and  N_12
REMARK    4  A    between atoms: N_12  and  C_13
REMARK    5  A    between atoms: C_13  and  C_14
REMARK    6  A    between atoms: N_18  and  C_20
REMARK                            x       y       z     vdW  Elec       q    Type
REMARK                         _______ _______ _______ _____ _____    ______ ____
ROOT
ATOM      1  S   UNL     1       3.870   2.251   0.019  0.00  0.00    +0.060 S 
ATOM      2  O   UNL     1       4.708   1.630  -0.946  0.00  0.00    -0.153 OA
ATOM      3  O   UNL     1       3.395   3.582  -0.129  0.00  0.00    -0.153 OA
ENDROOT
BRANCH   1   6
ATOM      4  C   UNL     1       1.203  -0.716  -0.460  0.00  0.00    +0.017 A 
ATOM      5  C   UNL     1       2.318   0.091  -0.591  0.00  0.00    +0.031 A 
ATOM      6  C   UNL     1       2.448   1.225   0.187  0.00  0.00    +0.126 A 
ATOM      7  C   UNL     1       1.457   1.554   1.103  0.00  0.00    +0.052 A 
ATOM      8  C   UNL     1       0.338   0.742   1.233  0.00  0.00    +0.040 A 
ATOM      9  C   UNL     1       0.214  -0.391   0.452  0.00  0.00    +0.020 A 
ATOM     10 BR   UNL     1      -1.309  -1.498   0.627  0.00  0.00    -0.050 Br
BRANCH   7  11
ATOM     11  N   UNL     1       1.586   2.700   1.892  0.00  0.00    -0.356 N 
ATOM     12  H   UNL     1       2.337   3.299   1.758  0.00  0.00    +0.142 HD
ATOM     13  H   UNL     1       0.924   2.896   2.573  0.00  0.00    +0.142 HD
ENDBRANCH   7  11
ENDBRANCH   1   6
BRANCH   1  14
ATOM     14  N   UNL     1       4.686   2.197   1.459  0.00  0.00    -0.190 NA
ATOM     15  H   UNL     1       4.768   2.998   2.000  0.00  0.00    +0.148 HD
BRANCH  14  16
ATOM     16  C   UNL     1       5.284   0.940   1.915  0.00  0.00    +0.107 C 
BRANCH  16  17
ATOM     17  C   UNL     1       6.280   1.228   3.041  0.00  0.00    -0.014 C 
ATOM     18  C   UNL     1       5.544   1.702   4.315  0.00  0.00    -0.016 C 
ATOM     19  C   UNL     1       6.284   1.022   5.482  0.00  0.00    -0.078 C 
ATOM     20  N   UNL     1       7.392   0.238   4.896  0.00  0.00    +0.382 N 
ATOM     21  C   UNL     1       6.978  -0.076   3.502  0.00  0.00    -0.074 C 
ATOM     22  H   UNL     1       8.240   0.784   4.889  0.00  0.00    -0.081 HD
BRANCH  20  23
ATOM     23  C   UNL     1       7.592  -1.002   5.657  0.00  0.00    -0.069 C 
ATOM     24  C   UNL     1       8.895  -1.143   6.448  0.00  0.00    -0.017 C 
ATOM     25  C   UNL     1       8.682  -1.961   5.172  0.00  0.00    -0.017 C 
ENDBRANCH  20  23
ENDBRANCH  16  17
ENDBRANCH  14  16
ENDBRANCH   1  14
TORSDOF 6
