REMARK  Name = ZINC13122878
REMARK  7 active torsions:
REMARK  status: ('A' for Active; 'I' for Inactive)
REMARK    1  A    between atoms: C_1  and  O_2
REMARK    2  A    between atoms: O_2  and  C_3
REMARK    3  A    between atoms: C_6  and  C_9
REMARK    4  A    between atoms: C_12  and  C_19
REMARK    5  A    between atoms: N_14  and  S_15
REMARK    6  A    between atoms: S_15  and  C_18
REMARK    7  A    between atoms: C_20  and  C_31
REMARK                            x       y       z     vdW  Elec       q    Type
REMARK                         _______ _______ _______ _____ _____    ______ ____
ROOT
ATOM      1  C   UNL     1       4.928  -5.598   3.818  0.00  0.00    +0.070 A 
ATOM      2  C   UNL     1       5.800  -5.971   4.843  0.00  0.00    +0.005 A 
ATOM      3  C   UNL     1       6.979  -6.777   4.495  0.00  0.00    +0.008 A 
ATOM      4  C   UNL     1       7.883  -7.177   5.485  0.00  0.00    +0.030 A 
ATOM      5  C   UNL     1       8.982  -7.933   5.141  0.00  0.00    +0.042 A 
ATOM      6  C   UNL     1       9.194  -8.298   3.818  0.00  0.00    +0.022 A 
ATOM      7  C   UNL     1       8.313  -7.912   2.832  0.00  0.00    +0.028 A 
ATOM      8  C   UNL     1       7.195  -7.148   3.157  0.00  0.00    +0.050 A 
ATOM      9  N   UNL     1       6.309  -6.761   2.171  0.00  0.00    -0.322 N 
ATOM     10  C   UNL     1       5.218  -6.028   2.448  0.00  0.00    +0.259 A 
ATOM     11  O   UNL     1       4.461  -5.713   1.547  0.00  0.00    -0.267 OA
ATOM     12 CL   UNL     1      10.106  -8.431   6.366  0.00  0.00    -0.084 Cl
ATOM     13  H   UNL     1       6.478  -7.029   1.254  0.00  0.00    +0.169 HD
ENDROOT
BRANCH   2  14
ATOM     14  C   UNL     1       5.545  -5.564   6.240  0.00  0.00    -0.016 A 
ATOM     15  C   UNL     1       5.620  -4.218   6.604  0.00  0.00    +0.008 A 
ATOM     16  C   UNL     1       5.381  -3.845   7.910  0.00  0.00    +0.001 A 
ATOM     17  C   UNL     1       5.068  -4.802   8.860  0.00  0.00    +0.000 A 
ATOM     18  C   UNL     1       4.992  -6.138   8.506  0.00  0.00    +0.001 A 
ATOM     19  C   UNL     1       5.222  -6.524   7.202  0.00  0.00    +0.008 A 
ENDBRANCH   2  14
BRANCH   1  22
ATOM     20  C   UNL     1       2.163  -2.983   4.306  0.00  0.00    +0.153 C 
ATOM     21  C   UNL     1       3.579  -3.321   3.800  0.00  0.00    +0.088 C 
ATOM     22  C   UNL     1       3.736  -4.792   4.111  0.00  0.00    +0.076 C 
ATOM     23  N   UNL     1       2.659  -5.231   4.672  0.00  0.00    -0.167 NA
ATOM     24  N   UNL     1       1.668  -4.261   4.840  0.00  0.00    -0.120 N 
BRANCH  20  28
ATOM     25  C   UNL     1      -0.304  -1.647   1.082  0.00  0.00    +0.120 A 
ATOM     26  C   UNL     1       0.240  -0.728   1.967  0.00  0.00    +0.046 A 
ATOM     27  C   UNL     1       1.037  -1.162   3.009  0.00  0.00    +0.009 A 
ATOM     28  C   UNL     1       1.293  -2.511   3.169  0.00  0.00    -0.023 A 
ATOM     29  C   UNL     1       0.752  -3.429   2.287  0.00  0.00    +0.009 A 
ATOM     30  C   UNL     1      -0.050  -3.000   1.248  0.00  0.00    +0.046 A 
BRANCH  25  32
ATOM     31  C   UNL     1      -1.306   0.186  -0.053  0.00  0.00    +0.277 C 
ATOM     32  O   UNL     1      -1.088  -1.222   0.057  0.00  0.00    -0.495 OA
ENDBRANCH  25  32
ENDBRANCH  20  28
BRANCH  24  33
ATOM     33  S   UNL     1       0.182  -4.507   5.527  0.00  0.00    +0.057 S 
ATOM     34  O   UNL     1       0.392  -5.531   6.490  0.00  0.00    -0.154 OA
ATOM     35  O   UNL     1      -0.251  -3.214   5.928  0.00  0.00    -0.154 OA
ATOM     36  C   UNL     1      -0.860  -5.124   4.177  0.00  0.00    +0.220 C 
ENDBRANCH  24  33
ENDBRANCH   1  22
TORSDOF 5
