REMARK  Name = ZINC27240382
REMARK  12 active torsions:
REMARK  status: ('A' for Active; 'I' for Inactive)
REMARK    1  A    between atoms: C_1  and  C_2
REMARK    2  A    between atoms: C_2  and  O_3
REMARK    3  A    between atoms: O_3  and  C_4
REMARK    4  A    between atoms: C_7  and  C_10
REMARK    5  A    between atoms: C_10  and  C_11
REMARK    6  A    between atoms: C_10  and  C_14
REMARK    7  A    between atoms: C_10  and  O_31
REMARK    8  A    between atoms: C_11  and  C_12
REMARK    9  A    between atoms: C_14  and  C_16
REMARK   10  A    between atoms: C_14  and  O_22
REMARK   11  A    between atoms: C_16  and  N_17
REMARK   12  A    between atoms: O_22  and  C_23
REMARK                            x       y       z     vdW  Elec       q    Type
REMARK                         _______ _______ _______ _____ _____    ______ ____
ROOT
ATOM      1  C   UNL     1      -1.708   3.268  -2.099  0.00  0.00    +0.193 C 
ENDROOT
BRANCH   1   2
ATOM      2  C   UNL     1      -2.679   4.009  -1.178  0.00  0.00    +0.129 C 
BRANCH   2   6
ATOM      3  C   UNL     1      -1.732   8.176  -1.163  0.00  0.00    +0.121 A 
ATOM      4  C   UNL     1      -3.041   7.760  -0.965  0.00  0.00    +0.046 A 
ATOM      5  C   UNL     1      -3.345   6.412  -0.970  0.00  0.00    +0.010 A 
ATOM      6  C   UNL     1      -2.345   5.478  -1.173  0.00  0.00    -0.012 A 
ATOM      7  C   UNL     1      -1.039   5.890  -1.364  0.00  0.00    +0.010 A 
ATOM      8  C   UNL     1      -0.732   7.237  -1.365  0.00  0.00    +0.046 A 
BRANCH   3   9
ATOM      9  O   UNL     1      -1.431   9.501  -1.157  0.00  0.00    -0.492 OA
BRANCH   9  11
ATOM     10  C   UNL     1       0.081  11.379  -1.327  0.00  0.00    +0.048 C 
ATOM     11  C   UNL     1      -0.063   9.856  -1.367  0.00  0.00    +0.225 C 
ENDBRANCH   9  11
ENDBRANCH   3   9
ENDBRANCH   2   6
BRANCH   2  12
ATOM     12  O   UNL     1      -4.016   3.825  -1.649  0.00  0.00    -0.380 OA
ATOM     13  H   UNL     1      -4.439   2.813  -1.723  0.00  0.00    +0.211 HD
ENDBRANCH   2  12
BRANCH   2  14
ATOM     14  C   UNL     1      -2.559   3.453   0.243  0.00  0.00    +0.070 C 
BRANCH  14  15
ATOM     15  C   UNL     1      -3.011   2.016   0.260  0.00  0.00    -0.031 C 
ATOM     16  C   UNL     1      -2.237   1.092   0.774  0.00  0.00    +0.004 C 
ENDBRANCH  14  15
ENDBRANCH   2  14
ENDBRANCH   1   2
BRANCH   1  17
ATOM     17  C   UNL     1      -1.826   3.825  -3.519  0.00  0.00    -0.030 C 
BRANCH  17  18
ATOM     18  N   UNL     1      -0.749   3.275  -4.352  0.00  0.00    +0.382 N 
ATOM     19  C   UNL     1      -0.845   1.795  -4.437  0.00  0.00    -0.079 C 
ATOM     20  C   UNL     1      -0.025   1.459  -5.709  0.00  0.00    -0.020 C 
ATOM     21  C   UNL     1      -0.372   2.627  -6.661  0.00  0.00    -0.020 C 
ATOM     22  C   UNL     1      -0.851   3.766  -5.743  0.00  0.00    -0.079 C 
ATOM     23  H   UNL     1       0.191   3.598  -3.879  0.00  0.00    -0.082 HD
ENDBRANCH  17  18
ENDBRANCH   1  17
BRANCH   1  24
ATOM     24  O   UNL     1      -2.026   1.875  -2.106  0.00  0.00    -0.486 OA
BRANCH  24  25
ATOM     25  C   UNL     1      -1.055   1.018  -1.692  0.00  0.00    +0.139 A 
ATOM     26  C   UNL     1       0.191   1.505  -1.326  0.00  0.00    +0.048 A 
ATOM     27  C   UNL     1       1.175   0.633  -0.901  0.00  0.00    +0.023 A 
ATOM     28  C   UNL     1       0.921  -0.727  -0.850  0.00  0.00    +0.043 A 
ATOM     29  C   UNL     1      -0.319  -1.215  -1.219  0.00  0.00    +0.043 A 
ATOM     30  C   UNL     1      -1.308  -0.346  -1.640  0.00  0.00    +0.084 A 
ATOM     31 CL   UNL     1      -2.864  -0.959  -2.104  0.00  0.00    -0.080 Cl
ATOM     32 CL   UNL     1       2.162  -1.820  -0.322  0.00  0.00    -0.083 Cl
ENDBRANCH  24  25
ENDBRANCH   1  24
TORSDOF 11
