REMARK  Name = ZINC43675653
REMARK  9 active torsions:
REMARK  status: ('A' for Active; 'I' for Inactive)
REMARK    1  A    between atoms: C_1  and  C_2
REMARK    2  A    between atoms: C_2  and  N_3
REMARK    3  A    between atoms: N_3  and  C_4
REMARK    4  A    between atoms: N_3  and  C_11
REMARK    5  A    between atoms: C_4  and  C_5
REMARK    6  A    between atoms: C_11  and  C_12
REMARK    7  A    between atoms: C_12  and  C_14
REMARK    8  A    between atoms: C_12  and  C_15
REMARK    9  A    between atoms: N_16  and  O_17
REMARK                            x       y       z     vdW  Elec       q    Type
REMARK                         _______ _______ _______ _____ _____    ______ ____
ROOT
ATOM      1  N   UNL     1       0.578  -0.458  -1.267  0.00  0.00    +0.383 N 
ATOM      2  H   UNL     1       0.122   0.072  -1.994  0.00  0.00    -0.081 HD
ENDROOT
BRANCH   1   4
ATOM      3  C   UNL     1       0.122   1.438   0.215  0.00  0.00    -0.017 C 
ATOM      4  C   UNL     1       0.021  -0.079   0.038  0.00  0.00    -0.082 C 
ENDBRANCH   1   4
BRANCH   1   5
ATOM      5  C   UNL     1       2.019  -0.176  -1.285  0.00  0.00    -0.034 C 
BRANCH   5   6
ATOM      6  C   UNL     1       2.565  -0.436  -2.666  0.00  0.00    -0.013 A 
ATOM      7  C   UNL     1       2.582   0.385  -3.745  0.00  0.00    +0.026 A 
ATOM      8  C   UNL     1       3.142  -0.071  -4.924  0.00  0.00    +0.023 A 
ATOM      9  C   UNL     1       3.657  -1.324  -4.966  0.00  0.00    +0.046 A 
ATOM     10  S   UNL     1       3.363  -1.900  -3.302  0.00  0.00    -0.102 S 
ATOM     11 BR   UNL     1       1.850   2.125  -3.640  0.00  0.00    -0.050 Br
ENDBRANCH   5   6
ENDBRANCH   1   5
BRANCH   1  12
ATOM     12  C   UNL     1       0.357  -1.893  -1.495  0.00  0.00    -0.068 C 
BRANCH  12  13
ATOM     13  C   UNL     1      -1.145  -2.167  -1.601  0.00  0.00    +0.036 C 
ATOM     14  C   UNL     1      -1.705  -1.469  -2.841  0.00  0.00    +0.013 C 
BRANCH  13  15
ATOM     15  C   UNL     1      -1.377  -3.652  -1.712  0.00  0.00    +0.133 C 
ATOM     16  N   UNL     1      -1.509  -4.200  -2.874  0.00  0.00    -0.077 NA
ATOM     17  N   UNL     1      -1.450  -4.424  -0.574  0.00  0.00    -0.344 N 
ATOM     18  H   UNL     1      -1.352  -4.013   0.299  0.00  0.00    +0.144 HD
ATOM     19  H   UNL     1      -1.600  -5.380  -0.645  0.00  0.00    +0.144 HD
BRANCH  16  20
ATOM     20  O   UNL     1      -1.727  -5.595  -2.978  0.00  0.00    -0.408 OA
ATOM     21  H   UNL     1      -1.813  -5.913  -3.888  0.00  0.00    +0.328 HD
ENDBRANCH  16  20
ENDBRANCH  13  15
ENDBRANCH  12  13
ENDBRANCH   1  12
TORSDOF 7
