REMARK  Name = ZINC09706013
REMARK  15 active torsions:
REMARK  status: ('A' for Active; 'I' for Inactive)
REMARK    1  A    between atoms: C_1  and  C_2
REMARK    2  A    between atoms: C_2  and  N_69
REMARK    3  A    between atoms: C_3  and  C_4
REMARK    4  A    between atoms: C_3  and  N_69
REMARK    5  A    between atoms: C_5  and  C_6
REMARK    6  A    between atoms: C_5  and  N_69
REMARK    7  A    between atoms: C_6  and  C_7
REMARK    8  A    between atoms: C_7  and  C_8
REMARK    9  A    between atoms: C_8  and  C_10
REMARK   10  A    between atoms: C_8  and  N_11
REMARK   11  A    between atoms: C_12  and  C_14
REMARK   12  A    between atoms: N_16  and  C_17
REMARK   13  A    between atoms: C_25  and  C_26
REMARK   14  A    between atoms: N_28  and  C_29
REMARK   15  A    between atoms: C_32  and  C_35
REMARK                            x       y       z     vdW  Elec       q    Type
REMARK                         _______ _______ _______ _____ _____    ______ ____
ROOT
ATOM      1  C   UNL     1      -1.634  -1.887   0.157  0.00  0.00    +0.093 A 
ATOM      2  C   UNL     1      -1.905  -0.607   0.823  0.00  0.00    +0.042 A 
ATOM      3  C   UNL     1      -1.224   0.158   1.770  0.00  0.00    +0.013 A 
ATOM      4  C   UNL     1      -1.760   1.340   2.199  0.00  0.00    +0.001 A 
ATOM      5  C   UNL     1      -2.976   1.783   1.699  0.00  0.00    +0.004 A 
ATOM      6  C   UNL     1      -3.664   1.042   0.762  0.00  0.00    +0.047 A 
ATOM      7  C   UNL     1      -3.138  -0.164   0.311  0.00  0.00    +0.138 A 
ATOM      8  O   UNL     1      -3.568  -1.079  -0.579  0.00  0.00    -0.448 OA
ATOM      9  C   UNL     1      -2.695  -2.106  -0.680  0.00  0.00    +0.212 A 
ENDROOT
BRANCH   1  12
ATOM     10  C   UNL     1       0.683  -2.162   0.567  0.00  0.00    +0.303 C 
ATOM     11  O   UNL     1       0.792  -0.962   0.715  0.00  0.00    -0.265 OA
ATOM     12  N   UNL     1      -0.528  -2.706   0.338  0.00  0.00    -0.274 N 
ATOM     13  H   UNL     1      -0.627  -3.670   0.299  0.00  0.00    +0.155 HD
BRANCH  10  15
ATOM     14  N   UNL     1       3.104  -2.491   0.868  0.00  0.00    -0.305 N 
ATOM     15  C   UNL     1       1.893  -3.035   0.638  0.00  0.00    +0.300 C 
ATOM     16  O   UNL     1       1.785  -4.235   0.490  0.00  0.00    -0.265 OA
ATOM     17  H   UNL     1       3.191  -1.532   0.986  0.00  0.00    +0.149 HD
BRANCH  14  18
ATOM     18  C   UNL     1       4.291  -3.348   0.938  0.00  0.00    +0.070 C 
ATOM     19  C   UNL     1       4.435  -3.904   2.355  0.00  0.00    +0.028 C 
BRANCH  18  20
ATOM     20  C   UNL     1       5.533  -2.528   0.583  0.00  0.00    +0.020 C 
BRANCH  20  21
ATOM     21  C   UNL     1       5.446  -2.076  -0.876  0.00  0.00    -0.017 C 
BRANCH  21  22
ATOM     22  C   UNL     1       6.688  -1.256  -1.232  0.00  0.00    -0.079 C 
BRANCH  22  23
ATOM     23  N   UNL     1       6.599  -0.845  -2.648  0.00  0.00    +0.379 N 
ATOM     24  H   UNL     1       6.412  -1.674  -3.225  0.00  0.00    -0.082 HD
BRANCH  23  26
ATOM     25  C   UNL     1       5.779   1.407  -2.044  0.00  0.00    -0.017 C 
ATOM     26  C   UNL     1       5.496   0.122  -2.825  0.00  0.00    -0.082 C 
ENDBRANCH  23  26
BRANCH  23  27
ATOM     27  C   UNL     1       7.877  -0.239  -3.080  0.00  0.00    -0.082 C 
ATOM     28  C   UNL     1       7.800   0.065  -4.577  0.00  0.00    -0.017 C 
ENDBRANCH  23  27
ENDBRANCH  22  23
ENDBRANCH  21  22
ENDBRANCH  20  21
ENDBRANCH  18  20
ENDBRANCH  14  18
ENDBRANCH  10  15
ENDBRANCH   1  12
BRANCH   9  29
ATOM     29  C   UNL     1      -2.856  -3.268  -1.551  0.00  0.00    +0.285 C 
ATOM     30  O   UNL     1      -2.051  -4.181  -1.504  0.00  0.00    -0.266 OA
ATOM     31  N   UNL     1      -3.894  -3.330  -2.408  0.00  0.00    -0.279 N 
ATOM     32  H   UNL     1      -4.574  -2.637  -2.397  0.00  0.00    +0.155 HD
BRANCH  31  33
ATOM     33  C   UNL     1      -3.996  -4.394  -3.309  0.00  0.00    +0.034 A 
ATOM     34  C   UNL     1      -2.849  -5.033  -3.763  0.00  0.00    +0.023 A 
ATOM     35  C   UNL     1      -2.953  -6.087  -4.649  0.00  0.00    +0.005 A 
ATOM     36  C   UNL     1      -4.196  -6.499  -5.094  0.00  0.00    -0.050 A 
ATOM     37  C   UNL     1      -5.339  -5.862  -4.648  0.00  0.00    +0.005 A 
ATOM     38  C   UNL     1      -5.243  -4.810  -3.757  0.00  0.00    +0.023 A 
ATOM     39  C   UNL     1      -4.305  -7.646  -6.066  0.00  0.00    +0.044 C 
ENDBRANCH  31  33
ENDBRANCH   9  29
TORSDOF 11
