REMARK  Name = ZINC06301897
REMARK  7 active torsions:
REMARK  status: ('A' for Active; 'I' for Inactive)
REMARK    1  A    between atoms: C_1  and  C_2
REMARK    2  A    between atoms: C_4  and  C_38
REMARK    3  A    between atoms: C_7  and  C_14
REMARK    4  A    between atoms: C_14  and  C_16
REMARK    5  A    between atoms: C_14  and  N_74
REMARK    6  A    between atoms: N_20  and  C_21
REMARK    7  A    between atoms: C_21  and  C_22
REMARK                            x       y       z     vdW  Elec       q    Type
REMARK                         _______ _______ _______ _____ _____    ______ ____
ROOT
ATOM      1  C   UNL     1       1.817  -1.796  -0.025  0.00  0.00    +0.039 C 
ENDROOT
BRANCH   1   8
ATOM      2  C   UNL     1       3.279  -4.114  -7.515  0.00  0.00    +0.044 C 
ATOM      3  C   UNL     1       2.823  -3.825  -6.108  0.00  0.00    -0.048 A 
ATOM      4  C   UNL     1       1.713  -4.484  -5.597  0.00  0.00    +0.007 A 
ATOM      5  C   UNL     1       1.283  -4.237  -4.324  0.00  0.00    -0.041 A 
ATOM      6  C   UNL     1       1.968  -3.312  -3.528  0.00  0.00    +0.002 A 
ATOM      7  C   UNL     1       1.534  -3.023  -2.160  0.00  0.00    +0.018 A 
ATOM      8  C   UNL     1       2.236  -2.117  -1.436  0.00  0.00    +0.011 A 
ATOM      9  C   UNL     1       3.355  -1.468  -2.001  0.00  0.00    +0.251 A 
ATOM     10  O   UNL     1       3.969  -0.653  -1.335  0.00  0.00    -0.268 OA
ATOM     11  N   UNL     1       3.764  -1.731  -3.255  0.00  0.00    -0.322 N 
ATOM     12  H   UNL     1       4.540  -1.271  -3.611  0.00  0.00    +0.169 HD
ATOM     13  C   UNL     1       3.094  -2.642  -4.043  0.00  0.00    +0.050 A 
ATOM     14  C   UNL     1       3.513  -2.911  -5.342  0.00  0.00    +0.029 A 
ATOM     15  C   UNL     1       0.077  -4.957  -3.780  0.00  0.00    +0.044 C 
ENDBRANCH   1   8
BRANCH   1  26
ATOM     16  C   UNL     1       3.415  -3.376   0.875  0.00  0.00    -0.077 C 
ATOM     17  C   UNL     1       4.690  -3.502   1.712  0.00  0.00    -0.018 C 
ATOM     18  C   UNL     1       4.402  -3.043   3.144  0.00  0.00    +0.003 C 
ATOM     19  C   UNL     1       3.884  -1.603   3.116  0.00  0.00    -0.044 C 
ATOM     20  C   UNL     1       2.632  -1.532   2.240  0.00  0.00    -0.071 C 
ATOM     21  C   UNL     1       4.964  -0.685   2.540  0.00  0.00    +0.005 C 
ATOM     22  C   UNL     1       6.217  -0.760   3.415  0.00  0.00    +0.000 C 
ATOM     23  C   UNL     1       5.873  -0.313   4.837  0.00  0.00    +0.000 C 
ATOM     24  C   UNL     1       4.793  -1.232   5.413  0.00  0.00    +0.000 C 
ATOM     25  C   UNL     1       3.540  -1.157   4.538  0.00  0.00    +0.005 C 
ATOM     26  N   UNL     1       2.982  -1.962   0.869  0.00  0.00    +0.390 N 
ATOM     27  H   UNL     1       3.753  -1.379   0.524  0.00  0.00    -0.080 HD
ENDBRANCH   1  26
BRANCH   1  28
ATOM     28  C   UNL     1       1.345  -0.367   0.047  0.00  0.00    +0.143 A 
ATOM     29  N   UNL     1       2.098   0.705   0.086  0.00  0.00    -0.115 NA
ATOM     30  N   UNL     1       1.324   1.734   0.143  0.00  0.00    -0.023 NA
ATOM     31  N   UNL     1       0.096   1.345   0.141  0.00  0.00    -0.044 NA
ATOM     32  N   UNL     1       0.068   0.057   0.083  0.00  0.00    -0.228 N 
BRANCH  32  33
ATOM     33  C   UNL     1      -1.130  -0.786   0.059  0.00  0.00    +0.178 C 
BRANCH  33  34
ATOM     34  C   UNL     1      -1.565  -1.014  -1.390  0.00  0.00    +0.140 C 
ATOM     35  C   UNL     1      -2.800  -1.950  -1.440  0.00  0.00    +0.035 C 
ATOM     36  C   UNL     1      -3.430  -1.533  -2.797  0.00  0.00    +0.031 C 
ATOM     37  C   UNL     1      -3.110  -0.024  -2.857  0.00  0.00    +0.160 C 
ATOM     38  O   UNL     1      -2.006   0.220  -1.978  0.00  0.00    -0.375 OA
ENDBRANCH  33  34
ENDBRANCH  32  33
ENDBRANCH   1  28
TORSDOF 5
