REMARK  Name = ZINC63619688
REMARK  8 active torsions:
REMARK  status: ('A' for Active; 'I' for Inactive)
REMARK    1  A    between atoms: C_1  and  C_2
REMARK    2  A    between atoms: C_2  and  O_3
REMARK    3  A    between atoms: O_3  and  C_4
REMARK    4  A    between atoms: C_7  and  C_10
REMARK    5  A    between atoms: C_14  and  S_17
REMARK    6  A    between atoms: N_15  and  N_16
REMARK    7  A    between atoms: S_17  and  C_18
REMARK    8  A    between atoms: C_18  and  C_19
REMARK                            x       y       z     vdW  Elec       q    Type
REMARK                         _______ _______ _______ _____ _____    ______ ____
ROOT
ATOM      1  C   UNL     1      -2.001  -6.092  -0.011  0.00  0.00    +0.223 C 
ATOM      2  N   UNL     1      -0.921  -6.737  -0.778  0.00  0.00    -0.241 N 
ATOM      3  N   UNL     1      -1.543  -7.404  -1.841  0.00  0.00    -0.161 NA
ATOM      4  C   UNL     1      -2.823  -7.247  -1.813  0.00  0.00    +0.189 C 
ATOM      5  N   UNL     1      -3.227  -6.464  -0.737  0.00  0.00    -0.221 N 
ATOM      6  H   UNL     1       0.029  -6.706  -0.586  0.00  0.00    +0.171 HD
ENDROOT
BRANCH   1  10
ATOM      7  C   UNL     1      -1.498  -1.848   0.006  0.00  0.00    +0.121 A 
ATOM      8  C   UNL     1      -0.388  -2.679  -0.003  0.00  0.00    +0.046 A 
ATOM      9  C   UNL     1      -0.553  -4.051  -0.008  0.00  0.00    +0.011 A 
ATOM     10  C   UNL     1      -1.823  -4.596  -0.005  0.00  0.00    -0.007 A 
ATOM     11  C   UNL     1      -2.932  -3.769   0.004  0.00  0.00    +0.011 A 
ATOM     12  C   UNL     1      -2.772  -2.397   0.016  0.00  0.00    +0.046 A 
BRANCH   7  13
ATOM     13  O   UNL     1      -1.339  -0.499   0.012  0.00  0.00    -0.492 OA
BRANCH  13  15
ATOM     14  C   UNL     1      -0.019   1.526   0.010  0.00  0.00    +0.048 C 
ATOM     15  C   UNL     1       0.002  -0.004   0.002  0.00  0.00    +0.225 C 
ENDBRANCH  13  15
ENDBRANCH   7  13
ENDBRANCH   1  10
BRANCH   5  16
ATOM     16  N   UNL     1      -4.506  -6.108  -0.417  0.00  0.00    -0.250 NA
ATOM     17  H   UNL     1      -5.165  -6.494  -1.076  0.00  0.00    +0.141 HD
ATOM     18  H   UNL     1      -4.733  -6.387   0.526  0.00  0.00    +0.141 HD
ENDBRANCH   5  16
BRANCH   4  19
ATOM     19  S   UNL     1      -3.929  -7.944  -2.994  0.00  0.00    -0.084 S 
BRANCH  19  20
ATOM     20  C   UNL     1      -2.843  -8.847  -4.133  0.00  0.00    +0.124 C 
BRANCH  20  21
ATOM     21  C   UNL     1      -3.686  -9.510  -5.224  0.00  0.00    +0.184 C 
ATOM     22  N   UNL     1      -4.486  -8.499  -5.927  0.00  0.00    -0.363 N 
ATOM     23  C   UNL     1      -5.739  -8.807  -5.758  0.00  0.00    +0.060 A 
ATOM     24  C   UNL     1      -6.991  -8.185  -6.213  0.00  0.00    +0.027 A 
ATOM     25  C   UNL     1      -8.171  -8.741  -5.875  0.00  0.00    +0.002 A 
ATOM     26  C   UNL     1      -8.264  -9.907  -5.094  0.00  0.00    +0.002 A 
ATOM     27  C   UNL     1      -7.179 -10.556  -4.625  0.00  0.00    +0.027 A 
ATOM     28  C   UNL     1      -5.838 -10.041  -4.932  0.00  0.00    +0.060 A 
ATOM     29  N   UNL     1      -4.641 -10.449  -4.622  0.00  0.00    -0.363 N 
ATOM     30  H   UNL     1      -4.143  -7.741  -6.425  0.00  0.00    +0.162 HD
ATOM     31  H   UNL     1      -4.421 -11.231  -4.091  0.00  0.00    +0.162 HD
ENDBRANCH  20  21
ENDBRANCH  19  20
ENDBRANCH   4  19
TORSDOF 7
