REMARK  Name = ZINC59016976
REMARK  6 active torsions:
REMARK  status: ('A' for Active; 'I' for Inactive)
REMARK    1  A    between atoms: C_3  and  O_26
REMARK    2  A    between atoms: C_4  and  C_8
REMARK    3  A    between atoms: N_9  and  N_10
REMARK    4  A    between atoms: C_13  and  S_16
REMARK    5  A    between atoms: S_16  and  C_17
REMARK    6  A    between atoms: C_17  and  C_18
REMARK                            x       y       z     vdW  Elec       q    Type
REMARK                         _______ _______ _______ _____ _____    ______ ____
ROOT
ATOM      1  N   UNL     1       6.030  -0.708  -0.060  0.00  0.00    -0.205 N 
ATOM      2  C   UNL     1       7.217   0.001  -0.069  0.00  0.00    +0.232 A 
ATOM      3  N   UNL     1       7.336   1.312  -0.057  0.00  0.00    -0.186 NA
ATOM      4  C   UNL     1       8.631   1.646  -0.069  0.00  0.00    +0.211 A 
ATOM      5  N   UNL     1       9.354   0.551  -0.089  0.00  0.00    -0.144 NA
ATOM      6  N   UNL     1       8.458  -0.531  -0.084  0.00  0.00    -0.245 N 
ATOM      7  H   UNL     1       6.044  -1.678  -0.066  0.00  0.00    +0.177 HD
ATOM      8  H   UNL     1       8.686  -1.473  -0.091  0.00  0.00    +0.192 HD
ENDROOT
BRANCH   1  10
ATOM      9  C   UNL     1       3.692  -0.690  -0.037  0.00  0.00    +0.142 C 
ATOM     10  N   UNL     1       4.807  -0.025  -0.045  0.00  0.00    -0.187 NA
BRANCH   9  14
ATOM     11  C   UNL     1      -0.017   1.381   0.010  0.00  0.00    +0.019 A 
ATOM     12  C   UNL     1       1.167   2.096   0.002  0.00  0.00    +0.047 A 
ATOM     13  C   UNL     1       2.381   1.430  -0.013  0.00  0.00    +0.126 A 
ATOM     14  C   UNL     1       2.405   0.028  -0.021  0.00  0.00    +0.037 A 
ATOM     15  C   UNL     1       1.204  -0.683  -0.013  0.00  0.00    +0.028 A 
ATOM     16  C   UNL     1       0.002  -0.004   0.002  0.00  0.00    +0.019 A 
ATOM     17 BR   UNL     1      -1.625  -0.968   0.013  0.00  0.00    -0.050 Br
BRANCH  13  18
ATOM     18  O   UNL     1       3.543   2.132  -0.021  0.00  0.00    -0.506 OA
ATOM     19  H   UNL     1       3.889   2.331   0.860  0.00  0.00    +0.292 HD
ENDBRANCH  13  18
ENDBRANCH   9  14
ENDBRANCH   1  10
BRANCH   4  20
ATOM     20  S   UNL     1       9.264   3.290  -0.061  0.00  0.00    -0.075 S 
BRANCH  20  21
ATOM     21  C   UNL     1      11.064   3.067  -0.085  0.00  0.00    +0.173 C 
BRANCH  21  22
ATOM     22  C   UNL     1      11.737   4.416  -0.080  0.00  0.00    +0.229 C 
ATOM     23  O   UNL     1      11.069   5.427  -0.062  0.00  0.00    -0.275 OA
ATOM     24  N   UNL     1      13.082   4.498  -0.095  0.00  0.00    -0.264 N 
ATOM     25  C   UNL     1      13.703   5.741  -0.091  0.00  0.00    +0.164 A 
ATOM     26  N   UNL     1      13.146   6.933  -0.067  0.00  0.00    -0.233 NA
ATOM     27  C   UNL     1      13.881   8.030  -0.066  0.00  0.00    +0.120 A 
ATOM     28  C   UNL     1      15.227   7.869  -0.091  0.00  0.00    +0.068 A 
ATOM     29  S   UNL     1      15.350   6.088  -0.107  0.00  0.00    -0.061 S 
ATOM     30  H   UNL     1      13.617   3.688  -0.109  0.00  0.00    +0.157 HD
ENDBRANCH  21  22
ENDBRANCH  20  21
ENDBRANCH   4  20
TORSDOF 6
