REMARK  Name = ZINC02837615
REMARK  11 active torsions:
REMARK  status: ('A' for Active; 'I' for Inactive)
REMARK    1  A    between atoms: C_1  and  O_2
REMARK    2  A    between atoms: O_2  and  C_3
REMARK    3  A    between atoms: C_6  and  N_11
REMARK    4  A    between atoms: C_7  and  O_9
REMARK    5  A    between atoms: O_9  and  C_10
REMARK    6  A    between atoms: C_12  and  C_14
REMARK    7  A    between atoms: C_18  and  N_19
REMARK    8  A    between atoms: C_20  and  C_22
REMARK    9  A    between atoms: C_22  and  N_23
REMARK   10  A    between atoms: N_23  and  C_24
REMARK   11  A    between atoms: C_24  and  C_25
REMARK                            x       y       z     vdW  Elec       q    Type
REMARK                         _______ _______ _______ _____ _____    ______ ____
ROOT
ATOM      1  C   UNL     1      -7.325  -2.542   0.266  0.00  0.00    +0.069 A 
ATOM      2  C   UNL     1      -7.880  -2.898   1.571  0.00  0.00    -0.023 A 
ATOM      3  C   UNL     1      -9.070  -3.522   1.510  0.00  0.00    -0.004 A 
ATOM      4  S   UNL     1      -9.432  -3.626  -0.225  0.00  0.00    -0.077 S 
ATOM      5  C   UNL     1      -8.071  -2.872  -0.851  0.00  0.00    +0.084 A 
ATOM      6  C   UNL     1      -9.592  -3.870   2.877  0.00  0.00    +0.043 C 
ATOM      7  C   UNL     1      -8.361  -3.759   3.805  0.00  0.00    +0.010 C 
ATOM      8  C   UNL     1      -7.478  -2.755   3.037  0.00  0.00    +0.037 C 
ENDROOT
BRANCH   1  10
ATOM      9  N   UNL     1      -4.899  -2.575   0.035  0.00  0.00    -0.278 N 
ATOM     10  C   UNL     1      -6.034  -1.857   0.146  0.00  0.00    +0.251 C 
ATOM     11  O   UNL     1      -5.988  -0.641   0.147  0.00  0.00    -0.270 OA
ATOM     12  H   UNL     1      -4.941  -3.541  -0.047  0.00  0.00    +0.155 HD
BRANCH   9  16
ATOM     13  C   UNL     1      -1.199  -0.641   0.044  0.00  0.00    +0.124 A 
ATOM     14  C   UNL     1      -2.296  -0.046   0.648  0.00  0.00    +0.047 A 
ATOM     15  C   UNL     1      -3.521  -0.686   0.645  0.00  0.00    +0.030 A 
ATOM     16  C   UNL     1      -3.656  -1.925   0.037  0.00  0.00    +0.076 A 
ATOM     17  C   UNL     1      -2.555  -2.524  -0.570  0.00  0.00    +0.145 A 
ATOM     18  C   UNL     1      -1.330  -1.878  -0.571  0.00  0.00    +0.093 A 
BRANCH  13  20
ATOM     19  C   UNL     1       0.068   1.262   0.699  0.00  0.00    +0.277 C 
ATOM     20  O   UNL     1       0.005  -0.009   0.048  0.00  0.00    -0.495 OA
ENDBRANCH  13  20
BRANCH  17  21
ATOM     21  O   UNL     1      -2.684  -3.739  -1.167  0.00  0.00    -0.493 OA
ATOM     22  C   UNL     1      -1.513  -4.293  -1.770  0.00  0.00    +0.277 C 
ENDBRANCH  17  21
ENDBRANCH   9  16
ENDBRANCH   1  10
BRANCH   5  23
ATOM     23  N   UNL     1      -7.763  -2.637  -2.182  0.00  0.00    -0.281 N 
ATOM     24  C   UNL     1      -8.614  -3.030  -3.150  0.00  0.00    +0.201 C 
ATOM     25  O   UNL     1      -9.649  -3.591  -2.857  0.00  0.00    -0.278 OA
ATOM     26  H   UNL     1      -6.935  -2.188  -2.416  0.00  0.00    +0.155 HD
BRANCH  24  27
ATOM     27  C   UNL     1      -8.279  -2.774  -4.597  0.00  0.00    +0.016 C 
BRANCH  27  28
ATOM     28  N   UNL     1      -9.357  -3.294  -5.449  0.00  0.00    +0.387 N 
ATOM     29  H   UNL     1      -9.457  -4.287  -5.297  0.00  0.00    -0.085 HD
ATOM     30  H   UNL     1     -10.222  -2.830  -5.217  0.00  0.00    -0.085 HD
BRANCH  28  31
ATOM     31  C   UNL     1      -9.031  -3.044  -6.859  0.00  0.00    -0.055 C 
BRANCH  31  32
ATOM     32  C   UNL     1     -10.137  -3.578  -7.733  0.00  0.00    -0.054 C 
ATOM     33  C   UNL     1     -10.727  -2.789  -8.596  0.00  0.00    +0.002 C 
ENDBRANCH  31  32
ENDBRANCH  28  31
ENDBRANCH  27  28
ENDBRANCH  24  27
ENDBRANCH   5  23
TORSDOF 9
