REMARK  Name = ZINC08686872
REMARK  5 active torsions:
REMARK  status: ('A' for Active; 'I' for Inactive)
REMARK    1  A    between atoms: C_4  and  C_7
REMARK    2  A    between atoms: C_7  and  N_8
REMARK    3  A    between atoms: N_16  and  N_17
REMARK    4  A    between atoms: N_17  and  C_18
REMARK    5  A    between atoms: C_18  and  N_20
REMARK                            x       y       z     vdW  Elec       q    Type
REMARK                         _______ _______ _______ _____ _____    ______ ____
ROOT
ATOM      1  N   UNL     1       4.152  -0.952   1.338  0.00  0.00    -0.261 N 
ATOM      2  C   UNL     1       4.944  -0.078   2.074  0.00  0.00    +0.046 A 
ATOM      3  C   UNL     1       5.496   1.158   1.758  0.00  0.00    +0.024 A 
ATOM      4  C   UNL     1       6.260   1.834   2.687  0.00  0.00    +0.002 A 
ATOM      5  C   UNL     1       6.486   1.293   3.942  0.00  0.00    +0.001 A 
ATOM      6  C   UNL     1       5.947   0.067   4.274  0.00  0.00    +0.012 A 
ATOM      7  C   UNL     1       5.175  -0.621   3.344  0.00  0.00    +0.028 A 
ATOM      8  C   UNL     1       4.468  -1.923   3.377  0.00  0.00    +0.153 C 
ATOM      9  N   UNL     1       4.412  -2.776   4.372  0.00  0.00    -0.175 NA
ATOM     10  C   UNL     1       3.837  -2.048   2.050  0.00  0.00    +0.272 C 
ATOM     11  O   UNL     1       3.154  -2.980   1.666  0.00  0.00    -0.268 OA
ENDROOT
BRANCH   9  12
ATOM     12  N   UNL     1       3.692  -3.970   4.231  0.00  0.00    -0.218 N 
ATOM     13  H   UNL     1       3.236  -4.166   3.398  0.00  0.00    +0.176 HD
BRANCH  12  14
ATOM     14  C   UNL     1       3.635  -4.847   5.253  0.00  0.00    +0.147 C 
ATOM     15  S   UNL     1       2.755  -6.306   5.081  0.00  0.00    -0.017 S 
BRANCH  14  16
ATOM     16  N   UNL     1       4.269  -4.575   6.411  0.00  0.00    -0.339 N 
ATOM     17  H   UNL     1       4.767  -3.748   6.509  0.00  0.00    +0.144 HD
ATOM     18  H   UNL     1       4.227  -5.206   7.146  0.00  0.00    +0.144 HD
ENDBRANCH  14  16
ENDBRANCH  12  14
ENDBRANCH   9  12
BRANCH   1  19
ATOM     19  C   UNL     1       3.711  -0.707  -0.038  0.00  0.00    +0.149 C 
BRANCH  19  23
ATOM     20  C   UNL     1      -0.017   1.378   0.010  0.00  0.00    +0.000 A 
ATOM     21  C   UNL     1       1.171   2.086   0.002  0.00  0.00    +0.000 A 
ATOM     22  C   UNL     1       2.377   1.411  -0.013  0.00  0.00    +0.005 A 
ATOM     23  C   UNL     1       2.396   0.029  -0.020  0.00  0.00    -0.030 A 
ATOM     24  C   UNL     1       1.208  -0.679  -0.012  0.00  0.00    +0.005 A 
ATOM     25  C   UNL     1       0.002  -0.004   0.002  0.00  0.00    +0.000 A 
ENDBRANCH  19  23
ENDBRANCH   1  19
TORSDOF 5
