REMARK  Name = ZINC35797761
REMARK  8 active torsions:
REMARK  status: ('A' for Active; 'I' for Inactive)
REMARK    1  A    between atoms: C_1  and  S_2
REMARK    2  A    between atoms: S_2  and  N_5
REMARK    3  A    between atoms: N_5  and  C_6
REMARK    4  A    between atoms: C_6  and  C_7
REMARK    5  A    between atoms: C_7  and  N_8
REMARK    6  A    between atoms: N_8  and  C_9
REMARK    7  A    between atoms: C_9  and  C_10
REMARK    8  A    between atoms: N_12  and  C_13
REMARK                            x       y       z     vdW  Elec       q    Type
REMARK                         _______ _______ _______ _____ _____    ______ ____
ROOT
ATOM      1  C   UNL     1       4.772  -1.269  -4.023  0.00  0.00    +0.015 C 
ENDROOT
BRANCH   1   2
ATOM      2  C   UNL     1       6.223  -0.902  -4.202  0.00  0.00    +0.200 C 
ATOM      3  O   UNL     1       6.737  -0.085  -3.468  0.00  0.00    -0.278 OA
ATOM      4  N   UNL     1       6.949  -1.482  -5.178  0.00  0.00    -0.287 N 
ATOM      5  H   UNL     1       6.558  -2.184  -5.722  0.00  0.00    +0.155 HD
BRANCH   4   6
ATOM      6  C   UNL     1       8.268  -1.073  -5.407  0.00  0.00    +0.033 A 
ATOM      7  C   UNL     1       8.773  -1.044  -6.701  0.00  0.00    +0.024 A 
ATOM      8  C   UNL     1      10.074  -0.639  -6.924  0.00  0.00    +0.017 A 
ATOM      9  C   UNL     1      10.874  -0.262  -5.860  0.00  0.00    +0.018 A 
ATOM     10  C   UNL     1      10.374  -0.289  -4.571  0.00  0.00    +0.017 A 
ATOM     11  C   UNL     1       9.071  -0.688  -4.342  0.00  0.00    +0.024 A 
ATOM     12 BR   UNL     1      12.656   0.292  -6.170  0.00  0.00    -0.050 Br
ENDBRANCH   4   6
ENDBRANCH   1   2
BRANCH   1  13
ATOM     13  N   UNL     1       4.209  -0.505  -2.901  0.00  0.00    +0.386 N 
ATOM     14  H   UNL     1       4.285   0.482  -3.095  0.00  0.00    -0.085 HD
ATOM     15  H   UNL     1       4.718  -0.723  -2.057  0.00  0.00    -0.085 HD
BRANCH  13  16
ATOM     16  C   UNL     1       2.795  -0.862  -2.727  0.00  0.00    -0.065 C 
BRANCH  16  17
ATOM     17  C   UNL     1       2.209  -0.067  -1.559  0.00  0.00    +0.086 C 
BRANCH  17  18
ATOM     18  N   UNL     1       0.798  -0.423  -1.384  0.00  0.00    -0.197 NA
ATOM     19  H   UNL     1       0.328  -0.899  -2.087  0.00  0.00    +0.148 HD
BRANCH  18  21
ATOM     20  C   UNL     1      -0.027   1.800   0.012  0.00  0.00    +0.214 C 
ATOM     21  S   UNL     1       0.007  -0.013   0.011  0.00  0.00    +0.026 S 
ATOM     22  O   UNL     1       0.845  -0.488   1.056  0.00  0.00    -0.158 OA
ATOM     23  O   UNL     1      -1.308  -0.527  -0.153  0.00  0.00    -0.158 OA
ENDBRANCH  18  21
ENDBRANCH  17  18
ENDBRANCH  16  17
ENDBRANCH  13  16
ENDBRANCH   1  13
TORSDOF 7
