REMARK  Name = ZINC37243214
REMARK  16 active torsions:
REMARK  status: ('A' for Active; 'I' for Inactive)
REMARK    1  A    between atoms: C_1  and  C_2
REMARK    2  A    between atoms: C_2  and  C_3
REMARK    3  A    between atoms: C_3  and  C_4
REMARK    4  A    between atoms: C_4  and  C_5
REMARK    5  A    between atoms: C_5  and  C_7
REMARK    6  A    between atoms: C_5  and  C_9
REMARK    7  A    between atoms: C_7  and  C_8
REMARK    8  A    between atoms: C_9  and  N_10
REMARK    9  A    between atoms: C_11  and  C_13
REMARK   10  A    between atoms: C_13  and  N_14
REMARK   11  A    between atoms: C_17  and  O_36
REMARK   12  A    between atoms: C_24  and  C_26
REMARK   13  A    between atoms: C_29  and  O_34
REMARK   14  A    between atoms: C_31  and  O_32
REMARK   15  A    between atoms: O_32  and  C_33
REMARK   16  A    between atoms: O_34  and  C_35
REMARK                            x       y       z     vdW  Elec       q    Type
REMARK                         _______ _______ _______ _____ _____    ______ ____
ROOT
ATOM      1  N   UNL     1       3.550  -7.847  -4.995  0.00  0.00    +0.390 N 
ATOM      2  C   UNL     1       2.230  -8.472  -5.138  0.00  0.00    -0.075 C 
ATOM      3  C   UNL     1       2.361  -9.991  -5.001  0.00  0.00    +0.016 C 
ATOM      4  C   UNL     1       3.303 -10.514  -6.087  0.00  0.00    +0.066 C 
ATOM      5  C   UNL     1       3.488 -12.023  -5.931  0.00  0.00    +0.035 C 
ATOM      6  C   UNL     1       4.102 -12.328  -4.563  0.00  0.00    +0.003 C 
ATOM      7  C   UNL     1       5.461 -11.632  -4.452  0.00  0.00    +0.000 C 
ATOM      8  C   UNL     1       5.270 -10.121  -4.596  0.00  0.00    +0.005 C 
ATOM      9  C   UNL     1       4.655  -9.808  -5.962  0.00  0.00    +0.011 C 
ATOM     10  C   UNL     1       4.437  -8.295  -6.076  0.00  0.00    -0.028 C 
ATOM     11  H   UNL     1       3.949  -8.108  -4.106  0.00  0.00    -0.080 HD
ENDROOT
BRANCH  10  12
ATOM     12  C   UNL     1       5.762  -7.587  -5.966  0.00  0.00    -0.019 A 
ATOM     13  C   UNL     1       6.188  -7.106  -4.743  0.00  0.00    +0.009 A 
ATOM     14  C   UNL     1       7.403  -6.455  -4.639  0.00  0.00    +0.046 A 
ATOM     15  C   UNL     1       8.198  -6.283  -5.763  0.00  0.00    +0.124 A 
ATOM     16  C   UNL     1       7.772  -6.765  -6.992  0.00  0.00    +0.091 A 
ATOM     17  C   UNL     1       6.556  -7.422  -7.093  0.00  0.00    +0.125 A 
BRANCH  17  18
ATOM     18  O   UNL     1       6.138  -7.900  -8.294  0.00  0.00    -0.495 OA
ATOM     19  C   UNL     1       7.006  -7.695  -9.411  0.00  0.00    +0.277 C 
ENDBRANCH  17  18
BRANCH  15  20
ATOM     20  O   UNL     1       9.392  -5.643  -5.660  0.00  0.00    -0.495 OA
ATOM     21  C   UNL     1       9.767  -5.173  -4.364  0.00  0.00    +0.277 C 
ENDBRANCH  15  20
ENDBRANCH  10  12
BRANCH   4  22
ATOM     22  O   UNL     1       2.742 -10.242  -7.373  0.00  0.00    -0.388 OA
ATOM     23  H   UNL     1       1.879 -10.652  -7.521  0.00  0.00    +0.210 HD
ENDBRANCH   4  22
BRANCH   1  24
ATOM     24  C   UNL     1       3.407  -6.386  -5.056  0.00  0.00    +0.019 C 
BRANCH  24  26
ATOM     25  N   UNL     1       2.338  -4.598  -3.724  0.00  0.00    -0.317 N 
ATOM     26  C   UNL     1       2.599  -5.911  -3.877  0.00  0.00    +0.196 C 
ATOM     27  O   UNL     1       2.183  -6.710  -3.065  0.00  0.00    -0.278 OA
ATOM     28  H   UNL     1       2.671  -3.958  -4.373  0.00  0.00    +0.149 HD
BRANCH  25  29
ATOM     29  C   UNL     1       1.552  -4.136  -2.577  0.00  0.00    +0.107 C 
BRANCH  29  30
ATOM     30  C   UNL     1       1.512  -2.606  -2.569  0.00  0.00    +0.006 C 
BRANCH  30  31
ATOM     31  C   UNL     1       2.925  -2.061  -2.346  0.00  0.00    +0.002 C 
ATOM     32  C   UNL     1       3.458  -2.560  -1.002  0.00  0.00    +0.004 C 
ENDBRANCH  30  31
BRANCH  30  33
ATOM     33  C   UNL     1       0.597  -2.126  -1.441  0.00  0.00    +0.005 C 
BRANCH  33  34
ATOM     34  C   UNL     1       0.458  -0.604  -1.510  0.00  0.00    +0.000 C 
BRANCH  34  36
ATOM     35  C   UNL     1      -0.596   1.399  -0.452  0.00  0.00    +0.004 C 
ATOM     36  C   UNL     1      -0.458  -0.123  -0.383  0.00  0.00    -0.003 C 
ENDBRANCH  34  36
ENDBRANCH  33  34
ENDBRANCH  30  33
ENDBRANCH  29  30
ENDBRANCH  25  29
ENDBRANCH  24  26
ENDBRANCH   1  24
TORSDOF 12
