REMARK  Name = ZINC10088955
REMARK  10 active torsions:
REMARK  status: ('A' for Active; 'I' for Inactive)
REMARK    1  A    between atoms: C_1  and  C_2
REMARK    2  A    between atoms: C_2  and  C_3
REMARK    3  A    between atoms: C_3  and  N_61
REMARK    4  A    between atoms: C_4  and  C_5
REMARK    5  A    between atoms: C_4  and  N_61
REMARK    6  A    between atoms: C_16  and  C_17
REMARK    7  A    between atoms: C_16  and  N_61
REMARK    8  A    between atoms: N_22  and  C_23
REMARK    9  A    between atoms: C_28  and  C_33
REMARK   10  A    between atoms: C_30  and  C_32
REMARK                            x       y       z     vdW  Elec       q    Type
REMARK                         _______ _______ _______ _____ _____    ______ ____
ROOT
ATOM      1  C   UNL     1       1.507  -2.094   0.000  0.00  0.00    +0.020 C 
ENDROOT
BRANCH   1   2
ATOM      2  C   UNL     1       2.941  -2.556   0.016  0.00  0.00    +0.204 C 
ATOM      3  O   UNL     1       3.840  -1.746  -0.060  0.00  0.00    -0.277 OA
ATOM      4  N   UNL     1       3.224  -3.870   0.113  0.00  0.00    -0.242 N 
ATOM      5  C   UNL     1       4.507  -4.284   0.127  0.00  0.00    +0.306 C 
ATOM      6  O   UNL     1       5.408  -3.472   0.051  0.00  0.00    -0.252 OA
ATOM      7  N   UNL     1       4.790  -5.598   0.225  0.00  0.00    -0.296 N 
ATOM      8  H   UNL     1       2.505  -4.518   0.174  0.00  0.00    +0.159 HD
ATOM      9  H   UNL     1       4.071  -6.246   0.285  0.00  0.00    +0.151 HD
BRANCH   7  10
ATOM     10  C   UNL     1       6.184  -6.047   0.239  0.00  0.00    +0.078 C 
ATOM     11  C   UNL     1       6.729  -5.974   1.667  0.00  0.00    +0.022 C 
ATOM     12  C   UNL     1       8.185  -6.444   1.683  0.00  0.00    +0.002 C 
ATOM     13  C   UNL     1       8.260  -7.887   1.182  0.00  0.00    +0.003 C 
ATOM     14  C   UNL     1       7.716  -7.961  -0.246  0.00  0.00    -0.009 C 
ATOM     15  C   UNL     1       6.260  -7.491  -0.262  0.00  0.00    +0.009 C 
ATOM     16  C   UNL     1       5.715  -7.565  -1.690  0.00  0.00    +0.009 C 
ATOM     17  C   UNL     1       8.552  -7.060  -1.157  0.00  0.00    +0.008 C 
ENDBRANCH   7  10
ENDBRANCH   1   2
BRANCH   1  18
ATOM     18  N   UNL     1       1.484  -0.616   0.006  0.00  0.00    +0.390 N 
ATOM     19  H   UNL     1       2.162  -0.269  -0.683  0.00  0.00    -0.081 HD
BRANCH  18  20
ATOM     20  C   UNL     1       1.859  -0.110   1.343  0.00  0.00    -0.078 C 
BRANCH  20  22
ATOM     21  C   UNL     1       1.248  -0.020   3.764  0.00  0.00    +0.002 C 
ATOM     22  C   UNL     1       0.831  -0.546   2.389  0.00  0.00    -0.022 C 
ENDBRANCH  20  22
ENDBRANCH  18  20
BRANCH  18  23
ATOM     23  C   UNL     1       0.137  -0.129  -0.359  0.00  0.00    -0.003 C 
BRANCH  23  24
ATOM     24  C   UNL     1       0.197   1.363  -0.561  0.00  0.00    +0.094 A 
ATOM     25  N   UNL     1      -0.940   2.011  -0.928  0.00  0.00    -0.311 N 
ATOM     26  H   UNL     1      -1.765   1.519  -1.054  0.00  0.00    +0.170 HD
ATOM     27  C   UNL     1      -0.909   3.354  -1.109  0.00  0.00    +0.266 A 
ATOM     28  O   UNL     1      -1.913   3.965  -1.434  0.00  0.00    -0.267 OA
ATOM     29  C   UNL     1       0.304   4.015  -0.919  0.00  0.00    +0.102 A 
ATOM     30  C   UNL     1       1.467   3.320  -0.545  0.00  0.00    +0.085 A 
ATOM     31  N   UNL     1       1.330   1.963  -0.381  0.00  0.00    -0.235 NA
ATOM     32  C   UNL     1       2.617   4.106  -0.388  0.00  0.00    +0.036 A 
ATOM     33  C   UNL     1       2.561   5.440  -0.594  0.00  0.00    +0.048 A 
ATOM     34  S   UNL     1       0.850   5.699  -1.034  0.00  0.00    -0.090 S 
ENDBRANCH  23  24
ENDBRANCH  18  23
ENDBRANCH   1  18
TORSDOF 7
