REMARK  Name = ZINC64480152
REMARK  6 active torsions:
REMARK  status: ('A' for Active; 'I' for Inactive)
REMARK    1  A    between atoms: N_9  and  C_14
REMARK    2  A    between atoms: C_10  and  O_13
REMARK    3  A    between atoms: C_14  and  C_15
REMARK    4  A    between atoms: N_17  and  C_18
REMARK    5  A    between atoms: C_18  and  C_19
REMARK    6  A    between atoms: C_19  and  C_20
REMARK                            x       y       z     vdW  Elec       q    Type
REMARK                         _______ _______ _______ _____ _____    ______ ____
ROOT
ATOM      1  C   UNL     1       2.977  -4.590  -1.267  0.00  0.00    +0.231 C 
ATOM      2  O   UNL     1       3.157  -3.732  -2.104  0.00  0.00    -0.274 OA
ATOM      3  N   UNL     1       3.131  -5.890  -1.591  0.00  0.00    -0.314 N 
ATOM      4  H   UNL     1       2.987  -6.577  -0.921  0.00  0.00    +0.149 HD
ENDROOT
BRANCH   1   5
ATOM      5  C   UNL     1       2.581  -4.205   0.135  0.00  0.00    +0.207 C 
BRANCH   5  14
ATOM      6  C   UNL     1      -0.017   1.375   0.010  0.00  0.00    +0.001 A 
ATOM      7  C   UNL     1       1.168   2.095   0.002  0.00  0.00    +0.002 A 
ATOM      8  C   UNL     1       2.386   1.444  -0.012  0.00  0.00    +0.024 A 
ATOM      9  C   UNL     1       2.422   0.060  -0.018  0.00  0.00    +0.042 A 
ATOM     10  C   UNL     1       1.223  -0.674  -0.014  0.00  0.00    +0.058 A 
ATOM     11  C   UNL     1       0.002  -0.004   0.002  0.00  0.00    +0.015 A 
ATOM     12  C   UNL     1       1.301  -2.146  -0.031  0.00  0.00    +0.252 C 
ATOM     13  O   UNL     1       0.313  -2.811  -0.278  0.00  0.00    -0.270 OA
ATOM     14  N   UNL     1       2.480  -2.747   0.230  0.00  0.00    -0.248 N 
ATOM     15  C   UNL     1       3.660  -1.968   0.607  0.00  0.00    +0.300 C 
ATOM     16  N   UNL     1       3.621  -0.645  -0.027  0.00  0.00    -0.303 N 
ATOM     17  H   UNL     1       4.413  -0.271  -0.443  0.00  0.00    +0.150 HD
BRANCH  15  18
ATOM     18  O   UNL     1       3.688  -1.808   2.027  0.00  0.00    -0.359 OA
ATOM     19  H   UNL     1       4.444  -1.301   2.351  0.00  0.00    +0.213 HD
ENDBRANCH  15  18
ENDBRANCH   5  14
ENDBRANCH   1   5
BRANCH   3  20
ATOM     20  C   UNL     1       3.516  -6.265  -2.953  0.00  0.00    +0.108 C 
BRANCH  20  21
ATOM     21  C   UNL     1       3.621  -7.788  -3.053  0.00  0.00    +0.052 C 
BRANCH  21  22
ATOM     22  C   UNL     1       4.017  -8.174  -4.455  0.00  0.00    -0.040 C 
ATOM     23  C   UNL     1       5.267  -8.424  -4.907  0.00  0.00    +0.000 A 
ATOM     24  C   UNL     1       6.581  -8.412  -4.254  0.00  0.00    +0.030 A 
ATOM     25  C   UNL     1       7.680  -8.713  -4.985  0.00  0.00    +0.042 A 
ATOM     26  C   UNL     1       7.593  -9.035  -6.348  0.00  0.00    +0.022 A 
ATOM     27  C   UNL     1       6.421  -9.066  -7.016  0.00  0.00    +0.027 A 
ATOM     28  C   UNL     1       5.203  -8.767  -6.346  0.00  0.00    +0.043 A 
ATOM     29  N   UNL     1       3.962  -8.730  -6.767  0.00  0.00    -0.380 N 
ATOM     30  C   UNL     1       3.096  -8.365  -5.639  0.00  0.00    +0.144 C 
ATOM     31 CL   UNL     1       9.236  -8.701  -4.216  0.00  0.00    -0.084 Cl
ATOM     32  H   UNL     1       3.665  -8.916  -7.671  0.00  0.00    +0.160 HD
ENDBRANCH  21  22
ENDBRANCH  20  21
ENDBRANCH   3  20
TORSDOF 6
