REMARK  Name = ZINC06877449
REMARK  9 active torsions:
REMARK  status: ('A' for Active; 'I' for Inactive)
REMARK    1  A    between atoms: C_1  and  C_2
REMARK    2  A    between atoms: C_2  and  N_60
REMARK    3  A    between atoms: C_8  and  N_25
REMARK    4  A    between atoms: C_9  and  C_10
REMARK    5  A    between atoms: C_10  and  C_12
REMARK    6  A    between atoms: C_10  and  N_13
REMARK    7  A    between atoms: N_16  and  C_17
REMARK    8  A    between atoms: C_20  and  C_24
REMARK    9  A    between atoms: C_21  and  C_23
REMARK                            x       y       z     vdW  Elec       q    Type
REMARK                         _______ _______ _______ _____ _____    ______ ____
ROOT
ATOM      1  C   UNL     1      -8.505   1.483  -3.550  0.00  0.00    -0.074 C 
ATOM      2  C   UNL     1      -7.274   1.995  -2.799  0.00  0.00    +0.018 C 
ATOM      3  C   UNL     1      -7.610   3.360  -2.204  0.00  0.00    -0.034 A 
ATOM      4  C   UNL     1      -8.684   4.050  -2.679  0.00  0.00    -0.021 A 
ATOM      5  S   UNL     1      -8.698   5.532  -1.710  0.00  0.00    -0.077 S 
ATOM      6  C   UNL     1      -7.269   5.173  -0.699  0.00  0.00    +0.090 A 
ATOM      7  C   UNL     1      -6.889   3.957  -1.173  0.00  0.00    +0.007 A 
ATOM      8  C   UNL     1      -9.610   3.627  -3.772  0.00  0.00    -0.035 C 
ATOM      9  N   UNL     1      -8.963   2.511  -4.506  0.00  0.00    +0.383 N 
ATOM     10  H   UNL     1      -8.152   2.875  -5.021  0.00  0.00    -0.081 HD
ENDROOT
BRANCH   6  11
ATOM     11  N   UNL     1      -6.692   5.944   0.317  0.00  0.00    -0.317 N 
ATOM     12  C   UNL     1      -5.688   5.540   1.149  0.00  0.00    +0.092 A 
ATOM     13  C   UNL     1      -5.401   6.556   1.989  0.00  0.00    +0.019 A 
ATOM     14  C   UNL     1      -6.264   7.624   1.669  0.00  0.00    +0.019 A 
ATOM     15  C   UNL     1      -7.042   7.222   0.643  0.00  0.00    +0.092 A 
ENDBRANCH   6  11
BRANCH   9  17
ATOM     16  C   UNL     1     -11.089   1.271  -4.730  0.00  0.00    -0.017 C 
ATOM     17  C   UNL     1      -9.917   1.919  -5.469  0.00  0.00    -0.082 C 
ENDBRANCH   9  17
BRANCH   7  18
ATOM     18  C   UNL     1      -5.689   3.259  -0.588  0.00  0.00    +0.104 C 
ATOM     19  C   UNL     1      -6.041   2.713   0.797  0.00  0.00    +0.033 C 
BRANCH  18  20
ATOM     20  N   UNL     1      -4.580   4.210  -0.471  0.00  0.00    -0.292 N 
ATOM     21  C   UNL     1      -3.330   3.762  -0.240  0.00  0.00    +0.304 C 
ATOM     22  O   UNL     1      -3.122   2.570  -0.129  0.00  0.00    -0.252 OA
ATOM     23  N   UNL     1      -2.311   4.637  -0.132  0.00  0.00    -0.269 N 
ATOM     24  H   UNL     1      -4.746   5.161  -0.560  0.00  0.00    +0.151 HD
ATOM     25  H   UNL     1      -2.488   5.591  -0.126  0.00  0.00    +0.156 HD
BRANCH  23  26
ATOM     26  C   UNL     1      -0.995   4.170  -0.029  0.00  0.00    +0.035 A 
ATOM     27  C   UNL     1      -0.606   3.029  -0.719  0.00  0.00    +0.023 A 
ATOM     28  C   UNL     1       0.691   2.567  -0.610  0.00  0.00    +0.005 A 
ATOM     29  C   UNL     1       1.605   3.246   0.176  0.00  0.00    -0.047 A 
ATOM     30  C   UNL     1       1.221   4.385   0.860  0.00  0.00    -0.046 A 
ATOM     31  C   UNL     1      -0.076   4.848   0.759  0.00  0.00    +0.027 A 
ATOM     32  C   UNL     1       2.220   5.120   1.715  0.00  0.00    +0.044 C 
ATOM     33  C   UNL     1       3.021   2.743   0.287  0.00  0.00    +0.044 C 
ENDBRANCH  23  26
ENDBRANCH  18  20
ENDBRANCH   7  18
TORSDOF 5
