REMARK  Name = ZINC02132197
REMARK  8 active torsions:
REMARK  status: ('A' for Active; 'I' for Inactive)
REMARK    1  A    between atoms: C_1  and  C_2
REMARK    2  A    between atoms: C_5  and  N_8
REMARK    3  A    between atoms: C_9  and  O_39
REMARK    4  A    between atoms: C_10  and  C_23
REMARK    5  A    between atoms: N_13  and  C_16
REMARK    6  A    between atoms: C_19  and  C_22
REMARK    7  A    between atoms: C_29  and  O_35
REMARK    8  A    between atoms: O_35  and  C_36
REMARK                            x       y       z     vdW  Elec       q    Type
REMARK                         _______ _______ _______ _____ _____    ______ ____
ROOT
ATOM      1  N   UNL     1       0.726   3.498   0.651  0.00  0.00    -0.232 N 
ATOM      2  C   UNL     1       0.025   2.573   1.386  0.00  0.00    +0.208 A 
ATOM      3  C   UNL     1      -0.752   1.656   0.744  0.00  0.00    +0.069 A 
ATOM      4  C   UNL     1      -0.806   1.671  -0.661  0.00  0.00    +0.267 A 
ATOM      5  O   UNL     1      -1.490   0.856  -1.257  0.00  0.00    -0.267 OA
ATOM      6  N   UNL     1      -0.103   2.595  -1.344  0.00  0.00    -0.228 N 
ATOM      7  C   UNL     1       0.653   3.497  -0.692  0.00  0.00    +0.344 A 
ATOM      8  O   UNL     1       1.281   4.323  -1.327  0.00  0.00    -0.245 OA
ENDROOT
BRANCH   3   9
ATOM      9  C   UNL     1      -1.535   0.635   1.528  0.00  0.00    +0.018 C 
ATOM     10  C   UNL     1      -3.014   0.861   1.319  0.00  0.00    +0.011 A 
ATOM     11  C   UNL     1      -3.889  -0.146   1.095  0.00  0.00    -0.022 A 
ATOM     12  C   UNL     1      -5.198   0.450   0.944  0.00  0.00    +0.006 A 
ATOM     13  C   UNL     1      -6.465  -0.091   0.698  0.00  0.00    +0.056 A 
ATOM     14  C   UNL     1      -7.520   0.805   0.615  0.00  0.00    +0.121 A 
ATOM     15  C   UNL     1      -7.334   2.174   0.766  0.00  0.00    +0.047 A 
ATOM     16  C   UNL     1      -6.088   2.725   1.009  0.00  0.00    +0.030 A 
ATOM     17  C   UNL     1      -5.010   1.847   1.097  0.00  0.00    +0.047 A 
ATOM     18  N   UNL     1      -3.678   2.057   1.323  0.00  0.00    -0.359 N 
ATOM     19  H   UNL     1      -3.265   2.924   1.464  0.00  0.00    +0.166 HD
ATOM     20  C   UNL     1      -3.487  -1.599   1.033  0.00  0.00    +0.018 C 
ATOM     21  C   UNL     1      -2.086  -1.729   1.645  0.00  0.00    -0.076 C 
ATOM     22  N   UNL     1      -1.185  -0.721   1.050  0.00  0.00    +0.388 N 
ATOM     23  H   UNL     1      -0.216  -0.933   1.317  0.00  0.00    -0.084 HD
ATOM     24  H   UNL     1      -1.272  -0.751   0.027  0.00  0.00    -0.084 HD
BRANCH  14  25
ATOM     25  O   UNL     1      -8.773   0.331   0.377  0.00  0.00    -0.495 OA
ATOM     26  C   UNL     1      -9.826   1.292   0.299  0.00  0.00    +0.277 C 
ENDBRANCH  14  25
ENDBRANCH   3   9
BRANCH   1  31
ATOM     27  C   UNL     1       3.948   7.348   3.298  0.00  0.00    +0.044 C 
ATOM     28  C   UNL     1       3.093   6.326   2.595  0.00  0.00    -0.050 A 
ATOM     29  C   UNL     1       1.762   6.600   2.335  0.00  0.00    +0.005 A 
ATOM     30  C   UNL     1       0.976   5.665   1.692  0.00  0.00    +0.026 A 
ATOM     31  C   UNL     1       1.522   4.449   1.305  0.00  0.00    +0.054 A 
ATOM     32  C   UNL     1       2.856   4.173   1.572  0.00  0.00    +0.026 A 
ATOM     33  C   UNL     1       3.639   5.115   2.211  0.00  0.00    +0.005 A 
ENDBRANCH   1  31
BRANCH   6  34
ATOM     34  C   UNL     1      -0.160   2.617  -2.744  0.00  0.00    +0.054 A 
ATOM     35  C   UNL     1       0.780   1.917  -3.489  0.00  0.00    +0.026 A 
ATOM     36  C   UNL     1       0.718   1.937  -4.869  0.00  0.00    +0.005 A 
ATOM     37  C   UNL     1      -0.271   2.661  -5.508  0.00  0.00    -0.050 A 
ATOM     38  C   UNL     1      -1.204   3.364  -4.769  0.00  0.00    +0.005 A 
ATOM     39  C   UNL     1      -1.151   3.344  -3.389  0.00  0.00    +0.026 A 
ATOM     40  C   UNL     1      -0.331   2.686  -7.014  0.00  0.00    +0.044 C 
ENDBRANCH   6  34
BRANCH   2  41
ATOM     41  O   UNL     1       0.099   2.577   2.735  0.00  0.00    -0.493 OA
ATOM     42  H   UNL     1       0.609   3.315   3.098  0.00  0.00    +0.294 HD
ENDBRANCH   2  41
TORSDOF 5
