REMARK  Name = ZINC47619520
REMARK  9 active torsions:
REMARK  status: ('A' for Active; 'I' for Inactive)
REMARK    1  A    between atoms: C_1  and  C_2
REMARK    2  A    between atoms: C_5  and  C_27
REMARK    3  A    between atoms: N_8  and  C_10
REMARK    4  A    between atoms: C_10  and  C_11
REMARK    5  A    between atoms: C_11  and  N_12
REMARK    6  A    between atoms: N_15  and  C_16
REMARK    7  A    between atoms: C_16  and  C_17
REMARK    8  A    between atoms: C_20  and  S_23
REMARK    9  A    between atoms: S_23  and  N_26
REMARK                            x       y       z     vdW  Elec       q    Type
REMARK                         _______ _______ _______ _____ _____    ______ ____
ROOT
ATOM      1  N   UNL     1       2.819  -0.203   4.893  0.00  0.00    -0.301 N 
ATOM      2  C   UNL     1       2.398   0.248   6.091  0.00  0.00    +0.300 C 
ATOM      3  O   UNL     1       1.450   1.007   6.155  0.00  0.00    -0.253 OA
ATOM      4  N   UNL     1       3.026  -0.142   7.217  0.00  0.00    -0.295 N 
ATOM      5  H   UNL     1       3.575  -0.809   4.842  0.00  0.00    +0.150 HD
ATOM      6  H   UNL     1       3.782  -0.748   7.166  0.00  0.00    +0.151 HD
ENDROOT
BRANCH   1   7
ATOM      7  C   UNL     1       2.136   0.221   3.668  0.00  0.00    +0.087 C 
BRANCH   7   8
ATOM      8  C   UNL     1       2.808  -0.431   2.458  0.00  0.00    -0.060 C 
BRANCH   8  14
ATOM      9  C   UNL     1      -0.019   1.526   0.010  0.00  0.00    +0.005 C 
ATOM     10  C   UNL     1       0.002  -0.004   0.002  0.00  0.00    -0.031 C 
ATOM     11  C   UNL     1       0.721  -0.499  -1.257  0.00  0.00    +0.003 C 
ATOM     12  C   UNL     1       2.177  -0.027  -1.220  0.00  0.00    -0.031 C 
ATOM     13  C   UNL     1       2.839  -0.534   0.063  0.00  0.00    -0.076 C 
ATOM     14  N   UNL     1       2.123  -0.005   1.230  0.00  0.00    +0.381 N 
ATOM     15  C   UNL     1       0.744  -0.512   1.240  0.00  0.00    -0.076 C 
ATOM     16  C   UNL     1       2.924  -0.581  -2.434  0.00  0.00    +0.005 C 
ATOM     17  H   UNL     1       2.109   1.003   1.187  0.00  0.00    -0.082 HD
ENDBRANCH   8  14
ENDBRANCH   7   8
ENDBRANCH   1   7
BRANCH   4  18
ATOM     18  C   UNL     1       2.568   0.348   8.519  0.00  0.00    +0.141 C 
BRANCH  18  19
ATOM     19  C   UNL     1       3.433  -0.233   9.608  0.00  0.00    -0.030 A 
ATOM     20  C   UNL     1       3.090  -1.437  10.194  0.00  0.00    +0.007 A 
ATOM     21  C   UNL     1       3.883  -1.970  11.193  0.00  0.00    +0.029 A 
ATOM     22  C   UNL     1       5.019  -1.300  11.605  0.00  0.00    +0.105 A 
ATOM     23  C   UNL     1       5.363  -0.097  11.018  0.00  0.00    +0.029 A 
ATOM     24  C   UNL     1       4.572   0.435  10.017  0.00  0.00    +0.007 A 
BRANCH  22  25
ATOM     25  S   UNL     1       6.030  -1.980  12.879  0.00  0.00    +0.056 S 
ATOM     26  O   UNL     1       6.737  -0.892  13.460  0.00  0.00    -0.153 OA
ATOM     27  O   UNL     1       5.196  -2.841  13.642  0.00  0.00    -0.153 OA
BRANCH  25  28
ATOM     28  N   UNL     1       7.161  -2.942  12.146  0.00  0.00    -0.204 NA
ATOM     29  H   UNL     1       7.165  -3.036  11.180  0.00  0.00    +0.144 HD
ATOM     30  H   UNL     1       7.818  -3.412  12.682  0.00  0.00    +0.144 HD
ENDBRANCH  25  28
ENDBRANCH  22  25
ENDBRANCH  18  19
ENDBRANCH   4  18
TORSDOF 7
