REMARK  Name = ZINC51563119
REMARK  11 active torsions:
REMARK  status: ('A' for Active; 'I' for Inactive)
REMARK    1  A    between atoms: C_1  and  C_2
REMARK    2  A    between atoms: C_2  and  C_3
REMARK    3  A    between atoms: C_3  and  C_4
REMARK    4  A    between atoms: N_6  and  C_7
REMARK    5  A    between atoms: C_10  and  C_13
REMARK    6  A    between atoms: C_13  and  N_14
REMARK    7  A    between atoms: C_15  and  C_17
REMARK    8  A    between atoms: C_17  and  N_18
REMARK    9  A    between atoms: N_18  and  C_19
REMARK   10  A    between atoms: C_19  and  C_21
REMARK   11  A    between atoms: C_19  and  C_22
REMARK                            x       y       z     vdW  Elec       q    Type
REMARK                         _______ _______ _______ _____ _____    ______ ____
ROOT
ATOM      1  N   UNL     1       2.887  -8.721   1.151  0.00  0.00    -0.313 N 
ATOM      2  C   UNL     1       3.170 -10.022   0.941  0.00  0.00    +0.196 C 
ATOM      3  O   UNL     1       2.395 -10.878   1.312  0.00  0.00    -0.278 OA
ATOM      4  H   UNL     1       3.507  -8.036   0.855  0.00  0.00    +0.149 HD
ENDROOT
BRANCH   1   5
ATOM      5  C   UNL     1       1.644  -8.341   1.826  0.00  0.00    +0.139 C 
BRANCH   5   9
ATOM      6  C   UNL     1       1.434  -4.083   2.134  0.00  0.00    +0.033 A 
ATOM      7  C   UNL     1       0.906  -4.727   1.022  0.00  0.00    +0.023 A 
ATOM      8  C   UNL     1       0.976  -6.103   0.926  0.00  0.00    +0.007 A 
ATOM      9  C   UNL     1       1.570  -6.839   1.935  0.00  0.00    -0.030 A 
ATOM     10  C   UNL     1       2.095  -6.201   3.043  0.00  0.00    +0.007 A 
ATOM     11  C   UNL     1       2.034  -4.825   3.143  0.00  0.00    +0.023 A 
BRANCH   6  14
ATOM     12  C   UNL     1       2.373  -2.004   2.811  0.00  0.00    +0.217 C 
ATOM     13  O   UNL     1       3.300  -2.601   3.317  0.00  0.00    -0.275 OA
ATOM     14  N   UNL     1       1.365  -2.689   2.235  0.00  0.00    -0.285 N 
ATOM     15  H   UNL     1       0.592  -2.215   1.890  0.00  0.00    +0.155 HD
BRANCH  12  16
ATOM     16  C   UNL     1       2.348  -0.498   2.827  0.00  0.00    +0.096 C 
BRANCH  16  18
ATOM     17  C   UNL     1       3.574   1.555   3.551  0.00  0.00    +0.004 C 
ATOM     18  C   UNL     1       3.599   0.026   3.535  0.00  0.00    +0.006 C 
ENDBRANCH  16  18
ENDBRANCH  12  16
ENDBRANCH   6  14
ENDBRANCH   5   9
ENDBRANCH   1   5
BRANCH   2  19
ATOM     19  C   UNL     1       4.449 -10.413   0.247  0.00  0.00    +0.016 C 
BRANCH  19  20
ATOM     20  N   UNL     1       4.521 -11.876   0.141  0.00  0.00    +0.389 N 
ATOM     21  H   UNL     1       4.502 -12.281   1.065  0.00  0.00    -0.084 HD
ATOM     22  H   UNL     1       3.732 -12.214  -0.390  0.00  0.00    -0.084 HD
BRANCH  20  23
ATOM     23  C   UNL     1       5.767 -12.257  -0.536  0.00  0.00    -0.042 C 
ATOM     24  C   UNL     1       6.962 -11.854   0.331  0.00  0.00    -0.009 C 
BRANCH  23  25
ATOM     25  C   UNL     1       5.785 -13.748  -0.755  0.00  0.00    -0.043 A 
ATOM     26  C   UNL     1       4.963 -14.566  -0.003  0.00  0.00    +0.003 A 
ATOM     27  C   UNL     1       4.979 -15.934  -0.203  0.00  0.00    +0.000 A 
ATOM     28  C   UNL     1       5.817 -16.484  -1.155  0.00  0.00    +0.001 A 
ATOM     29  C   UNL     1       6.639 -15.667  -1.907  0.00  0.00    +0.020 A 
ATOM     30  C   UNL     1       6.620 -14.297  -1.711  0.00  0.00    +0.043 A 
ATOM     31 CL   UNL     1       7.648 -13.270  -2.660  0.00  0.00    -0.083 Cl
ENDBRANCH  23  25
ENDBRANCH  20  23
ENDBRANCH  19  20
ENDBRANCH   2  19
TORSDOF 9
