REMARK  Name = ZINC24213919
REMARK  7 active torsions:
REMARK  status: ('A' for Active; 'I' for Inactive)
REMARK    1  A    between atoms: C_1  and  C_2
REMARK    2  A    between atoms: C_2  and  C_3
REMARK    3  A    between atoms: C_3  and  C_28
REMARK    4  A    between atoms: N_6  and  N_10
REMARK    5  A    between atoms: C_11  and  C_13
REMARK    6  A    between atoms: C_13  and  N_14
REMARK    7  A    between atoms: C_20  and  C_22
REMARK                            x       y       z     vdW  Elec       q    Type
REMARK                         _______ _______ _______ _____ _____    ______ ____
ROOT
ATOM      1  N   UNL     1       5.652  -0.299   2.325  0.00  0.00    -0.225 N 
ATOM      2  C   UNL     1       4.596   0.089   1.583  0.00  0.00    +0.213 C 
ATOM      3  O   UNL     1       4.757   0.837   0.642  0.00  0.00    -0.276 OA
ATOM      4  H   UNL     1       5.506  -0.977   3.178  0.00  0.00    +0.173 HD
ENDROOT
BRANCH   1   8
ATOM      5  C   UNL     1       9.093   0.316   1.270  0.00  0.00    +0.111 C 
ATOM      6  C   UNL     1       7.885  -0.589   1.414  0.00  0.00    +0.263 C 
ATOM      7  O   UNL     1       7.792  -1.746   1.066  0.00  0.00    -0.271 OA
ATOM      8  N   UNL     1       6.937   0.162   2.008  0.00  0.00    -0.137 N 
ATOM      9  C   UNL     1       7.375   1.400   2.264  0.00  0.00    +0.326 C 
ATOM     10  O   UNL     1       6.702   2.259   2.799  0.00  0.00    -0.251 OA
ATOM     11  N   UNL     1       8.645   1.589   1.862  0.00  0.00    -0.284 N 
ATOM     12  C   UNL     1      10.281  -0.251   2.050  0.00  0.00    +0.041 C 
ATOM     13  H   UNL     1       9.330   2.449   1.900  0.00  0.00    +0.151 HD
BRANCH   5  15
ATOM     14  C   UNL     1      10.614   1.505  -0.317  0.00  0.00    +0.006 C 
ATOM     15  C   UNL     1       9.460   0.507  -0.203  0.00  0.00    +0.032 C 
ENDBRANCH   5  15
ENDBRANCH   1   8
BRANCH   2  16
ATOM     16  C   UNL     1       3.214  -0.407   1.924  0.00  0.00    +0.020 C 
BRANCH  16  17
ATOM     17  N   UNL     1       2.244   0.155   0.974  0.00  0.00    +0.387 N 
ATOM     18  C   UNL     1       0.930  -0.484   1.123  0.00  0.00    -0.059 C 
ATOM     19  C   UNL     1       0.002  -0.004   0.002  0.00  0.00    +0.089 C 
ATOM     20  N   UNL     1      -0.018   1.467   0.010  0.00  0.00    -0.303 N 
ATOM     21  C   UNL     1       1.268   2.180   0.002  0.00  0.00    +0.089 C 
ATOM     22  C   UNL     1       2.147   1.614   1.123  0.00  0.00    -0.059 C 
ATOM     23  C   UNL     1      -1.184   2.143   0.019  0.00  0.00    +0.244 C 
ATOM     24  O   UNL     1      -2.235   1.538   0.021  0.00  0.00    -0.273 OA
ATOM     25  H   UNL     1       2.605  -0.054  -0.044  0.00  0.00    -0.081 HD
BRANCH  23  26
ATOM     26  C   UNL     1      -1.181   3.650   0.028  0.00  0.00    +0.204 C 
ATOM     27  C   UNL     1      -0.570   4.165   1.348  0.00  0.00    +0.043 C 
ATOM     28  C   UNL     1      -1.474   5.384   1.676  0.00  0.00    +0.031 C 
ATOM     29  C   UNL     1      -2.840   4.891   1.135  0.00  0.00    +0.161 C 
ATOM     30  O   UNL     1      -2.525   4.138  -0.047  0.00  0.00    -0.367 OA
ENDBRANCH  23  26
ENDBRANCH  16  17
ENDBRANCH   2  16
TORSDOF 5
