REMARK  Name = ZINC42015186
REMARK  7 active torsions:
REMARK  status: ('A' for Active; 'I' for Inactive)
REMARK    1  A    between atoms: C_1  and  C_2
REMARK    2  A    between atoms: C_2  and  C_4
REMARK    3  A    between atoms: C_2  and  N_7
REMARK    4  A    between atoms: C_4  and  O_5
REMARK    5  A    between atoms: O_5  and  C_6
REMARK    6  A    between atoms: C_8  and  C_12
REMARK    7  A    between atoms: C_16  and  N_18
REMARK                            x       y       z     vdW  Elec       q    Type
REMARK                         _______ _______ _______ _____ _____    ______ ____
ROOT
ATOM      1  N   UNL     1      -1.332  -0.674  -0.099  0.00  0.00    -0.220 N 
ATOM      2  C   UNL     1      -1.924  -1.376   0.899  0.00  0.00    +0.182 A 
ATOM      3  N   UNL     1      -3.215  -1.399   0.641  0.00  0.00    -0.108 NA
ATOM      4  N   UNL     1      -3.468  -0.761  -0.444  0.00  0.00    -0.023 NA
ATOM      5  N   UNL     1      -2.382  -0.286  -0.950  0.00  0.00    -0.043 NA
ENDROOT
BRANCH   2   6
ATOM      6  C   UNL     1      -1.247  -2.001   2.057  0.00  0.00    +0.022 A 
ATOM      7  C   UNL     1      -0.087  -1.429   2.581  0.00  0.00    +0.013 A 
ATOM      8  C   UNL     1       0.543  -2.012   3.662  0.00  0.00    +0.018 A 
ATOM      9  C   UNL     1       0.028  -3.163   4.229  0.00  0.00    +0.039 A 
ATOM     10  C   UNL     1      -1.127  -3.740   3.714  0.00  0.00    +0.039 A 
ATOM     11  C   UNL     1      -1.769  -3.158   2.632  0.00  0.00    +0.035 A 
ATOM     12 BR   UNL     1       0.898  -3.955   5.709  0.00  0.00    -0.048 Br
BRANCH  10  13
ATOM     13  N   UNL     1      -1.644  -4.904   4.290  0.00  0.00    -0.357 N 
ATOM     14  H   UNL     1      -1.197  -5.309   5.050  0.00  0.00    +0.142 HD
ATOM     15  H   UNL     1      -2.450  -5.306   3.931  0.00  0.00    +0.142 HD
ENDBRANCH  10  13
ENDBRANCH   2   6
BRANCH   1  17
ATOM     16  C   UNL     1       0.328   1.122  -0.044  0.00  0.00    +0.035 C 
ATOM     17  C   UNL     1       0.094  -0.376  -0.252  0.00  0.00    +0.134 C 
BRANCH  17  18
ATOM     18  C   UNL     1       0.549  -0.773  -1.658  0.00  0.00    +0.186 C 
BRANCH  18  19
ATOM     19  O   UNL     1       1.962  -0.592  -1.770  0.00  0.00    -0.381 OA
ATOM     20  C   UNL     1       2.493  -0.936  -3.051  0.00  0.00    +0.194 C 
ENDBRANCH  18  19
ENDBRANCH  17  18
ENDBRANCH   1  17
TORSDOF 5
