REMARK  Name = ZINC40661707
REMARK  7 active torsions:
REMARK  status: ('A' for Active; 'I' for Inactive)
REMARK    1  A    between atoms: C_1  and  C_2
REMARK    2  A    between atoms: C_2  and  N_3
REMARK    3  A    between atoms: N_3  and  C_4
REMARK    4  A    between atoms: C_8  and  C_10
REMARK    5  A    between atoms: C_12  and  N_25
REMARK    6  A    between atoms: C_13  and  N_17
REMARK    7  A    between atoms: C_20  and  C_24
REMARK                            x       y       z     vdW  Elec       q    Type
REMARK                         _______ _______ _______ _____ _____    ______ ____
ROOT
ATOM      1  N   UNL     1       0.676  -0.486  -1.222  0.00  0.00    -0.284 N 
ATOM      2  C   UNL     1      -0.133  -0.657  -2.340  0.00  0.00    +0.151 A 
ATOM      3  C   UNL     1      -1.505  -0.403  -2.267  0.00  0.00    +0.104 A 
ATOM      4  C   UNL     1      -2.271  -0.590  -3.418  0.00  0.00    +0.127 A 
ATOM      5  N   UNL     1      -1.671  -1.001  -4.533  0.00  0.00    -0.333 N 
ATOM      6  C   UNL     1      -0.374  -1.229  -4.559  0.00  0.00    +0.200 A 
ATOM      7  N   UNL     1       0.387  -1.059  -3.496  0.00  0.00    -0.220 NA
ATOM      8  H   UNL     1      -2.196  -1.134  -5.337  0.00  0.00    +0.168 HD
ENDROOT
BRANCH   4   9
ATOM      9  N   UNL     1      -3.642  -0.352  -3.401  0.00  0.00    -0.284 N 
ATOM     10  C   UNL     1      -4.420  -0.686  -4.504  0.00  0.00    +0.124 A 
ATOM     11  C   UNL     1      -5.760  -0.315  -4.541  0.00  0.00    +0.047 A 
ATOM     12  C   UNL     1      -6.522  -0.654  -5.644  0.00  0.00    -0.046 A 
ATOM     13  C   UNL     1      -5.916  -1.355  -6.678  0.00  0.00    +0.023 A 
ATOM     14  C   UNL     1      -4.581  -1.691  -6.576  0.00  0.00    +0.113 A 
ATOM     15  N   UNL     1      -3.877  -1.351  -5.513  0.00  0.00    -0.240 NA
ATOM     16  C   UNL     1      -7.978  -0.271  -5.722  0.00  0.00    +0.044 C 
ATOM     17  H   UNL     1      -4.055   0.047  -2.619  0.00  0.00    +0.155 HD
ENDBRANCH   4   9
BRANCH   1  18
ATOM     18  C   UNL     1       0.971  -1.577  -0.400  0.00  0.00    +0.035 A 
ATOM     19  C   UNL     1       1.688  -1.389   0.775  0.00  0.00    +0.023 A 
ATOM     20  C   UNL     1       1.978  -2.468   1.586  0.00  0.00    +0.002 A 
ATOM     21  C   UNL     1       1.555  -3.736   1.229  0.00  0.00    +0.003 A 
ATOM     22  C   UNL     1       0.841  -3.926   0.061  0.00  0.00    -0.049 A 
ATOM     23  C   UNL     1       0.542  -2.850  -0.752  0.00  0.00    +0.026 A 
ATOM     24  C   UNL     1       0.382  -5.309  -0.324  0.00  0.00    +0.044 C 
ENDBRANCH   1  18
BRANCH   3  25
ATOM     25  N   UNL     1      -2.096   0.029  -1.069  0.00  0.00    -0.353 N 
ATOM     26  H   UNL     1      -1.565   0.084  -0.259  0.00  0.00    +0.143 HD
ATOM     27  H   UNL     1      -3.035   0.271  -1.052  0.00  0.00    +0.143 HD
ENDBRANCH   3  25
BRANCH   1  29
ATOM     28  C   UNL     1       2.631   0.960  -1.490  0.00  0.00    +0.025 C 
ATOM     29  C   UNL     1       1.221   0.837  -0.907  0.00  0.00    +0.109 C 
ENDBRANCH   1  29
TORSDOF 4
