REMARK  Name = ZINC32542477
REMARK  10 active torsions:
REMARK  status: ('A' for Active; 'I' for Inactive)
REMARK    1  A    between atoms: C_1  and  C_2
REMARK    2  A    between atoms: C_8  and  N_10
REMARK    3  A    between atoms: C_14  and  C_16
REMARK    4  A    between atoms: C_16  and  N_17
REMARK    5  A    between atoms: N_17  and  C_18
REMARK    6  A    between atoms: N_17  and  C_19
REMARK    7  A    between atoms: C_19  and  C_21
REMARK    8  A    between atoms: C_19  and  C_22
REMARK    9  A    between atoms: C_25  and  S_28
REMARK   10  A    between atoms: S_28  and  N_31
REMARK                            x       y       z     vdW  Elec       q    Type
REMARK                         _______ _______ _______ _____ _____    ______ ____
ROOT
ATOM      1  N   UNL     1       0.021   0.021   0.142  0.00  0.00    +0.388 N 
ATOM      2  C   UNL     1       0.731  -0.299  -1.103  0.00  0.00    -0.095 C 
ATOM      3  H   UNL     1       0.621  -0.360   0.982  0.00  0.00    -0.081 HD
ENDROOT
BRANCH   1   4
ATOM      4  C   UNL     1      -1.289  -0.642   0.187  0.00  0.00    -0.041 C 
ATOM      5  C   UNL     1      -2.085  -0.285  -1.070  0.00  0.00    -0.008 C 
BRANCH   4   6
ATOM      6  C   UNL     1      -1.094  -2.135   0.250  0.00  0.00    -0.061 A 
ATOM      7  C   UNL     1      -1.999  -2.977  -0.369  0.00  0.00    +0.004 A 
ATOM      8  C   UNL     1      -1.818  -4.347  -0.315  0.00  0.00    +0.029 A 
ATOM      9  C   UNL     1      -0.737  -4.874   0.367  0.00  0.00    +0.105 A 
ATOM     10  C   UNL     1       0.165  -4.032   0.991  0.00  0.00    +0.029 A 
ATOM     11  C   UNL     1      -0.014  -2.663   0.932  0.00  0.00    +0.004 A 
BRANCH   9  12
ATOM     12  S   UNL     1      -0.508  -6.620   0.440  0.00  0.00    +0.056 S 
ATOM     13  O   UNL     1      -1.187  -7.166  -0.683  0.00  0.00    -0.153 OA
ATOM     14  O   UNL     1       0.876  -6.839   0.674  0.00  0.00    -0.153 OA
BRANCH  12  15
ATOM     15  N   UNL     1      -1.307  -7.162   1.785  0.00  0.00    -0.204 NA
ATOM     16  H   UNL     1      -1.188  -8.253   1.867  0.00  0.00    +0.144 HD
ATOM     17  H   UNL     1      -2.376  -6.915   1.701  0.00  0.00    +0.144 HD
ENDBRANCH  12  15
ENDBRANCH   9  12
ENDBRANCH   4   6
ENDBRANCH   1   4
BRANCH   1  18
ATOM     18  C   UNL     1      -0.119   1.474   0.310  0.00  0.00    +0.019 C 
BRANCH  18  23
ATOM     19  N   UNL     1       2.696   5.304   1.029  0.00  0.00    -0.296 N 
ATOM     20  C   UNL     1       2.578   3.973   0.854  0.00  0.00    +0.306 C 
ATOM     21  O   UNL     1       3.569   3.269   0.854  0.00  0.00    -0.252 OA
ATOM     22  N   UNL     1       1.360   3.421   0.680  0.00  0.00    -0.242 N 
ATOM     23  C   UNL     1       1.242   2.090   0.505  0.00  0.00    +0.204 C 
ATOM     24  O   UNL     1       2.231   1.389   0.504  0.00  0.00    -0.277 OA
ATOM     25  H   UNL     1       1.799   5.940   1.029  0.00  0.00    +0.151 HD
ATOM     26  H   UNL     1       0.463   4.058   0.680  0.00  0.00    +0.159 HD
BRANCH  19  33
ATOM     27  C   UNL     1       3.594   7.449  -0.698  0.00  0.00    +0.009 C 
ATOM     28  C   UNL     1       3.983   7.368   0.780  0.00  0.00    +0.006 C 
ATOM     29  C   UNL     1       5.365   7.994   0.978  0.00  0.00    +0.005 C 
ATOM     30  C   UNL     1       5.755   7.913   2.455  0.00  0.00    +0.000 C 
ATOM     31  C   UNL     1       5.791   6.448   2.894  0.00  0.00    +0.002 C 
ATOM     32  C   UNL     1       4.409   5.822   2.696  0.00  0.00    +0.022 C 
ATOM     33  C   UNL     1       4.019   5.903   1.218  0.00  0.00    +0.077 C 
ENDBRANCH  19  33
ENDBRANCH  18  23
ENDBRANCH   1  18
TORSDOF 7
