REMARK  Name = ZINC60377203
REMARK  8 active torsions:
REMARK  status: ('A' for Active; 'I' for Inactive)
REMARK    1  A    between atoms: C_1  and  C_2
REMARK    2  A    between atoms: C_2  and  C_4
REMARK    3  A    between atoms: C_2  and  N_14
REMARK    4  A    between atoms: C_8  and  S_10
REMARK    5  A    between atoms: S_10  and  N_13
REMARK    6  A    between atoms: N_14  and  C_15
REMARK    7  A    between atoms: N_14  and  C_16
REMARK    8  A    between atoms: C_16  and  C_17
REMARK                            x       y       z     vdW  Elec       q    Type
REMARK                         _______ _______ _______ _____ _____    ______ ____
ROOT
ATOM      1  N   UNL     1       0.713  -0.491   1.192  0.00  0.00    +0.387 N 
ATOM      2  C   UNL     1       2.091   0.018   1.182  0.00  0.00    -0.095 C 
ATOM      3  H   UNL     1       0.240  -0.165   2.022  0.00  0.00    -0.081 HD
ENDROOT
BRANCH   1   5
ATOM      4  C   UNL     1      -0.019   1.526   0.010  0.00  0.00    -0.008 C 
ATOM      5  C   UNL     1       0.002  -0.004   0.002  0.00  0.00    -0.041 C 
BRANCH   5   6
ATOM      6  C   UNL     1      -1.412  -0.526   0.013  0.00  0.00    -0.059 A 
ATOM      7  C   UNL     1      -2.123  -0.571   1.198  0.00  0.00    +0.002 A 
ATOM      8  C   UNL     1      -3.420  -1.049   1.207  0.00  0.00    +0.002 A 
ATOM      9  C   UNL     1      -4.006  -1.482   0.032  0.00  0.00    +0.028 A 
ATOM     10  C   UNL     1      -3.295  -1.436  -1.152  0.00  0.00    +0.105 A 
ATOM     11  C   UNL     1      -1.999  -0.954  -1.163  0.00  0.00    +0.030 A 
BRANCH  10  12
ATOM     12  S   UNL     1      -4.042  -1.988  -2.650  0.00  0.00    +0.056 S 
ATOM     13  O   UNL     1      -2.981  -2.351  -3.523  0.00  0.00    -0.153 OA
ATOM     14  O   UNL     1      -5.069  -2.898  -2.280  0.00  0.00    -0.153 OA
BRANCH  12  15
ATOM     15  N   UNL     1      -4.792  -0.680  -3.334  0.00  0.00    -0.204 NA
ATOM     16  H   UNL     1      -4.880  -0.621  -4.298  0.00  0.00    +0.144 HD
ATOM     17  H   UNL     1      -5.143   0.027  -2.771  0.00  0.00    +0.144 HD
ENDBRANCH  12  15
ENDBRANCH  10  12
ENDBRANCH   5   6
ENDBRANCH   1   5
BRANCH   1  18
ATOM     18  C   UNL     1       0.733  -1.960   1.184  0.00  0.00    -0.003 C 
BRANCH  18  19
ATOM     19  C   UNL     1       1.352  -2.461   2.463  0.00  0.00    +0.094 A 
ATOM     20  N   UNL     1       1.476  -3.798   2.664  0.00  0.00    -0.312 N 
ATOM     21  H   UNL     1       1.164  -4.412   1.981  0.00  0.00    +0.170 HD
ATOM     22  C   UNL     1       2.023  -4.288   3.793  0.00  0.00    +0.260 A 
ATOM     23  O   UNL     1       2.128  -5.491   3.960  0.00  0.00    -0.267 OA
ATOM     24  C   UNL     1       2.480  -3.370   4.793  0.00  0.00    +0.075 A 
ATOM     25  C   UNL     1       3.103  -3.677   6.089  0.00  0.00    -0.023 A 
ATOM     26  C   UNL     1       3.447  -2.631   6.861  0.00  0.00    -0.004 A 
ATOM     27  S   UNL     1       2.974  -1.195   5.925  0.00  0.00    -0.073 S 
ATOM     28  C   UNL     1       2.311  -2.011   4.497  0.00  0.00    +0.116 A 
ATOM     29  N   UNL     1       1.764  -1.600   3.356  0.00  0.00    -0.229 NA
ATOM     30  C   UNL     1       4.069  -3.065   8.161  0.00  0.00    +0.043 C 
ATOM     31  C   UNL     1       3.682  -4.554   8.298  0.00  0.00    +0.010 C 
ATOM     32  C   UNL     1       3.486  -4.964   6.825  0.00  0.00    +0.037 C 
ENDBRANCH  18  19
ENDBRANCH   1  18
TORSDOF 6
