REMARK  Name = ZINC35729738
REMARK  11 active torsions:
REMARK  status: ('A' for Active; 'I' for Inactive)
REMARK    1  A    between atoms: C_1  and  C_2
REMARK    2  A    between atoms: C_5  and  N_8
REMARK    3  A    between atoms: N_11  and  C_12
REMARK    4  A    between atoms: C_15  and  C_18
REMARK    5  A    between atoms: C_20  and  C_28
REMARK    6  A    between atoms: C_21  and  C_27
REMARK    7  A    between atoms: N_22  and  C_26
REMARK    8  A    between atoms: C_28  and  O_30
REMARK    9  A    between atoms: O_30  and  C_31
REMARK   10  A    between atoms: C_31  and  C_32
REMARK   11  A    between atoms: C_31  and  C_33
REMARK                            x       y       z     vdW  Elec       q    Type
REMARK                         _______ _______ _______ _____ _____    ______ ____
ROOT
ATOM      1  C   UNL     1       1.725  -6.136   3.342  0.00  0.00    +0.035 A 
ATOM      2  C   UNL     1       1.524  -5.699   4.645  0.00  0.00    +0.024 A 
ATOM      3  C   UNL     1       1.073  -6.582   5.607  0.00  0.00    +0.007 A 
ATOM      4  C   UNL     1       0.823  -7.901   5.273  0.00  0.00    -0.022 A 
ATOM      5  C   UNL     1       1.023  -8.339   3.977  0.00  0.00    +0.007 A 
ATOM      6  C   UNL     1       1.467  -7.460   3.010  0.00  0.00    +0.024 A 
ENDROOT
BRANCH   4   7
ATOM      7  C   UNL     1       0.332  -8.862   6.325  0.00  0.00    +0.141 C 
ATOM      8  C   UNL     1       1.530  -9.616   6.865  0.00  0.00    +0.078 C 
ATOM      9  C   UNL     1       1.520 -10.963   6.768  0.00  0.00    +0.021 C 
ATOM     10  N   UNL     1       0.467 -11.622   6.202  0.00  0.00    -0.289 N 
ATOM     11  C   UNL     1      -0.615 -11.006   5.710  0.00  0.00    +0.137 C 
ATOM     12  S   UNL     1      -1.867 -11.954   5.027  0.00  0.00    -0.018 S 
ATOM     13  N   UNL     1      -0.751  -9.666   5.734  0.00  0.00    -0.315 N 
ATOM     14  C   UNL     1       0.525 -13.084   6.129  0.00  0.00    +0.137 C 
ATOM     15  C   UNL     1       2.692 -11.753   7.293  0.00  0.00    +0.061 C 
ATOM     16  H   UNL     1      -1.544  -9.242   5.372  0.00  0.00    +0.149 HD
BRANCH   8  17
ATOM     17  C   UNL     1       2.621  -8.933   7.450  0.00  0.00    +0.339 C 
ATOM     18  O   UNL     1       3.623  -9.546   7.769  0.00  0.00    -0.245 OA
BRANCH  17  19
ATOM     19  O   UNL     1       2.551  -7.601   7.656  0.00  0.00    -0.459 OA
BRANCH  19  20
ATOM     20  C   UNL     1       3.690  -6.976   8.251  0.00  0.00    +0.171 C 
ATOM     21  C   UNL     1       4.654  -6.521   7.153  0.00  0.00    +0.052 C 
ATOM     22  C   UNL     1       3.238  -5.763   9.067  0.00  0.00    +0.052 C 
ENDBRANCH  19  20
ENDBRANCH  17  19
ENDBRANCH   8  17
ENDBRANCH   4   7
BRANCH   1  26
ATOM     23  N   UNL     1       2.295  -4.587   0.129  0.00  0.00    -0.269 N 
ATOM     24  C   UNL     1       1.773  -5.376   1.088  0.00  0.00    +0.308 C 
ATOM     25  O   UNL     1       0.934  -6.208   0.801  0.00  0.00    -0.252 OA
ATOM     26  N   UNL     1       2.181  -5.244   2.366  0.00  0.00    -0.269 N 
ATOM     27  H   UNL     1       3.019  -3.978   0.343  0.00  0.00    +0.156 HD
ATOM     28  H   UNL     1       2.792  -4.530   2.608  0.00  0.00    +0.156 HD
BRANCH  23  33
ATOM     29  C   UNL     1       0.255  -4.824  -5.160  0.00  0.00    +0.044 C 
ATOM     30  C   UNL     1       0.797  -4.761  -3.755  0.00  0.00    -0.050 A 
ATOM     31  C   UNL     1      -0.048  -4.969  -2.680  0.00  0.00    +0.005 A 
ATOM     32  C   UNL     1       0.446  -4.912  -1.391  0.00  0.00    +0.023 A 
ATOM     33  C   UNL     1       1.792  -4.646  -1.176  0.00  0.00    +0.035 A 
ATOM     34  C   UNL     1       2.637  -4.437  -2.257  0.00  0.00    +0.023 A 
ATOM     35  C   UNL     1       2.139  -4.500  -3.544  0.00  0.00    +0.005 A 
ENDBRANCH  23  33
ENDBRANCH   1  26
TORSDOF 6
