REMARK  Name = ZINC43092003
REMARK  6 active torsions:
REMARK  status: ('A' for Active; 'I' for Inactive)
REMARK    1  A    between atoms: C_1  and  C_2
REMARK    2  A    between atoms: C_2  and  C_3
REMARK    3  A    between atoms: C_3  and  C_5
REMARK    4  A    between atoms: C_3  and  N_22
REMARK    5  A    between atoms: C_5  and  C_7
REMARK    6  A    between atoms: C_5  and  N_14
REMARK                            x       y       z     vdW  Elec       q    Type
REMARK                         _______ _______ _______ _____ _____    ______ ____
ROOT
ATOM      1  C   UNL     1      -1.413  -2.063   0.004  0.00  0.00    +0.074 C 
ENDROOT
BRANCH   1   2
ATOM      2  N   UNL     1      -2.265  -3.070  -0.643  0.00  0.00    -0.294 NA
ATOM      3  C   UNL     1      -3.320  -3.527   0.264  0.00  0.00    +0.107 C 
ATOM      4  C   UNL     1      -4.431  -4.216  -0.535  0.00  0.00    +0.181 C 
ATOM      5  S   UNL     1      -3.728  -5.677  -1.360  0.00  0.00    -0.029 S 
ATOM      6  O   UNL     1      -4.648  -6.126  -2.346  0.00  0.00    -0.174 OA
ATOM      7  O   UNL     1      -3.279  -6.587  -0.366  0.00  0.00    -0.174 OA
ATOM      8  C   UNL     1      -2.280  -4.966  -2.200  0.00  0.00    +0.181 C 
ATOM      9  C   UNL     1      -1.462  -4.174  -1.174  0.00  0.00    +0.107 C 
ENDBRANCH   1   2
BRANCH   1  10
ATOM     10  C   UNL     1      -0.856  -2.627   1.286  0.00  0.00    -0.018 A 
ATOM     11  C   UNL     1      -1.536  -2.442   2.476  0.00  0.00    +0.006 A 
ATOM     12  C   UNL     1      -1.026  -2.959   3.651  0.00  0.00    +0.000 A 
ATOM     13  C   UNL     1       0.165  -3.662   3.639  0.00  0.00    +0.001 A 
ATOM     14  C   UNL     1       0.845  -3.848   2.450  0.00  0.00    +0.015 A 
ATOM     15  C   UNL     1       0.332  -3.335   1.272  0.00  0.00    +0.022 A 
ATOM     16 BR   UNL     1       1.259  -3.594  -0.355  0.00  0.00    -0.050 Br
ENDBRANCH   1  10
BRANCH   1  17
ATOM     17  C   UNL     1      -2.242  -0.816   0.314  0.00  0.00    -0.053 C 
BRANCH  17  18
ATOM     18  N   UNL     1      -2.900  -0.349  -0.913  0.00  0.00    +0.381 N 
ATOM     19  H   UNL     1      -2.201  -0.125  -1.606  0.00  0.00    -0.090 HD
ATOM     20  H   UNL     1      -3.505  -1.075  -1.268  0.00  0.00    -0.090 HD
ATOM     21  H   UNL     1      -3.447   0.474  -0.710  0.00  0.00    -0.090 HD
ENDBRANCH  17  18
BRANCH  17  23
ATOM     22  C   UNL     1      -2.171   1.481   1.294  0.00  0.00    +0.002 C 
ATOM     23  C   UNL     1      -1.326   0.285   0.852  0.00  0.00    -0.018 C 
ENDBRANCH  17  23
ENDBRANCH   1  17
TORSDOF 5
