REMARK  Name = ZINC09487174
REMARK  8 active torsions:
REMARK  status: ('A' for Active; 'I' for Inactive)
REMARK    1  A    between atoms: C_1  and  C_2
REMARK    2  A    between atoms: C_5  and  N_9
REMARK    3  A    between atoms: C_6  and  C_8
REMARK    4  A    between atoms: C_10  and  C_12
REMARK    5  A    between atoms: C_12  and  C_14
REMARK    6  A    between atoms: C_12  and  N_21
REMARK    7  A    between atoms: C_14  and  C_15
REMARK    8  A    between atoms: C_22  and  C_24
REMARK                            x       y       z     vdW  Elec       q    Type
REMARK                         _______ _______ _______ _____ _____    ______ ____
ROOT
ATOM      1  C   UNL     1      -3.786   5.895   0.283  0.00  0.00    +0.163 C 
ENDROOT
BRANCH   1   3
ATOM      2  N   UNL     1      -2.456   3.823   0.045  0.00  0.00    -0.284 N 
ATOM      3  C   UNL     1      -2.473   5.166   0.154  0.00  0.00    +0.238 C 
ATOM      4  O   UNL     1      -1.432   5.788   0.148  0.00  0.00    -0.273 OA
ATOM      5  H   UNL     1      -3.289   3.332  -0.031  0.00  0.00    +0.155 HD
BRANCH   2  10
ATOM      6  C   UNL     1       2.488   1.041   0.029  0.00  0.00    +0.044 C 
ATOM      7  C   UNL     1       1.175   1.780   0.033  0.00  0.00    -0.050 A 
ATOM      8  C   UNL     1       1.083   3.021   0.636  0.00  0.00    +0.005 A 
ATOM      9  C   UNL     1      -0.119   3.701   0.642  0.00  0.00    +0.024 A 
ATOM     10  C   UNL     1      -1.237   3.137   0.041  0.00  0.00    +0.036 A 
ATOM     11  C   UNL     1      -1.141   1.893  -0.568  0.00  0.00    -0.029 A 
ATOM     12  C   UNL     1       0.064   1.216  -0.566  0.00  0.00    +0.008 A 
ATOM     13  C   UNL     1      -2.349   1.280  -1.226  0.00  0.00    +0.045 C 
ENDBRANCH   2  10
ENDBRANCH   1   3
BRANCH   1  14
ATOM     14  N   UNL     1      -3.537   7.335   0.386  0.00  0.00    -0.305 N 
ATOM     15  C   UNL     1      -4.437   8.133   0.994  0.00  0.00    +0.200 C 
ATOM     16  O   UNL     1      -5.453   7.659   1.457  0.00  0.00    -0.278 OA
ATOM     17  H   UNL     1      -2.724   7.714   0.016  0.00  0.00    +0.149 HD
BRANCH  15  18
ATOM     18  C   UNL     1      -4.180   9.614   1.100  0.00  0.00    +0.021 C 
ATOM     19  C   UNL     1      -3.236   9.890   2.271  0.00  0.00    +0.028 C 
ATOM     20  C   UNL     1      -3.166  11.372   2.536  0.00  0.00    -0.047 A 
ATOM     21  C   UNL     1      -2.118  11.857   3.305  0.00  0.00    +0.004 A 
ATOM     22  C   UNL     1      -2.021  13.207   3.579  0.00  0.00    +0.000 A 
ATOM     23  C   UNL     1      -2.971  14.079   3.083  0.00  0.00    +0.000 A 
ATOM     24  C   UNL     1      -4.013  13.598   2.316  0.00  0.00    +0.002 A 
ATOM     25  C   UNL     1      -4.112  12.242   2.038  0.00  0.00    -0.061 A 
ATOM     26  C   UNL     1      -5.263  11.766   1.193  0.00  0.00    -0.045 C 
ATOM     27  N   UNL     1      -5.453  10.317   1.348  0.00  0.00    +0.389 N 
ATOM     28  H   UNL     1      -5.773  10.115   2.302  0.00  0.00    -0.084 HD
ATOM     29  H   UNL     1      -6.158   9.992   0.675  0.00  0.00    -0.084 HD
ENDBRANCH  15  18
ENDBRANCH   1  14
BRANCH   1  30
ATOM     30  C   UNL     1      -4.649   5.613  -0.948  0.00  0.00    +0.067 C 
BRANCH  30  31
ATOM     31  C   UNL     1      -6.007   6.241  -0.763  0.00  0.00    -0.045 A 
ATOM     32  C   UNL     1      -7.028   5.518  -0.175  0.00  0.00    +0.004 A 
ATOM     33  C   UNL     1      -8.272   6.095  -0.002  0.00  0.00    +0.000 A 
ATOM     34  C   UNL     1      -8.498   7.391  -0.426  0.00  0.00    +0.000 A 
ATOM     35  C   UNL     1      -7.479   8.112  -1.019  0.00  0.00    +0.000 A 
ATOM     36  C   UNL     1      -6.233   7.537  -1.188  0.00  0.00    +0.004 A 
ENDBRANCH  30  31
ENDBRANCH   1  30
TORSDOF 6
