REMARK  Name = ZINC39685800
REMARK  12 active torsions:
REMARK  status: ('A' for Active; 'I' for Inactive)
REMARK    1  A    between atoms: C_1  and  C_2
REMARK    2  A    between atoms: C_6  and  C_9
REMARK    3  A    between atoms: C_13  and  C_22
REMARK    4  A    between atoms: N_24  and  C_25
REMARK    5  A    between atoms: C_25  and  C_27
REMARK    6  A    between atoms: C_25  and  C_30
REMARK    7  A    between atoms: C_27  and  C_28
REMARK    8  A    between atoms: C_27  and  C_29
REMARK    9  A    between atoms: N_32  and  C_33
REMARK   10  A    between atoms: C_33  and  C_34
REMARK   11  A    between atoms: C_33  and  C_35
REMARK   12  A    between atoms: C_33  and  C_36
REMARK                            x       y       z     vdW  Elec       q    Type
REMARK                         _______ _______ _______ _____ _____    ______ ____
ROOT
ATOM      1  C   UNL     1      -0.512  -2.297   4.831  0.00  0.00    +0.252 C 
ATOM      2  O   UNL     1       0.222  -2.311   5.800  0.00  0.00    -0.270 OA
ATOM      3  N   UNL     1      -1.825  -2.562   4.977  0.00  0.00    -0.296 N 
ATOM      4  C   UNL     1      -2.867  -2.597   3.924  0.00  0.00    +0.121 C 
ATOM      5  C   UNL     1      -3.767  -3.795   4.305  0.00  0.00    +0.100 C 
ATOM      6  C   UNL     1      -3.558  -3.976   5.818  0.00  0.00    -0.004 C 
ATOM      7  C   UNL     1      -2.553  -2.889   6.226  0.00  0.00    +0.115 C 
ATOM      8  C   UNL     1      -4.878  -3.783   6.559  0.00  0.00    -0.010 C 
ATOM      9  C   UNL     1      -4.657  -4.025   8.055  0.00  0.00    -0.082 C 
ATOM     10  N   UNL     1      -4.151  -5.387   8.263  0.00  0.00    +0.379 N 
ATOM     11  C   UNL     1      -2.838  -5.536   7.624  0.00  0.00    -0.082 C 
ATOM     12  C   UNL     1      -2.982  -5.358   6.110  0.00  0.00    -0.010 C 
ATOM     13  H   UNL     1      -4.064  -5.565   9.252  0.00  0.00    -0.086 HD
ATOM     14  H   UNL     1      -4.796  -6.049   7.860  0.00  0.00    -0.086 HD
ENDROOT
BRANCH   1  20
ATOM     15  C   UNL     1       0.640   1.036   1.296  0.00  0.00    +0.047 C 
ATOM     16  C   UNL     1       0.592  -0.388   1.789  0.00  0.00    -0.014 A 
ATOM     17  C   UNL     1       1.062  -1.411   0.986  0.00  0.00    +0.009 A 
ATOM     18  C   UNL     1       1.023  -2.721   1.427  0.00  0.00    +0.039 A 
ATOM     19  C   UNL     1       0.512  -3.018   2.677  0.00  0.00    +0.138 A 
ATOM     20  C   UNL     1       0.035  -1.989   3.496  0.00  0.00    +0.107 A 
ATOM     21  C   UNL     1       0.084  -0.666   3.043  0.00  0.00    +0.141 A 
ATOM     22  F   UNL     1      -0.369   0.336   3.828  0.00  0.00    -0.204 F 
ATOM     23  F   UNL     1       0.474  -4.298   3.107  0.00  0.00    -0.205 F 
ENDBRANCH   1  20
BRANCH   5  24
ATOM     24  C   UNL     1      -5.210  -3.482   4.005  0.00  0.00    +0.219 C 
ATOM     25  O   UNL     1      -5.614  -2.342   4.089  0.00  0.00    -0.275 OA
ATOM     26  N   UNL     1      -6.052  -4.471   3.643  0.00  0.00    -0.303 N 
ATOM     27  H   UNL     1      -5.729  -5.383   3.576  0.00  0.00    +0.149 HD
BRANCH  26  28
ATOM     28  C   UNL     1      -7.455  -4.168   3.352  0.00  0.00    +0.161 C 
BRANCH  28  29
ATOM     29  C   UNL     1      -8.293  -5.400   3.578  0.00  0.00    +0.234 C 
ATOM     30  O   UNL     1      -7.768  -6.492   3.612  0.00  0.00    -0.274 OA
ATOM     31  N   UNL     1      -9.626  -5.287   3.743  0.00  0.00    -0.309 N 
ATOM     32  H   UNL     1     -10.056  -4.423   3.647  0.00  0.00    +0.149 HD
BRANCH  31  33
ATOM     33  C   UNL     1     -10.427  -6.471   4.066  0.00  0.00    +0.026 C 
ATOM     34  C   UNL     1      -9.940  -7.070   5.387  0.00  0.00    +0.031 C 
ATOM     35  C   UNL     1     -11.898  -6.072   4.199  0.00  0.00    +0.031 C 
ATOM     36  C   UNL     1     -10.278  -7.507   2.950  0.00  0.00    +0.031 C 
ENDBRANCH  31  33
ENDBRANCH  28  29
BRANCH  28  37
ATOM     37  C   UNL     1      -7.589  -3.720   1.895  0.00  0.00    +0.012 C 
ATOM     38  C   UNL     1      -6.818  -2.415   1.690  0.00  0.00    +0.009 C 
ATOM     39  C   UNL     1      -7.015  -4.801   0.976  0.00  0.00    +0.009 C 
ENDBRANCH  28  37
ENDBRANCH  26  28
ENDBRANCH   5  24
TORSDOF 6
