REMARK  Name = ZINC09783207
REMARK  8 active torsions:
REMARK  status: ('A' for Active; 'I' for Inactive)
REMARK    1  A    between atoms: C_4  and  N_11
REMARK    2  A    between atoms: C_5  and  C_7
REMARK    3  A    between atoms: C_12  and  C_14
REMARK    4  A    between atoms: C_14  and  N_56
REMARK    5  A    between atoms: C_20  and  C_22
REMARK    6  A    between atoms: C_22  and  C_23
REMARK    7  A    between atoms: C_23  and  C_24
REMARK    8  A    between atoms: C_26  and  C_29
REMARK                            x       y       z     vdW  Elec       q    Type
REMARK                         _______ _______ _______ _____ _____    ______ ____
ROOT
ATOM      1  C   UNL     1       0.571  -0.512  -1.275  0.00  0.00    -0.059 C 
ATOM      2  C   UNL     1       0.743  -2.032  -1.176  0.00  0.00    +0.089 C 
ATOM      3  N   UNL     1      -0.548  -2.624  -0.793  0.00  0.00    -0.305 N 
ATOM      4  C   UNL     1      -1.246  -2.073   0.378  0.00  0.00    +0.089 C 
ATOM      5  C   UNL     1      -1.339  -0.552   0.218  0.00  0.00    -0.059 C 
ATOM      6  C   UNL     1      -1.078  -3.644  -1.498  0.00  0.00    +0.216 C 
ATOM      7  O   UNL     1      -2.144  -4.120  -1.168  0.00  0.00    -0.276 OA
ATOM      8  N   UNL     1       0.021  -0.013   0.004  0.00  0.00    +0.387 N 
ATOM      9  H   UNL     1       0.627  -0.325   0.772  0.00  0.00    -0.081 HD
ENDROOT
BRANCH   8  10
ATOM     10  C   UNL     1      -0.017   1.464  -0.007  0.00  0.00    +0.019 C 
BRANCH  10  12
ATOM     11  N   UNL     1       1.624   3.315   0.004  0.00  0.00    -0.287 N 
ATOM     12  C   UNL     1       1.396   1.986  -0.006  0.00  0.00    +0.201 C 
ATOM     13  O   UNL     1       2.329   1.211  -0.015  0.00  0.00    -0.278 OA
ATOM     14  H   UNL     1       0.881   3.935  -0.054  0.00  0.00    +0.155 HD
BRANCH  11  18
ATOM     15  C   UNL     1       5.522   4.757   0.290  0.00  0.00    +0.001 A 
ATOM     16  C   UNL     1       5.267   3.594  -0.413  0.00  0.00    +0.002 A 
ATOM     17  C   UNL     1       3.977   3.110  -0.505  0.00  0.00    +0.024 A 
ATOM     18  C   UNL     1       2.933   3.799   0.100  0.00  0.00    +0.045 A 
ATOM     19  C   UNL     1       3.193   4.967   0.805  0.00  0.00    +0.076 A 
ATOM     20  C   UNL     1       4.487   5.443   0.897  0.00  0.00    +0.014 A 
BRANCH  19  21
ATOM     21  C   UNL     1       2.065   5.714   1.469  0.00  0.00    +0.419 C 
ATOM     22  F   UNL     1       2.572   6.849   2.112  0.00  0.00    -0.166 F 
ATOM     23  F   UNL     1       1.132   6.104   0.502  0.00  0.00    -0.166 F 
ATOM     24  F   UNL     1       1.445   4.884   2.408  0.00  0.00    -0.166 F 
ENDBRANCH  19  21
ENDBRANCH  11  18
ENDBRANCH  10  12
ENDBRANCH   8  10
BRANCH   6  25
ATOM     25  C   UNL     1      -0.345  -4.193  -2.695  0.00  0.00    +0.105 C 
BRANCH  25  26
ATOM     26  C   UNL     1      -1.157  -5.336  -3.309  0.00  0.00    +0.108 C 
BRANCH  26  27
ATOM     27  C   UNL     1      -0.424  -5.885  -4.506  0.00  0.00    +0.228 A 
ATOM     28  N   UNL     1       0.453  -6.857  -4.501  0.00  0.00    -0.191 NA
ATOM     29  C   UNL     1       0.839  -7.005  -5.790  0.00  0.00    +0.209 A 
ATOM     30  N   UNL     1       0.178  -6.119  -6.494  0.00  0.00    -0.056 NA
ATOM     31  O   UNL     1      -0.553  -5.475  -5.771  0.00  0.00    -0.338 OA
BRANCH  29  32
ATOM     32  C   UNL     1       1.822  -7.979  -6.306  0.00  0.00    +0.060 A 
ATOM     33  C   UNL     1       2.247  -8.178  -7.593  0.00  0.00    +0.019 A 
ATOM     34  C   UNL     1       3.185  -9.155  -7.837  0.00  0.00    +0.008 A 
ATOM     35  C   UNL     1       3.653  -9.897  -6.800  0.00  0.00    +0.046 A 
ATOM     36  S   UNL     1       2.760  -9.210  -5.415  0.00  0.00    -0.093 S 
ENDBRANCH  29  32
ENDBRANCH  26  27
ENDBRANCH  25  26
ENDBRANCH   6  25
TORSDOF 8
