REMARK  Name = ZINC39631906
REMARK  16 active torsions:
REMARK  status: ('A' for Active; 'I' for Inactive)
REMARK    1  A    between atoms: C_1  and  C_2
REMARK    2  A    between atoms: C_2  and  C_3
REMARK    3  A    between atoms: C_3  and  C_4
REMARK    4  A    between atoms: C_4  and  C_5
REMARK    5  A    between atoms: C_5  and  C_7
REMARK    6  A    between atoms: C_5  and  C_8
REMARK    7  A    between atoms: C_12  and  C_21
REMARK    8  A    between atoms: N_23  and  C_24
REMARK    9  A    between atoms: C_24  and  C_26
REMARK   10  A    between atoms: C_24  and  C_27
REMARK   11  A    between atoms: C_27  and  C_28
REMARK   12  A    between atoms: C_28  and  C_29
REMARK   13  A    between atoms: C_29  and  C_30
REMARK   14  A    between atoms: C_30  and  C_31
REMARK   15  A    between atoms: C_30  and  C_32
REMARK   16  A    between atoms: C_30  and  O_33
REMARK                            x       y       z     vdW  Elec       q    Type
REMARK                         _______ _______ _______ _____ _____    ______ ____
ROOT
ATOM      1  C   UNL     1       1.609  -3.777   2.573  0.00  0.00    +0.218 C 
ATOM      2  O   UNL     1       1.026  -4.293   1.643  0.00  0.00    -0.275 OA
ATOM      3  N   UNL     1       2.118  -4.544   3.558  0.00  0.00    -0.300 N 
ATOM      4  C   UNL     1       2.849  -4.101   4.768  0.00  0.00    +0.121 C 
ATOM      5  C   UNL     1       2.333  -5.022   5.896  0.00  0.00    +0.100 C 
ATOM      6  C   UNL     1       1.825  -6.281   5.173  0.00  0.00    -0.004 C 
ATOM      7  C   UNL     1       2.066  -6.021   3.679  0.00  0.00    +0.115 C 
ATOM      8  C   UNL     1       0.335  -6.476   5.435  0.00  0.00    -0.010 C 
ATOM      9  C   UNL     1      -0.134  -7.764   4.753  0.00  0.00    -0.082 C 
ATOM     10  N   UNL     1       0.629  -8.903   5.278  0.00  0.00    +0.379 N 
ATOM     11  C   UNL     1       2.050  -8.753   4.940  0.00  0.00    -0.082 C 
ATOM     12  C   UNL     1       2.611  -7.506   5.630  0.00  0.00    -0.010 C 
ATOM     13  H   UNL     1       0.525  -8.942   6.281  0.00  0.00    -0.086 HD
ATOM     14  H   UNL     1       0.277  -9.758   4.872  0.00  0.00    -0.086 HD
ENDROOT
BRANCH   5  15
ATOM     15  C   UNL     1       1.208  -4.354   6.644  0.00  0.00    +0.218 C 
ATOM     16  O   UNL     1       0.476  -3.575   6.071  0.00  0.00    -0.275 OA
ATOM     17  N   UNL     1       1.016  -4.623   7.951  0.00  0.00    -0.312 N 
ATOM     18  H   UNL     1       1.601  -5.246   8.409  0.00  0.00    +0.149 HD
BRANCH  17  19
ATOM     19  C   UNL     1      -0.078  -3.974   8.678  0.00  0.00    +0.070 C 
ATOM     20  C   UNL     1      -1.369  -4.770   8.475  0.00  0.00    +0.028 C 
BRANCH  19  21
ATOM     21  C   UNL     1       0.261  -3.924  10.170  0.00  0.00    +0.022 C 
BRANCH  21  22
ATOM     22  C   UNL     1       1.480  -3.025  10.386  0.00  0.00    +0.005 C 
BRANCH  22  23
ATOM     23  C   UNL     1       1.819  -2.975  11.877  0.00  0.00    +0.034 C 
BRANCH  23  24
ATOM     24  C   UNL     1       3.039  -2.077  12.093  0.00  0.00    +0.061 C 
ATOM     25  C   UNL     1       3.454  -2.125  13.565  0.00  0.00    +0.041 C 
ATOM     26  C   UNL     1       4.196  -2.568  11.220  0.00  0.00    +0.041 C 
BRANCH  24  27
ATOM     27  O   UNL     1       2.710  -0.733  11.735  0.00  0.00    -0.389 OA
ATOM     28  H   UNL     1       1.983  -0.356  12.249  0.00  0.00    +0.210 HD
ENDBRANCH  24  27
ENDBRANCH  23  24
ENDBRANCH  22  23
ENDBRANCH  21  22
ENDBRANCH  19  21
ENDBRANCH  17  19
ENDBRANCH   5  15
BRANCH   1  29
ATOM     29  C   UNL     1       1.765  -2.279   2.627  0.00  0.00    +0.072 C 
ATOM     30  C   UNL     1       3.252  -1.921   2.643  0.00  0.00    +0.017 C 
BRANCH  29  31
ATOM     31  C   UNL     1       1.103  -1.653   1.398  0.00  0.00    +0.012 C 
BRANCH  31  32
ATOM     32  C   UNL     1       1.151  -0.128   1.515  0.00  0.00    +0.000 C 
BRANCH  32  34
ATOM     33  C   UNL     1       0.537   2.023   0.402  0.00  0.00    +0.004 C 
ATOM     34  C   UNL     1       0.489   0.499   0.286  0.00  0.00    -0.003 C 
ENDBRANCH  32  34
ENDBRANCH  31  32
ENDBRANCH  29  31
ENDBRANCH   1  29
TORSDOF 11
