REMARK  Name = ZINC10275484
REMARK  11 active torsions:
REMARK  status: ('A' for Active; 'I' for Inactive)
REMARK    1  A    between atoms: C_1  and  C_2
REMARK    2  A    between atoms: C_2  and  C_3
REMARK    3  A    between atoms: C_7  and  C_33
REMARK    4  A    between atoms: C_8  and  N_9
REMARK    5  A    between atoms: C_10  and  C_12
REMARK    6  A    between atoms: C_12  and  S_13
REMARK    7  A    between atoms: S_13  and  C_14
REMARK    8  A    between atoms: N_24  and  C_25
REMARK    9  A    between atoms: C_29  and  C_32
REMARK   10  A    between atoms: C_30  and  C_31
REMARK   11  A    between atoms: C_33  and  C_34
REMARK                            x       y       z     vdW  Elec       q    Type
REMARK                         _______ _______ _______ _____ _____    ______ ____
ROOT
ATOM      1  C   UNL     1      -0.160  -0.891   7.692  0.00  0.00    +0.177 A 
ATOM      2  N   UNL     1       0.107   0.390   7.639  0.00  0.00    -0.223 NA
ATOM      3  C   UNL     1       0.167   1.147   8.760  0.00  0.00    +0.079 A 
ATOM      4  C   UNL     1       0.447   2.516   8.706  0.00  0.00    +0.028 A 
ATOM      5  C   UNL     1       0.503   3.240   9.863  0.00  0.00    +0.002 A 
ATOM      6  C   UNL     1       0.286   2.637  11.096  0.00  0.00    +0.001 A 
ATOM      7  C   UNL     1       0.011   1.300  11.181  0.00  0.00    +0.015 A 
ATOM      8  C   UNL     1      -0.053   0.536  10.016  0.00  0.00    +0.065 A 
ATOM      9  C   UNL     1      -0.344  -0.903  10.047  0.00  0.00    +0.267 A 
ATOM     10  O   UNL     1      -0.542  -1.484  11.098  0.00  0.00    -0.267 OA
ATOM     11  N   UNL     1      -0.385  -1.559   8.864  0.00  0.00    -0.255 N 
ENDROOT
BRANCH  11  12
ATOM     12  C   UNL     1      -0.658  -2.933   8.841  0.00  0.00    +0.055 A 
ATOM     13  C   UNL     1       0.380  -3.851   8.919  0.00  0.00    +0.026 A 
ATOM     14  C   UNL     1       0.107  -5.204   8.896  0.00  0.00    +0.002 A 
ATOM     15  C   UNL     1      -1.200  -5.646   8.795  0.00  0.00    +0.004 A 
ATOM     16  C   UNL     1      -2.236  -4.734   8.716  0.00  0.00    -0.046 A 
ATOM     17  C   UNL     1      -1.970  -3.379   8.744  0.00  0.00    -0.024 A 
ATOM     18  C   UNL     1      -3.100  -2.386   8.664  0.00  0.00    +0.046 C 
ATOM     19  C   UNL     1      -3.659  -5.219   8.607  0.00  0.00    +0.044 C 
ENDBRANCH  11  12
BRANCH   1  20
ATOM     20  S   UNL     1      -0.226  -1.798   6.183  0.00  0.00    -0.078 S 
BRANCH  20  21
ATOM     21  C   UNL     1       0.132  -0.473   5.003  0.00  0.00    +0.173 C 
BRANCH  21  23
ATOM     22  N   UNL     1       0.371  -0.221   2.554  0.00  0.00    -0.284 N 
ATOM     23  C   UNL     1       0.128  -1.031   3.603  0.00  0.00    +0.228 C 
ATOM     24  O   UNL     1      -0.095  -2.209   3.421  0.00  0.00    -0.275 OA
ATOM     25  H   UNL     1       0.620   0.705   2.704  0.00  0.00    +0.155 HD
BRANCH  22  31
ATOM     26  C   UNL     1      -0.967  -0.738   0.611  0.00  0.00    -0.026 A 
ATOM     27  C   UNL     1      -1.069  -1.232  -0.674  0.00  0.00    +0.005 A 
ATOM     28  C   UNL     1       0.057  -1.694  -1.330  0.00  0.00    +0.001 A 
ATOM     29  C   UNL     1       1.287  -1.672  -0.698  0.00  0.00    +0.005 A 
ATOM     30  C   UNL     1       1.394  -1.184   0.590  0.00  0.00    -0.026 A 
ATOM     31  C   UNL     1       0.266  -0.715   1.250  0.00  0.00    +0.040 A 
BRANCH  26  33
ATOM     32  C   UNL     1      -2.296   1.287   1.146  0.00  0.00    +0.009 C 
ATOM     33  C   UNL     1      -2.195  -0.229   1.323  0.00  0.00    +0.033 C 
ENDBRANCH  26  33
BRANCH  30  34
ATOM     34  C   UNL     1       2.735  -1.162   1.279  0.00  0.00    +0.033 C 
ATOM     35  C   UNL     1       2.881  -2.412   2.149  0.00  0.00    +0.009 C 
ENDBRANCH  30  34
ENDBRANCH  22  31
ENDBRANCH  21  23
ENDBRANCH  20  21
ENDBRANCH   1  20
TORSDOF 7
