REMARK  Name = ZINC59935313
REMARK  8 active torsions:
REMARK  status: ('A' for Active; 'I' for Inactive)
REMARK    1  A    between atoms: C_3  and  C_8
REMARK    2  A    between atoms: C_8  and  C_9
REMARK    3  A    between atoms: C_11  and  C_14
REMARK    4  A    between atoms: C_14  and  C_15
REMARK    5  A    between atoms: N_17  and  C_18
REMARK    6  A    between atoms: C_22  and  C_24
REMARK    7  A    between atoms: C_24  and  N_25
REMARK    8  A    between atoms: C_29  and  C_31
REMARK                            x       y       z     vdW  Elec       q    Type
REMARK                         _______ _______ _______ _____ _____    ______ ____
ROOT
ATOM      1  C   UNL     1       5.315  -0.092   4.896  0.00  0.00    +0.223 C 
ATOM      2  O   UNL     1       4.117  -0.265   4.815  0.00  0.00    -0.275 OA
ATOM      3  N   UNL     1       6.139  -1.145   5.062  0.00  0.00    -0.285 N 
ATOM      4  H   UNL     1       7.100  -1.014   5.059  0.00  0.00    +0.155 HD
ENDROOT
BRANCH   3   5
ATOM      5  C   UNL     1       5.608  -2.427   5.240  0.00  0.00    +0.034 A 
ATOM      6  C   UNL     1       4.448  -2.799   4.572  0.00  0.00    +0.023 A 
ATOM      7  C   UNL     1       3.927  -4.065   4.750  0.00  0.00    +0.002 A 
ATOM      8  C   UNL     1       4.558  -4.963   5.592  0.00  0.00    +0.002 A 
ATOM      9  C   UNL     1       5.712  -4.596   6.258  0.00  0.00    -0.062 A 
ATOM     10  C   UNL     1       6.242  -3.333   6.080  0.00  0.00    +0.025 A 
BRANCH   9  11
ATOM     11  C   UNL     1       6.396  -5.577   7.175  0.00  0.00    -0.042 C 
BRANCH  11  12
ATOM     12  N   UNL     1       7.378  -6.358   6.412  0.00  0.00    +0.390 N 
ATOM     13  C   UNL     1       6.680  -7.203   5.420  0.00  0.00    -0.077 C 
ATOM     14  C   UNL     1       7.500  -8.515   5.370  0.00  0.00    -0.020 C 
ATOM     15  C   UNL     1       7.908  -8.687   6.857  0.00  0.00    -0.008 C 
ATOM     16  C   UNL     1       8.134  -7.234   7.325  0.00  0.00    +0.019 C 
ATOM     17  H   UNL     1       8.014  -5.734   5.936  0.00  0.00    -0.080 HD
BRANCH  16  18
ATOM     18  C   UNL     1       9.602  -6.898   7.261  0.00  0.00    +0.197 C 
ATOM     19  O   UNL     1       9.990  -6.014   6.527  0.00  0.00    -0.278 OA
ATOM     20  N   UNL     1      10.483  -7.579   8.020  0.00  0.00    -0.331 N 
ATOM     21  H   UNL     1      10.173  -8.286   8.607  0.00  0.00    +0.145 HD
ATOM     22  H   UNL     1      11.428  -7.363   7.979  0.00  0.00    +0.145 HD
ENDBRANCH  16  18
ENDBRANCH  11  12
ENDBRANCH   9  11
ENDBRANCH   3   5
BRANCH   1  23
ATOM     23  C   UNL     1       5.881   1.302   4.809  0.00  0.00    +0.152 C 
BRANCH  23  26
ATOM     24  C   UNL     1       2.917   3.033   3.481  0.00  0.00    +0.083 A 
ATOM     25  N   UNL     1       3.892   2.172   3.638  0.00  0.00    -0.248 NA
ATOM     26  C   UNL     1       4.759   2.290   4.624  0.00  0.00    +0.057 A 
ATOM     27  C   UNL     1       4.593   3.342   5.466  0.00  0.00    +0.070 A 
ATOM     28  S   UNL     1       3.155   4.117   4.746  0.00  0.00    -0.080 S 
BRANCH  24  29
ATOM     29  C   UNL     1       1.847   3.051   2.420  0.00  0.00    +0.098 C 
BRANCH  29  32
ATOM     30  C   UNL     1      -1.453   2.188   4.040  0.00  0.00    +0.002 A 
ATOM     31  C   UNL     1      -0.356   2.905   3.600  0.00  0.00    +0.004 A 
ATOM     32  C   UNL     1       0.651   2.269   2.899  0.00  0.00    -0.040 A 
ATOM     33  C   UNL     1       0.562   0.914   2.638  0.00  0.00    +0.024 A 
ATOM     34  C   UNL     1      -0.535   0.196   3.077  0.00  0.00    +0.041 A 
ATOM     35  C   UNL     1      -1.543   0.834   3.779  0.00  0.00    +0.020 A 
ATOM     36 CL   UNL     1      -0.648  -1.505   2.749  0.00  0.00    -0.084 Cl
ENDBRANCH  29  32
ENDBRANCH  24  29
ENDBRANCH  23  26
ENDBRANCH   1  23
TORSDOF 8
