REMARK  Name = ZINC23078004
REMARK  12 active torsions:
REMARK  status: ('A' for Active; 'I' for Inactive)
REMARK    1  A    between atoms: C_1  and  C_2
REMARK    2  A    between atoms: C_5  and  S_8
REMARK    3  A    between atoms: S_8  and  C_11
REMARK    4  A    between atoms: C_14  and  N_17
REMARK    5  A    between atoms: N_17  and  N_18
REMARK    6  A    between atoms: C_19  and  C_21
REMARK    7  A    between atoms: C_21  and  C_23
REMARK    8  A    between atoms: C_21  and  N_26
REMARK    9  A    between atoms: C_23  and  C_24
REMARK   10  A    between atoms: C_23  and  C_25
REMARK   11  A    between atoms: C_27  and  C_29
REMARK   12  A    between atoms: C_33  and  C_35
REMARK                            x       y       z     vdW  Elec       q    Type
REMARK                         _______ _______ _______ _____ _____    ______ ____
ROOT
ATOM      1  N   UNL     1       2.404   4.197   0.137  0.00  0.00    -0.235 N 
ATOM      2  C   UNL     1       2.397   5.543   0.070  0.00  0.00    +0.250 C 
ATOM      3  O   UNL     1       1.346   6.139  -0.043  0.00  0.00    -0.272 OA
ATOM      4  H   UNL     1       3.359   3.652   0.155  0.00  0.00    +0.173 HD
ENDROOT
BRANCH   1   5
ATOM      5  N   UNL     1       1.194   3.492   0.185  0.00  0.00    -0.264 N 
ATOM      6  H   UNL     1       0.239   4.036   0.167  0.00  0.00    +0.170 HD
BRANCH   5  10
ATOM      7  C   UNL     1       1.216  -0.667   0.393  0.00  0.00    +0.094 A 
ATOM      8  C   UNL     1       0.014   0.016   0.371  0.00  0.00    +0.029 A 
ATOM      9  C   UNL     1       0.003   1.396   0.302  0.00  0.00    +0.026 A 
ATOM     10  C   UNL     1       1.202   2.097   0.255  0.00  0.00    +0.045 A 
ATOM     11  C   UNL     1       2.407   1.407   0.278  0.00  0.00    +0.026 A 
ATOM     12  C   UNL     1       2.411   0.028   0.346  0.00  0.00    +0.029 A 
BRANCH   7  13
ATOM     13  S   UNL     1       1.226  -2.427   0.481  0.00  0.00    +0.025 S 
ATOM     14  O   UNL     1       2.479  -2.799   1.039  0.00  0.00    -0.164 OA
ATOM     15  O   UNL     1      -0.012  -2.811   1.064  0.00  0.00    -0.164 OA
BRANCH  13  20
ATOM     16  C   UNL     1       1.177  -4.498  -5.186  0.00  0.00    +0.044 C 
ATOM     17  C   UNL     1       1.190  -3.981  -3.770  0.00  0.00    -0.050 A 
ATOM     18  C   UNL     1       2.392  -3.737  -3.134  0.00  0.00    +0.005 A 
ATOM     19  C   UNL     1       2.403  -3.263  -1.835  0.00  0.00    +0.027 A 
ATOM     20  C   UNL     1       1.212  -3.031  -1.174  0.00  0.00    +0.094 A 
ATOM     21  C   UNL     1       0.009  -3.280  -1.809  0.00  0.00    +0.027 A 
ATOM     22  C   UNL     1      -0.002  -3.750  -3.109  0.00  0.00    +0.005 A 
ENDBRANCH  13  20
ENDBRANCH   7  13
ENDBRANCH   5  10
ENDBRANCH   1   5
BRANCH   2  23
ATOM     23  C   UNL     1       3.693   6.308   0.134  0.00  0.00    +0.163 C 
BRANCH  23  24
ATOM     24  N   UNL     1       3.453   7.629   0.720  0.00  0.00    -0.300 N 
ATOM     25  C   UNL     1       4.456   8.284   1.337  0.00  0.00    +0.245 C 
ATOM     26  O   UNL     1       5.560   7.780   1.407  0.00  0.00    -0.270 OA
ATOM     27  H   UNL     1       2.455   8.085   0.656  0.00  0.00    +0.150 HD
BRANCH  25  28
ATOM     28  C   UNL     1       4.213   9.618   1.928  0.00  0.00    +0.037 A 
ATOM     29  C   UNL     1       2.947  10.200   1.849  0.00  0.00    +0.013 A 
ATOM     30  C   UNL     1       2.728  11.444   2.403  0.00  0.00    +0.001 A 
ATOM     31  C   UNL     1       3.759  12.114   3.037  0.00  0.00    +0.003 A 
ATOM     32  C   UNL     1       5.016  11.543   3.119  0.00  0.00    -0.050 A 
ATOM     33  C   UNL     1       5.248  10.297   2.573  0.00  0.00    +0.016 A 
ATOM     34  C   UNL     1       6.133  12.280   3.812  0.00  0.00    +0.044 C 
ENDBRANCH  25  28
ENDBRANCH  23  24
BRANCH  23  35
ATOM     35  C   UNL     1       4.259   6.471  -1.279  0.00  0.00    +0.012 C 
ATOM     36  C   UNL     1       5.623   7.161  -1.205  0.00  0.00    +0.009 C 
ATOM     37  C   UNL     1       4.418   5.095  -1.927  0.00  0.00    +0.009 C 
ENDBRANCH  23  35
ENDBRANCH   2  23
TORSDOF 8
