REMARK  Name = ZINC39550204
REMARK  5 active torsions:
REMARK  status: ('A' for Active; 'I' for Inactive)
REMARK    1  A    between atoms: C_1  and  N_2
REMARK    2  A    between atoms: C_9  and  O_31
REMARK    3  A    between atoms: C_11  and  C_15
REMARK    4  A    between atoms: N_17  and  C_18
REMARK    5  A    between atoms: C_20  and  O_30
REMARK                            x       y       z     vdW  Elec       q    Type
REMARK                         _______ _______ _______ _____ _____    ______ ____
ROOT
ATOM      1  C   UNL     1       2.531  -2.629   0.556  0.00  0.00    +0.229 C 
ATOM      2  O   UNL     1       2.531  -3.349   1.532  0.00  0.00    -0.275 OA
ATOM      3  N   UNL     1       3.697  -2.249  -0.001  0.00  0.00    -0.297 N 
ATOM      4  H   UNL     1       3.697  -1.673  -0.782  0.00  0.00    +0.150 HD
ENDROOT
BRANCH   1  14
ATOM      5  C   UNL     1      -0.018   1.461   0.010  0.00  0.00    +0.138 C 
ATOM      6  N   UNL     1       0.002  -0.004   0.002  0.00  0.00    -0.273 N 
ATOM      7  C   UNL     1      -1.202  -0.715   0.004  0.00  0.00    +0.042 A 
ATOM      8  C   UNL     1      -2.384  -0.088  -0.368  0.00  0.00    +0.024 A 
ATOM      9  C   UNL     1      -3.569  -0.796  -0.365  0.00  0.00    +0.002 A 
ATOM     10  C   UNL     1      -3.581  -2.127   0.009  0.00  0.00    +0.000 A 
ATOM     11  C   UNL     1      -2.406  -2.754   0.381  0.00  0.00    +0.008 A 
ATOM     12  C   UNL     1      -1.217  -2.052   0.379  0.00  0.00    +0.003 A 
ATOM     13  C   UNL     1       0.065  -2.732   0.783  0.00  0.00    +0.167 C 
ATOM     14  C   UNL     1       1.226  -2.160  -0.033  0.00  0.00    +0.194 C 
ATOM     15  C   UNL     1       1.179  -0.656  -0.013  0.00  0.00    +0.234 C 
ATOM     16  O   UNL     1       2.214  -0.025  -0.004  0.00  0.00    -0.274 OA
BRANCH  13  17
ATOM     17  O   UNL     1       0.306  -2.507   2.173  0.00  0.00    -0.386 OA
ATOM     18  H   UNL     1      -0.391  -2.845   2.752  0.00  0.00    +0.210 HD
ENDBRANCH  13  17
ENDBRANCH   1  14
BRANCH   3  19
ATOM     19  C   UNL     1       4.966  -2.705   0.572  0.00  0.00    +0.226 C 
ATOM     20  C   UNL     1       6.016  -1.651   0.277  0.00  0.00    +0.132 C 
ATOM     21  C   UNL     1       7.142  -2.060  -0.441  0.00  0.00    +0.036 A 
ATOM     22  C   UNL     1       8.166  -1.143  -0.757  0.00  0.00    +0.013 A 
ATOM     23  C   UNL     1       9.253  -1.568  -1.457  0.00  0.00    +0.001 A 
ATOM     24  C   UNL     1       9.376  -2.891  -1.869  0.00  0.00    +0.002 A 
ATOM     25  C   UNL     1       8.420  -3.821  -1.593  0.00  0.00    +0.024 A 
ATOM     26  C   UNL     1       7.270  -3.454  -0.874  0.00  0.00    +0.044 A 
ATOM     27  N   UNL     1       6.332  -4.370  -0.603  0.00  0.00    -0.283 N 
ATOM     28  C   UNL     1       5.228  -4.105   0.064  0.00  0.00    +0.245 C 
ATOM     29  O   UNL     1       4.418  -4.989   0.273  0.00  0.00    -0.273 OA
ATOM     30  H   UNL     1       6.473  -5.277  -0.916  0.00  0.00    +0.155 HD
BRANCH  20  31
ATOM     31  O   UNL     1       5.869  -0.386   0.686  0.00  0.00    -0.508 OA
ATOM     32  H   UNL     1       6.602   0.195   0.439  0.00  0.00    +0.292 HD
ENDBRANCH  20  31
ENDBRANCH   3  19
TORSDOF 4
