REMARK  Name = ZINC67618506
REMARK  8 active torsions:
REMARK  status: ('A' for Active; 'I' for Inactive)
REMARK    1  A    between atoms: C_1  and  N_2
REMARK    2  A    between atoms: C_8  and  C_10
REMARK    3  A    between atoms: C_10  and  C_11
REMARK    4  A    between atoms: C_11  and  N_12
REMARK    5  A    between atoms: N_15  and  C_16
REMARK    6  A    between atoms: C_16  and  C_17
REMARK    7  A    between atoms: N_22  and  C_23
REMARK    8  A    between atoms: C_23  and  C_24
REMARK                            x       y       z     vdW  Elec       q    Type
REMARK                         _______ _______ _______ _____ _____    ______ ____
ROOT
ATOM      1  N   UNL     1       4.043  -5.243   2.466  0.00  0.00    -0.299 N 
ATOM      2  C   UNL     1       4.936  -6.243   2.324  0.00  0.00    +0.300 C 
ATOM      3  O   UNL     1       5.274  -6.603   1.213  0.00  0.00    -0.253 OA
ATOM      4  N   UNL     1       5.455  -6.842   3.414  0.00  0.00    -0.301 N 
ATOM      5  H   UNL     1       3.774  -4.955   3.352  0.00  0.00    +0.150 HD
ATOM      6  H   UNL     1       5.186  -6.554   4.300  0.00  0.00    +0.150 HD
ENDROOT
BRANCH   1   7
ATOM      7  C   UNL     1       3.480  -4.591   1.281  0.00  0.00    +0.115 C 
BRANCH   7   8
ATOM      8  C   UNL     1       2.500  -3.500   1.717  0.00  0.00    +0.114 C 
BRANCH   8  16
ATOM      9  C   UNL     1       0.041   2.216   1.050  0.00  0.00    -0.096 C 
ATOM     10  N   UNL     1      -0.002   0.753   0.926  0.00  0.00    +0.380 N 
ATOM     11  C   UNL     1       0.596   0.354  -0.354  0.00  0.00    -0.060 C 
ATOM     12  C   UNL     1       0.448  -1.161  -0.535  0.00  0.00    +0.089 C 
ATOM     13  N   UNL     1       1.027  -1.830   0.640  0.00  0.00    -0.305 N 
ATOM     14  C   UNL     1       0.604  -1.377   1.974  0.00  0.00    +0.089 C 
ATOM     15  C   UNL     1       0.744   0.147   2.037  0.00  0.00    -0.060 C 
ATOM     16  C   UNL     1       1.920  -2.829   0.498  0.00  0.00    +0.217 C 
ATOM     17  O   UNL     1       2.257  -3.189  -0.610  0.00  0.00    -0.276 OA
ATOM     18  H   UNL     1      -0.962   0.442   0.958  0.00  0.00    -0.082 HD
ENDBRANCH   8  16
ENDBRANCH   7   8
ENDBRANCH   1   7
BRANCH   4  19
ATOM     19  C   UNL     1       6.426  -7.929   3.260  0.00  0.00    +0.090 C 
BRANCH  19  20
ATOM     20  C   UNL     1       6.853  -8.430   4.641  0.00  0.00    -0.051 C 
ATOM     21  C   UNL     1       7.997  -9.456   4.496  0.00  0.00    -0.016 C 
ATOM     22  C   UNL     1       9.267  -8.599   4.742  0.00  0.00    -0.020 C 
ATOM     23  C   UNL     1       8.770  -7.604   5.820  0.00  0.00    -0.078 C 
ATOM     24  N   UNL     1       7.368  -7.307   5.446  0.00  0.00    +0.383 N 
ATOM     25  H   UNL     1       7.333  -6.457   4.903  0.00  0.00    -0.081 HD
BRANCH  24  26
ATOM     26  C   UNL     1       6.551  -7.152   6.657  0.00  0.00    -0.075 C 
BRANCH  26  27
ATOM     27  C   UNL     1       7.000  -5.902   7.418  0.00  0.00    -0.028 C 
ATOM     28  C   UNL     1       6.248  -5.817   8.747  0.00  0.00    +0.002 C 
ATOM     29  C   UNL     1       6.697  -4.568   9.508  0.00  0.00    +0.000 C 
ATOM     30  C   UNL     1       6.394  -3.324   8.670  0.00  0.00    +0.000 C 
ATOM     31  C   UNL     1       7.146  -3.409   7.340  0.00  0.00    +0.000 C 
ATOM     32  C   UNL     1       6.697  -4.659   6.580  0.00  0.00    +0.002 C 
ENDBRANCH  26  27
ENDBRANCH  24  26
ENDBRANCH  19  20
ENDBRANCH   4  19
TORSDOF 7
