REMARK  Name = ZINC62014790
REMARK  6 active torsions:
REMARK  status: ('A' for Active; 'I' for Inactive)
REMARK    1  A    between atoms: C_1  and  C_2
REMARK    2  A    between atoms: C_2  and  C_4
REMARK    3  A    between atoms: C_2  and  N_11
REMARK    4  A    between atoms: N_11  and  C_12
REMARK    5  A    between atoms: N_11  and  C_13
REMARK    6  A    between atoms: C_18  and  C_19
REMARK                            x       y       z     vdW  Elec       q    Type
REMARK                         _______ _______ _______ _____ _____    ______ ____
ROOT
ATOM      1  C   UNL     1      -1.555  -0.995  -1.376  0.00  0.00    +0.042 A 
ATOM      2  C   UNL     1      -1.521  -2.384  -1.384  0.00  0.00    +0.024 A 
ATOM      3  C   UNL     1      -1.803  -3.076  -2.544  0.00  0.00    +0.003 A 
ATOM      4  C   UNL     1      -2.121  -2.395  -3.708  0.00  0.00    +0.021 A 
ATOM      5  C   UNL     1      -2.159  -1.016  -3.720  0.00  0.00    +0.053 A 
ATOM      6  C   UNL     1      -1.883  -0.301  -2.551  0.00  0.00    +0.051 A 
ATOM      7 CL   UNL     1      -2.558  -0.170  -5.183  0.00  0.00    -0.083 Cl
ENDROOT
BRANCH   6   8
ATOM      8  C   UNL     1      -1.928   1.173  -2.555  0.00  0.00    +0.097 C 
ATOM      9  N   UNL     1      -3.086   1.804  -2.748  0.00  0.00    -0.387 N 
ATOM     10  N   UNL     1      -0.810   1.875  -2.364  0.00  0.00    -0.344 N 
ATOM     11  H   UNL     1      -3.116   2.774  -2.750  0.00  0.00    +0.157 HD
ATOM     12  H   UNL     1       0.048   1.423  -2.341  0.00  0.00    +0.144 HD
ATOM     13  H   UNL     1      -0.856   2.837  -2.249  0.00  0.00    +0.144 HD
ATOM     14  H   UNL     1      -3.900   1.294  -2.887  0.00  0.00    +0.157 HD
ENDBRANCH   6   8
BRANCH   1  15
ATOM     15  N   UNL     1      -1.272  -0.296  -0.209  0.00  0.00    -0.325 N 
ATOM     16  C   UNL     1      -2.343   0.003   0.744  0.00  0.00    +0.130 C 
BRANCH  15  18
ATOM     17  C   UNL     1       0.105   1.047   1.301  0.00  0.00    +0.033 C 
ATOM     18  C   UNL     1       0.099   0.141   0.068  0.00  0.00    +0.103 C 
BRANCH  18  19
ATOM     19  C   UNL     1       0.968  -1.063   0.325  0.00  0.00    +0.008 A 
ATOM     20  C   UNL     1       0.422  -2.203   0.884  0.00  0.00    +0.008 A 
ATOM     21  C   UNL     1       1.219  -3.308   1.120  0.00  0.00    +0.000 A 
ATOM     22  C   UNL     1       2.563  -3.274   0.796  0.00  0.00    +0.003 A 
ATOM     23  C   UNL     1       3.111  -2.135   0.236  0.00  0.00    +0.039 A 
ATOM     24  C   UNL     1       2.312  -1.030  -0.005  0.00  0.00    +0.128 A 
ATOM     25  F   UNL     1       2.845   0.082  -0.556  0.00  0.00    -0.205 F 
ENDBRANCH  18  19
ENDBRANCH  15  18
ENDBRANCH   1  15
TORSDOF 4
