REMARK  Name = ZINC24808545
REMARK  8 active torsions:
REMARK  status: ('A' for Active; 'I' for Inactive)
REMARK    1  A    between atoms: C_1  and  C_2
REMARK    2  A    between atoms: C_2  and  C_4
REMARK    3  A    between atoms: C_2  and  N_12
REMARK    4  A    between atoms: N_12  and  C_13
REMARK    5  A    between atoms: C_13  and  C_14
REMARK    6  A    between atoms: N_16  and  C_17
REMARK    7  A    between atoms: C_17  and  C_18
REMARK    8  A    between atoms: N_20  and  C_21
REMARK                            x       y       z     vdW  Elec       q    Type
REMARK                         _______ _______ _______ _____ _____    ______ ____
ROOT
ATOM      1  C   UNL     1       3.671   1.510  -0.016  0.00  0.00    +0.196 C 
ATOM      2  O   UNL     1       3.877   2.705  -0.002  0.00  0.00    -0.278 OA
ATOM      3  N   UNL     1       2.407   1.044  -0.012  0.00  0.00    -0.308 N 
ATOM      4  H   UNL     1       2.220  -0.041  -0.025  0.00  0.00    +0.149 HD
ENDROOT
BRANCH   1   5
ATOM      5  C   UNL     1       4.830   0.547  -0.036  0.00  0.00    +0.016 C 
BRANCH   5   6
ATOM      6  N   UNL     1       6.092   1.299  -0.035  0.00  0.00    +0.389 N 
ATOM      7  H   UNL     1       6.131   1.922   0.870  0.00  0.00    -0.084 HD
ATOM      8  H   UNL     1       6.118   1.944  -0.926  0.00  0.00    -0.084 HD
BRANCH   6  10
ATOM      9  C   UNL     1       7.579  -0.042   1.375  0.00  0.00    -0.009 C 
ATOM     10  C   UNL     1       7.246   0.390  -0.055  0.00  0.00    -0.042 C 
BRANCH  10  11
ATOM     11  C   UNL     1       8.433   1.099  -0.655  0.00  0.00    -0.043 A 
ATOM     12  C   UNL     1       8.511   2.478  -0.608  0.00  0.00    +0.005 A 
ATOM     13  C   UNL     1       9.599   3.128  -1.158  0.00  0.00    +0.020 A 
ATOM     14  C   UNL     1      10.611   2.399  -1.757  0.00  0.00    +0.042 A 
ATOM     15  C   UNL     1      10.534   1.019  -1.804  0.00  0.00    +0.040 A 
ATOM     16  C   UNL     1       9.447   0.368  -1.248  0.00  0.00    +0.044 A 
ATOM     17 CL   UNL     1       9.353  -1.365  -1.300  0.00  0.00    -0.083 Cl
ATOM     18 CL   UNL     1      11.978   3.216  -2.448  0.00  0.00    -0.083 Cl
ENDBRANCH  10  11
ENDBRANCH   6  10
ENDBRANCH   5   6
ENDBRANCH   1   5
BRANCH   3  19
ATOM     19  C   UNL     1       1.280   1.980   0.007  0.00  0.00    +0.200 C 
BRANCH  19  20
ATOM     20  C   UNL     1      -0.014   1.209   0.007  0.00  0.00    +0.234 C 
ATOM     21  O   UNL     1       0.002  -0.004  -0.008  0.00  0.00    -0.274 OA
ATOM     22  N   UNL     1      -1.191   1.867   0.018  0.00  0.00    -0.284 N 
ATOM     23  H   UNL     1      -1.207   2.963   0.108  0.00  0.00    +0.155 HD
BRANCH  22  24
ATOM     24  C   UNL     1      -2.392   1.155  -0.086  0.00  0.00    +0.036 A 
ATOM     25  C   UNL     1      -3.469   1.704  -0.770  0.00  0.00    +0.026 A 
ATOM     26  C   UNL     1      -4.651   0.999  -0.876  0.00  0.00    +0.043 A 
ATOM     27  C   UNL     1      -4.769  -0.251  -0.293  0.00  0.00    +0.159 A 
ATOM     28  C   UNL     1      -3.697  -0.800   0.395  0.00  0.00    +0.160 A 
ATOM     29  C   UNL     1      -2.510  -0.099   0.499  0.00  0.00    +0.064 A 
ATOM     30  F   UNL     1      -3.813  -2.020   0.964  0.00  0.00    -0.202 F 
ATOM     31  F   UNL     1      -5.928  -0.937  -0.395  0.00  0.00    -0.202 F 
ENDBRANCH  22  24
ENDBRANCH  19  20
ENDBRANCH   3  19
TORSDOF 7
