REMARK  Name = ZINC67528516
REMARK  10 active torsions:
REMARK  status: ('A' for Active; 'I' for Inactive)
REMARK    1  A    between atoms: C_1  and  C_2
REMARK    2  A    between atoms: C_2  and  C_3
REMARK    3  A    between atoms: C_2  and  C_4
REMARK    4  A    between atoms: C_2  and  O_5
REMARK    5  A    between atoms: O_5  and  C_6
REMARK    6  A    between atoms: N_8  and  C_9
REMARK    7  A    between atoms: C_9  and  C_10
REMARK    8  A    between atoms: C_10  and  N_11
REMARK    9  A    between atoms: N_14  and  C_15
REMARK   10  A    between atoms: C_19  and  C_21
REMARK                            x       y       z     vdW  Elec       q    Type
REMARK                         _______ _______ _______ _____ _____    ______ ____
ROOT
ATOM      1  N   UNL     1       5.971  -0.238  -4.086  0.00  0.00    -0.298 N 
ATOM      2  C   UNL     1       6.662  -0.645  -5.170  0.00  0.00    +0.304 C 
ATOM      3  O   UNL     1       6.128  -1.356  -6.000  0.00  0.00    -0.253 OA
ATOM      4  N   UNL     1       7.944  -0.263  -5.334  0.00  0.00    -0.269 N 
ATOM      5  H   UNL     1       6.397   0.329  -3.424  0.00  0.00    +0.150 HD
ATOM      6  H   UNL     1       8.349   0.358  -4.708  0.00  0.00    +0.156 HD
ENDROOT
BRANCH   4   7
ATOM      7  C   UNL     1       8.691  -0.762  -6.407  0.00  0.00    +0.035 A 
ATOM      8  C   UNL     1       8.076  -0.999  -7.631  0.00  0.00    +0.023 A 
ATOM      9  C   UNL     1       8.810  -1.493  -8.693  0.00  0.00    +0.002 A 
ATOM     10  C   UNL     1      10.158  -1.753  -8.544  0.00  0.00    +0.010 A 
ATOM     11  C   UNL     1      10.783  -1.518  -7.320  0.00  0.00    +0.001 A 
ATOM     12  C   UNL     1      10.045  -1.015  -6.251  0.00  0.00    +0.033 A 
BRANCH  11  13
ATOM     13  C   UNL     1      12.231  -1.798  -7.158  0.00  0.00    +0.064 A 
ATOM     14  C   UNL     1      12.960  -1.621  -6.023  0.00  0.00    +0.113 A 
ATOM     15  N   UNL     1      14.234  -2.000  -6.317  0.00  0.00    -0.335 N 
ATOM     16  C   UNL     1      14.256  -2.395  -7.613  0.00  0.00    +0.087 A 
ATOM     17  N   UNL     1      13.060  -2.280  -8.109  0.00  0.00    -0.343 N 
ATOM     18  C   UNL     1      15.494  -2.890  -8.323  0.00  0.00    +0.072 C 
ATOM     19  C   UNL     1      16.718  -2.487  -7.491  0.00  0.00    +0.009 C 
ATOM     20  C   UNL     1      16.487  -2.885  -6.030  0.00  0.00    +0.022 C 
ATOM     21  C   UNL     1      15.396  -1.996  -5.424  0.00  0.00    +0.123 C 
ATOM     22  H   UNL     1      12.804  -2.502  -9.017  0.00  0.00    +0.167 HD
ENDBRANCH  11  13
ENDBRANCH   4   7
BRANCH   1  23
ATOM     23  C   UNL     1       4.577  -0.653  -3.908  0.00  0.00    +0.124 C 
BRANCH  23  24
ATOM     24  C   UNL     1       4.031  -0.060  -2.608  0.00  0.00    +0.126 C 
BRANCH  24  27
ATOM     25  C   UNL     1       1.946  -0.068  -1.346  0.00  0.00    +0.401 C 
ATOM     26  O   UNL     1       2.480   0.642  -0.517  0.00  0.00    -0.226 OA
ATOM     27  N   UNL     1       2.637  -0.475  -2.430  0.00  0.00    -0.280 N 
ATOM     28  H   UNL     1       2.212  -1.042  -3.091  0.00  0.00    +0.152 HD
BRANCH  25  29
ATOM     29  O   UNL     1       0.666  -0.450  -1.182  0.00  0.00    -0.445 OA
BRANCH  29  31
ATOM     30  C   UNL     1      -0.029   1.548  -0.013  0.00  0.00    +0.055 C 
ATOM     31  C   UNL     1      -0.006   0.018  -0.011  0.00  0.00    +0.107 C 
ATOM     32  C   UNL     1       0.734  -0.479   1.234  0.00  0.00    +0.055 C 
ATOM     33  C   UNL     1      -1.440  -0.514   0.002  0.00  0.00    +0.055 C 
ENDBRANCH  29  31
ENDBRANCH  25  29
ENDBRANCH  24  27
ENDBRANCH  23  24
ENDBRANCH   1  23
TORSDOF 7
