REMARK  Name = ZINC59060561
REMARK  11 active torsions:
REMARK  status: ('A' for Active; 'I' for Inactive)
REMARK    1  A    between atoms: C_1  and  N_2
REMARK    2  A    between atoms: C_6  and  C_7
REMARK    3  A    between atoms: C_7  and  C_8
REMARK    4  A    between atoms: C_7  and  C_28
REMARK    5  A    between atoms: C_7  and  O_32
REMARK    6  A    between atoms: C_8  and  C_9
REMARK    7  A    between atoms: C_9  and  N_10
REMARK    8  A    between atoms: N_13  and  C_14
REMARK    9  A    between atoms: C_14  and  C_15
REMARK   10  A    between atoms: C_15  and  C_17
REMARK   11  A    between atoms: C_15  and  N_22
REMARK                            x       y       z     vdW  Elec       q    Type
REMARK                         _______ _______ _______ _____ _____    ______ ____
ROOT
ATOM      1  N   UNL     1       0.233  -2.730   4.865  0.00  0.00    -0.299 N 
ATOM      2  C   UNL     1      -0.151  -2.854   6.150  0.00  0.00    +0.300 C 
ATOM      3  O   UNL     1      -0.770  -1.957   6.689  0.00  0.00    -0.253 OA
ATOM      4  N   UNL     1       0.150  -3.973   6.839  0.00  0.00    -0.301 N 
ATOM      5  H   UNL     1       0.727  -3.445   4.435  0.00  0.00    +0.150 HD
ATOM      6  H   UNL     1       0.644  -4.688   6.409  0.00  0.00    +0.150 HD
ENDROOT
BRANCH   1   7
ATOM      7  C   UNL     1      -0.095  -1.514   4.116  0.00  0.00    +0.109 C 
BRANCH   7   8
ATOM      8  C   UNL     1       0.453  -1.628   2.692  0.00  0.00    +0.071 C 
BRANCH   8   9
ATOM      9  C   UNL     1       0.229  -0.308   1.952  0.00  0.00    +0.220 C 
BRANCH   9  15
ATOM     10  C   UNL     1       1.287   2.050   0.243  0.00  0.00    +0.150 C 
ATOM     11  N   UNL     1       1.281   0.641  -0.160  0.00  0.00    -0.335 N 
ATOM     12  C   UNL     1       1.742   0.133  -1.344  0.00  0.00    +0.106 A 
ATOM     13  C   UNL     1       1.547  -1.199  -1.299  0.00  0.00    +0.130 A 
ATOM     14  N   UNL     1       0.983  -1.495  -0.119  0.00  0.00    -0.237 NA
ATOM     15  C   UNL     1       0.825  -0.399   0.571  0.00  0.00    +0.150 A 
ENDBRANCH   9  15
BRANCH   9  16
ATOM     16  C   UNL     1      -1.272  -0.033   1.843  0.00  0.00    +0.425 C 
ATOM     17  F   UNL     1      -1.910  -1.143   1.279  0.00  0.00    -0.167 F 
ATOM     18  F   UNL     1      -1.796   0.209   3.117  0.00  0.00    -0.167 F 
ATOM     19  F   UNL     1      -1.483   1.087   1.031  0.00  0.00    -0.167 F 
ENDBRANCH   9  16
BRANCH   9  20
ATOM     20  O   UNL     1       0.856   0.755   2.673  0.00  0.00    -0.373 OA
ATOM     21  H   UNL     1       1.811   0.646   2.780  0.00  0.00    +0.211 HD
ENDBRANCH   9  20
ENDBRANCH   8   9
ENDBRANCH   7   8
ENDBRANCH   1   7
BRANCH   4  22
ATOM     22  C   UNL     1      -0.268  -4.108   8.236  0.00  0.00    +0.098 C 
BRANCH  22  23
ATOM     23  C   UNL     1       0.291  -5.411   8.812  0.00  0.00    +0.016 C 
BRANCH  23  24
ATOM     24  N   UNL     1      -0.121  -6.537   7.964  0.00  0.00    +0.387 N 
ATOM     25  C   UNL     1      -1.582  -6.529   7.819  0.00  0.00    -0.078 C 
ATOM     26  C   UNL     1      -2.010  -7.652   6.871  0.00  0.00    -0.019 C 
ATOM     27  C   UNL     1      -1.560  -8.998   7.446  0.00  0.00    -0.004 C 
ATOM     28  C   UNL     1      -0.044  -8.967   7.663  0.00  0.00    -0.019 C 
ATOM     29  C   UNL     1       0.311  -7.796   8.581  0.00  0.00    -0.078 C 
ATOM     30  H   UNL     1       0.305  -6.445   7.054  0.00  0.00    -0.081 HD
ENDBRANCH  23  24
BRANCH  23  31
ATOM     31  C   UNL     1      -0.241  -5.612  10.208  0.00  0.00    +0.093 A 
ATOM     32  C   UNL     1       0.417  -5.335  11.348  0.00  0.00    +0.043 A 
ATOM     33  C   UNL     1      -0.449  -5.674  12.413  0.00  0.00    +0.041 A 
ATOM     34  C   UNL     1      -1.584  -6.138  11.860  0.00  0.00    +0.195 A 
ATOM     35  O   UNL     1      -1.455  -6.092  10.524  0.00  0.00    -0.469 OA
ENDBRANCH  23  31
ENDBRANCH  22  23
ENDBRANCH   4  22
TORSDOF 10
