REMARK  Name = ZINC17308032
REMARK  12 active torsions:
REMARK  status: ('A' for Active; 'I' for Inactive)
REMARK    1  A    between atoms: C_1  and  C_2
REMARK    2  A    between atoms: C_2  and  N_3
REMARK    3  A    between atoms: N_3  and  C_4
REMARK    4  A    between atoms: C_5  and  N_20
REMARK    5  A    between atoms: N_6  and  C_13
REMARK    6  A    between atoms: C_13  and  C_14
REMARK    7  A    between atoms: C_21  and  C_23
REMARK    8  A    between atoms: C_23  and  N_24
REMARK    9  A    between atoms: N_24  and  C_25
REMARK   10  A    between atoms: N_24  and  C_31
REMARK   11  A    between atoms: C_25  and  C_26
REMARK   12  A    between atoms: C_31  and  C_32
REMARK                            x       y       z     vdW  Elec       q    Type
REMARK                         _______ _______ _______ _____ _____    ______ ____
ROOT
ATOM      1  N   UNL     1       0.808  -1.152  -1.899  0.00  0.00    -0.263 N 
ATOM      2  C   UNL     1      -0.131  -1.220  -2.865  0.00  0.00    +0.234 C 
ATOM      3  O   UNL     1       0.183  -1.530  -3.995  0.00  0.00    -0.274 OA
ENDROOT
BRANCH   1   4
ATOM      4  C   UNL     1       2.169  -1.338  -2.223  0.00  0.00    +0.140 A 
ATOM      5  C   UNL     1       2.855  -2.443  -1.762  0.00  0.00    +0.128 A 
ATOM      6  N   UNL     1       4.181  -2.597  -2.095  0.00  0.00    -0.276 N 
ATOM      7  C   UNL     1       4.801  -1.681  -2.860  0.00  0.00    +0.331 A 
ATOM      8  O   UNL     1       5.974  -1.835  -3.143  0.00  0.00    -0.246 OA
ATOM      9  N   UNL     1       4.148  -0.598  -3.319  0.00  0.00    -0.273 N 
ATOM     10  H   UNL     1       4.618   0.048  -3.869  0.00  0.00    +0.173 HD
ATOM     11  C   UNL     1       2.848  -0.403  -3.026  0.00  0.00    +0.277 A 
ATOM     12  O   UNL     1       2.264   0.580  -3.451  0.00  0.00    -0.266 OA
BRANCH   5  13
ATOM     13  N   UNL     1       2.222  -3.378  -0.980  0.00  0.00    -0.343 N 
ATOM     14  H   UNL     1       1.302  -3.238  -0.704  0.00  0.00    +0.144 HD
ATOM     15  H   UNL     1       2.694  -4.179  -0.703  0.00  0.00    +0.144 HD
ENDBRANCH   5  13
BRANCH   6  16
ATOM     16  C   UNL     1       4.922  -3.765  -1.613  0.00  0.00    +0.163 C 
BRANCH  16  17
ATOM     17  C   UNL     1       4.800  -4.885  -2.613  0.00  0.00    -0.028 A 
ATOM     18  C   UNL     1       3.757  -5.788  -2.516  0.00  0.00    +0.005 A 
ATOM     19  C   UNL     1       3.645  -6.816  -3.434  0.00  0.00    +0.000 A 
ATOM     20  C   UNL     1       4.575  -6.941  -4.449  0.00  0.00    +0.000 A 
ATOM     21  C   UNL     1       5.617  -6.037  -4.547  0.00  0.00    +0.000 A 
ATOM     22  C   UNL     1       5.726  -5.007  -3.632  0.00  0.00    +0.005 A 
ENDBRANCH  16  17
ENDBRANCH   6  16
ENDBRANCH   1   4
BRANCH   1  24
ATOM     23  C   UNL     1       0.515   0.617  -0.235  0.00  0.00    +0.025 C 
ATOM     24  C   UNL     1       0.415  -0.885  -0.513  0.00  0.00    +0.110 C 
ENDBRANCH   1  24
BRANCH   2  25
ATOM     25  C   UNL     1      -1.570  -0.911  -2.541  0.00  0.00    +0.181 C 
BRANCH  25  26
ATOM     26  N   UNL     1      -2.387  -1.056  -3.753  0.00  0.00    -0.287 NA
BRANCH  26  27
ATOM     27  C   UNL     1      -2.621  -2.472  -4.064  0.00  0.00    +0.127 C 
BRANCH  27  28
ATOM     28  C   UNL     1      -3.076  -2.603  -5.495  0.00  0.00    +0.004 A 
ATOM     29  C   UNL     1      -2.337  -2.839  -6.607  0.00  0.00    +0.012 A 
ATOM     30  C   UNL     1      -2.976  -2.921  -7.830  0.00  0.00    +0.008 A 
ATOM     31  C   UNL     1      -4.321  -2.763  -7.882  0.00  0.00    +0.045 A 
ATOM     32  S   UNL     1      -4.727  -2.495  -6.164  0.00  0.00    -0.100 S 
ENDBRANCH  27  28
ENDBRANCH  26  27
BRANCH  26  33
ATOM     33  C   UNL     1      -3.657  -0.329  -3.621  0.00  0.00    +0.116 C 
BRANCH  33  34
ATOM     34  C   UNL     1      -3.412   1.167  -3.828  0.00  0.00    +0.132 C 
ATOM     35  C   UNL     1      -4.750   1.946  -3.762  0.00  0.00    +0.035 C 
ATOM     36  C   UNL     1      -4.251   3.356  -3.344  0.00  0.00    +0.031 C 
ATOM     37  C   UNL     1      -3.053   3.021  -2.429  0.00  0.00    +0.160 C 
ATOM     38  O   UNL     1      -2.616   1.695  -2.755  0.00  0.00    -0.375 OA
ENDBRANCH  33  34
ENDBRANCH  26  33
ENDBRANCH  25  26
ENDBRANCH   2  25
TORSDOF 11
