REMARK  Name = ZINC01591925
REMARK  12 active torsions:
REMARK  status: ('A' for Active; 'I' for Inactive)
REMARK    1  A    between atoms: C_1  and  C_2
REMARK    2  A    between atoms: C_2  and  N_55
REMARK    3  A    between atoms: C_3  and  C_4
REMARK    4  A    between atoms: C_3  and  N_55
REMARK    5  A    between atoms: C_5  and  C_6
REMARK    6  A    between atoms: C_5  and  N_55
REMARK    7  A    between atoms: C_6  and  C_7
REMARK    8  A    between atoms: C_7  and  C_9
REMARK    9  A    between atoms: C_7  and  C_21
REMARK   10  A    between atoms: C_9  and  N_10
REMARK   11  A    between atoms: N_10  and  C_11
REMARK   12  A    between atoms: C_24  and  O_27
REMARK                            x       y       z     vdW  Elec       q    Type
REMARK                         _______ _______ _______ _____ _____    ______ ____
ROOT
ATOM      1  C   UNL     1      -3.273   1.673   0.166  0.00  0.00    +0.034 C 
ENDROOT
BRANCH   1   2
ATOM      2  C   UNL     1      -2.023   2.507   0.288  0.00  0.00    -0.043 A 
ATOM      3  C   UNL     1      -0.823   1.907   0.619  0.00  0.00    +0.007 A 
ATOM      4  C   UNL     1       0.325   2.668   0.725  0.00  0.00    +0.045 A 
ATOM      5  C   UNL     1       0.272   4.036   0.504  0.00  0.00    +0.117 A 
ATOM      6  C   UNL     1      -0.935   4.637   0.177  0.00  0.00    +0.045 A 
ATOM      7  C   UNL     1      -2.080   3.872   0.072  0.00  0.00    +0.007 A 
BRANCH   5   8
ATOM      8  O   UNL     1       1.400   4.787   0.607  0.00  0.00    -0.507 OA
ATOM      9  H   UNL     1       1.893   4.872  -0.220  0.00  0.00    +0.292 HD
ENDBRANCH   5   8
ENDBRANCH   1   2
BRANCH   1  10
ATOM     10  C   UNL     1      -3.832   1.797  -1.253  0.00  0.00    -0.009 C 
BRANCH  10  11
ATOM     11  C   UNL     1      -2.841   1.188  -2.246  0.00  0.00    -0.078 C 
BRANCH  11  12
ATOM     12  N   UNL     1      -3.386   1.334  -3.613  0.00  0.00    +0.379 N 
ATOM     13  H   UNL     1      -3.648   2.315  -3.764  0.00  0.00    -0.082 HD
BRANCH  12  15
ATOM     14  C   UNL     1      -1.358   2.099  -4.744  0.00  0.00    -0.017 C 
ATOM     15  C   UNL     1      -2.362   0.952  -4.608  0.00  0.00    -0.082 C 
ENDBRANCH  12  15
BRANCH  12  16
ATOM     16  C   UNL     1      -4.586   0.485  -3.772  0.00  0.00    -0.082 C 
ATOM     17  C   UNL     1      -5.335   0.925  -5.031  0.00  0.00    -0.017 C 
ENDBRANCH  12  16
ENDBRANCH  11  12
ENDBRANCH  10  11
ENDBRANCH   1  10
BRANCH   1  18
ATOM     18  C   UNL     1      -4.316   2.168   1.170  0.00  0.00    +0.109 C 
BRANCH  18  19
ATOM     19  N   UNL     1      -3.828   1.940   2.533  0.00  0.00    -0.343 N 
ATOM     20  H   UNL     1      -2.961   1.530   2.675  0.00  0.00    +0.146 HD
BRANCH  19  21
ATOM     21  C   UNL     1      -4.607   2.310   3.619  0.00  0.00    +0.038 A 
ATOM     22  C   UNL     1      -5.850   2.898   3.441  0.00  0.00    +0.041 A 
ATOM     23  C   UNL     1      -6.606   3.257   4.548  0.00  0.00    +0.085 A 
ATOM     24  C   UNL     1      -4.990   2.494   6.019  0.00  0.00    +0.050 A 
ATOM     25  C   UNL     1      -4.161   2.094   4.944  0.00  0.00    +0.019 A 
ATOM     26  C   UNL     1      -2.913   1.511   5.208  0.00  0.00    +0.013 A 
ATOM     27  C   UNL     1      -2.515   1.325   6.498  0.00  0.00    +0.021 A 
ATOM     28  C   UNL     1      -3.332   1.713   7.559  0.00  0.00    +0.043 A 
ATOM     29  C   UNL     1      -4.547   2.287   7.337  0.00  0.00    +0.046 A 
ATOM     30 CL   UNL     1      -2.792   1.459   9.189  0.00  0.00    -0.083 Cl
ATOM     31  N   UNL     1      -6.225   3.078   5.834  0.00  0.00    -0.361 N 
ATOM     32  H   UNL     1      -6.819   3.360   6.622  0.00  0.00    +0.165 HD
ENDBRANCH  19  21
ENDBRANCH  18  19
ENDBRANCH   1  18
TORSDOF 10
