REMARK  Name = ZINC09128900
REMARK  12 active torsions:
REMARK  status: ('A' for Active; 'I' for Inactive)
REMARK    1  A    between atoms: C_1  and  C_2
REMARK    2  A    between atoms: C_4  and  C_34
REMARK    3  A    between atoms: C_9  and  C_18
REMARK    4  A    between atoms: C_12  and  C_14
REMARK    5  A    between atoms: C_14  and  C_15
REMARK    6  A    between atoms: C_15  and  C_16
REMARK    7  A    between atoms: C_15  and  C_17
REMARK    8  A    between atoms: N_20  and  C_21
REMARK    9  A    between atoms: C_23  and  O_29
REMARK   10  A    between atoms: C_26  and  O_27
REMARK   11  A    between atoms: O_27  and  C_28
REMARK   12  A    between atoms: O_29  and  C_30
REMARK                            x       y       z     vdW  Elec       q    Type
REMARK                         _______ _______ _______ _____ _____    ______ ____
ROOT
ATOM      1  C   UNL     1       1.436  -2.854   0.493  0.00  0.00    +0.044 C 
ATOM      2  C   UNL     1       0.007  -3.146   0.874  0.00  0.00    -0.050 A 
ATOM      3  C   UNL     1      -0.268  -3.974   1.948  0.00  0.00    +0.008 A 
ATOM      4  C   UNL     1      -1.573  -4.245   2.301  0.00  0.00    -0.029 A 
ATOM      5  C   UNL     1      -2.625  -3.686   1.579  0.00  0.00    +0.039 A 
ATOM      6  C   UNL     1      -2.336  -2.854   0.503  0.00  0.00    -0.027 A 
ATOM      7  C   UNL     1      -1.032  -2.587   0.152  0.00  0.00    +0.008 A 
ATOM      8  C   UNL     1      -3.665  -2.418  -0.054  0.00  0.00    +0.049 C 
ATOM      9  C   UNL     1      -3.814  -0.890   0.020  0.00  0.00    +0.076 C 
ATOM     10  C   UNL     1      -4.599  -0.558  -1.278  0.00  0.00    -0.004 C 
ATOM     11  C   UNL     1      -4.025  -1.600  -2.270  0.00  0.00    -0.069 C 
ATOM     12  C   UNL     1      -4.688  -3.096   0.821  0.00  0.00    +0.211 C 
ATOM     13  O   UNL     1      -5.894  -3.016   0.717  0.00  0.00    -0.277 OA
ATOM     14  N   UNL     1      -4.007  -3.806   1.739  0.00  0.00    -0.286 N 
ATOM     15  C   UNL     1      -1.862  -5.148   3.473  0.00  0.00    +0.045 C 
ATOM     16  H   UNL     1      -4.428  -4.340   2.431  0.00  0.00    +0.155 HD
ATOM     17  N   UNL     1      -3.815  -2.812  -1.454  0.00  0.00    +0.394 N 
ATOM     18  H   UNL     1      -4.623  -3.438  -1.552  0.00  0.00    -0.083 HD
ATOM     19  H   UNL     1      -2.967  -3.297  -1.769  0.00  0.00    -0.083 HD
ENDROOT
BRANCH   9  20
ATOM     20  C   UNL     1      -2.463  -0.221   0.013  0.00  0.00    +0.220 C 
ATOM     21  O   UNL     1      -1.925   0.046  -1.040  0.00  0.00    -0.275 OA
ATOM     22  N   UNL     1      -1.855   0.080   1.178  0.00  0.00    -0.282 N 
ATOM     23  H   UNL     1      -2.255  -0.192   2.018  0.00  0.00    +0.155 HD
BRANCH  22  24
ATOM     24  C   UNL     1      -0.644   0.786   1.173  0.00  0.00    +0.079 A 
ATOM     25  C   UNL     1       0.208   0.697   0.082  0.00  0.00    +0.072 A 
ATOM     26  C   UNL     1       1.402   1.401   0.078  0.00  0.00    +0.122 A 
ATOM     27  C   UNL     1       1.747   2.190   1.166  0.00  0.00    +0.049 A 
ATOM     28  C   UNL     1       0.902   2.276   2.256  0.00  0.00    +0.051 A 
ATOM     29  C   UNL     1      -0.292   1.573   2.266  0.00  0.00    +0.141 A 
BRANCH  29  30
ATOM     30  O   UNL     1      -1.123   1.658   3.341  0.00  0.00    -0.493 OA
ATOM     31  C   UNL     1      -0.701   2.490   4.423  0.00  0.00    +0.277 C 
ENDBRANCH  29  30
BRANCH  26  32
ATOM     32  O   UNL     1       2.235   1.319  -0.993  0.00  0.00    -0.495 OA
ATOM     33  C   UNL     1       3.448   2.071  -0.930  0.00  0.00    +0.277 C 
ENDBRANCH  26  32
ENDBRANCH  22  24
ENDBRANCH   9  20
BRANCH  11  34
ATOM     34  C   UNL     1      -5.027  -1.875  -3.393  0.00  0.00    -0.013 C 
BRANCH  34  35
ATOM     35  C   UNL     1      -4.392  -2.809  -4.425  0.00  0.00    -0.019 C 
ATOM     36  C   UNL     1      -5.433  -3.183  -5.482  0.00  0.00    +0.007 C 
ATOM     37  C   UNL     1      -3.214  -2.102  -5.097  0.00  0.00    +0.007 C 
ENDBRANCH  34  35
ENDBRANCH  11  34
TORSDOF 6
