REMARK  Name = ZINC38984202
REMARK  6 active torsions:
REMARK  status: ('A' for Active; 'I' for Inactive)
REMARK    1  A    between atoms: C_1  and  O_2
REMARK    2  A    between atoms: O_2  and  C_3
REMARK    3  A    between atoms: C_7  and  N_9
REMARK    4  A    between atoms: N_9  and  C_10
REMARK    5  A    between atoms: N_13  and  S_14
REMARK    6  A    between atoms: S_14  and  C_17
REMARK                            x       y       z     vdW  Elec       q    Type
REMARK                         _______ _______ _______ _____ _____    ______ ____
ROOT
ATOM      1  C   UNL     1       2.154  -4.676   3.276  0.00  0.00    +0.237 C 
ATOM      2  C   UNL     1       1.322  -5.822   3.805  0.00  0.00    +0.192 C 
ATOM      3  N   UNL     1       0.135  -5.606   4.290  0.00  0.00    -0.110 NA
ATOM      4  N   UNL     1       1.826  -7.066   3.768  0.00  0.00    -0.226 NA
ATOM      5  C   UNL     1       3.025  -7.310   3.281  0.00  0.00    +0.089 A 
ATOM      6  C   UNL     1       3.525  -8.637   3.257  0.00  0.00    +0.030 A 
ATOM      7  C   UNL     1       4.755  -8.893   2.760  0.00  0.00    +0.002 A 
ATOM      8  C   UNL     1       5.593  -7.888   2.249  0.00  0.00    +0.002 A 
ATOM      9  C   UNL     1       5.214  -6.592   2.225  0.00  0.00    +0.027 A 
ATOM     10  C   UNL     1       3.889  -6.229   2.748  0.00  0.00    +0.063 A 
ATOM     11  N   UNL     1       3.489  -4.988   2.740  0.00  0.00    -0.359 N 
ATOM     12  H   UNL     1       4.059  -4.286   2.389  0.00  0.00    +0.162 HD
ENDROOT
BRANCH   3  13
ATOM     13  S   UNL     1      -0.767  -6.869   4.867  0.00  0.00    +0.102 S 
ATOM     14  O   UNL     1      -1.073  -7.693   3.751  0.00  0.00    -0.146 OA
ATOM     15  O   UNL     1      -0.088  -7.362   6.014  0.00  0.00    -0.146 OA
BRANCH  13  16
ATOM     16  C   UNL     1      -2.296  -6.202   5.435  0.00  0.00    +0.132 A 
ATOM     17  C   UNL     1      -3.478  -6.552   4.809  0.00  0.00    +0.050 A 
ATOM     18  C   UNL     1      -4.678  -6.028   5.255  0.00  0.00    +0.043 A 
ATOM     19  C   UNL     1      -4.696  -5.153   6.327  0.00  0.00    +0.021 A 
ATOM     20  C   UNL     1      -3.514  -4.803   6.952  0.00  0.00    +0.023 A 
ATOM     21  C   UNL     1      -2.314  -5.332   6.510  0.00  0.00    +0.068 A 
ATOM     22 CL   UNL     1      -0.831  -4.898   7.301  0.00  0.00    -0.082 Cl
ATOM     23 CL   UNL     1      -6.162  -6.467   4.468  0.00  0.00    -0.083 Cl
ENDBRANCH  13  16
ENDBRANCH   3  13
BRANCH   1  24
ATOM     24  N   UNL     1       1.388  -4.020   2.213  0.00  0.00    -0.318 N 
ATOM     25  H   UNL     1       1.013  -4.547   1.490  0.00  0.00    +0.148 HD
BRANCH  24  30
ATOM     26  C   UNL     1       1.681  -0.489   3.200  0.00  0.00    +0.122 A 
ATOM     27  C   UNL     1       0.814   0.106   2.294  0.00  0.00    +0.046 A 
ATOM     28  C   UNL     1       0.142  -0.667   1.367  0.00  0.00    +0.005 A 
ATOM     29  C   UNL     1       0.330  -2.035   1.338  0.00  0.00    +0.023 A 
ATOM     30  C   UNL     1       1.197  -2.637   2.242  0.00  0.00    +0.032 A 
ATOM     31  C   UNL     1       1.878  -1.861   3.170  0.00  0.00    +0.068 A 
BRANCH  26  33
ATOM     32  C   UNL     1       2.091   1.680   4.083  0.00  0.00    +0.277 C 
ATOM     33  O   UNL     1       2.342   0.273   4.110  0.00  0.00    -0.495 OA
ENDBRANCH  26  33
ENDBRANCH  24  30
ENDBRANCH   1  24
TORSDOF 5
