REMARK  Name = ZINC07779504
REMARK  17 active torsions:
REMARK  status: ('A' for Active; 'I' for Inactive)
REMARK    1  A    between atoms: C_1  and  C_2
REMARK    2  A    between atoms: C_2  and  C_3
REMARK    3  A    between atoms: C_2  and  C_4
REMARK    4  A    between atoms: C_4  and  N_5
REMARK    5  A    between atoms: C_6  and  C_8
REMARK    6  A    between atoms: C_8  and  N_63
REMARK    7  A    between atoms: C_9  and  C_10
REMARK    8  A    between atoms: C_9  and  N_63
REMARK    9  A    between atoms: N_12  and  C_13
REMARK   10  A    between atoms: C_13  and  C_14
REMARK   11  A    between atoms: C_14  and  C_15
REMARK   12  A    between atoms: C_14  and  C_16
REMARK   13  A    between atoms: C_17  and  C_19
REMARK   14  A    between atoms: C_17  and  C_20
REMARK   15  A    between atoms: C_17  and  N_63
REMARK   16  A    between atoms: C_23  and  S_26
REMARK   17  A    between atoms: S_26  and  N_29
REMARK                            x       y       z     vdW  Elec       q    Type
REMARK                         _______ _______ _______ _____ _____    ______ ____
ROOT
ATOM      1  N   UNL     1      -2.469   3.628   5.752  0.00  0.00    +0.395 N 
ATOM      2  H   UNL     1      -1.601   3.079   5.730  0.00  0.00    -0.080 HD
ENDROOT
BRANCH   1   3
ATOM      3  C   UNL     1      -3.384   3.122   4.708  0.00  0.00    -0.040 C 
ATOM      4  C   UNL     1      -4.602   4.038   4.572  0.00  0.00    -0.008 C 
BRANCH   3   5
ATOM      5  C   UNL     1      -2.644   3.072   3.396  0.00  0.00    -0.061 A 
ATOM      6  C   UNL     1      -2.802   4.090   2.474  0.00  0.00    +0.004 A 
ATOM      7  C   UNL     1      -2.124   4.045   1.270  0.00  0.00    +0.029 A 
ATOM      8  C   UNL     1      -1.286   2.981   0.989  0.00  0.00    +0.105 A 
ATOM      9  C   UNL     1      -1.132   1.961   1.909  0.00  0.00    +0.029 A 
ATOM     10  C   UNL     1      -1.807   2.008   3.114  0.00  0.00    +0.004 A 
BRANCH   8  11
ATOM     11  S   UNL     1      -0.421   2.923  -0.545  0.00  0.00    +0.056 S 
ATOM     12  O   UNL     1      -1.162   3.720  -1.459  0.00  0.00    -0.153 OA
ATOM     13  O   UNL     1      -0.126   1.556  -0.793  0.00  0.00    -0.153 OA
BRANCH  11  14
ATOM     14  N   UNL     1       1.030   3.688  -0.318  0.00  0.00    -0.204 NA
ATOM     15  H   UNL     1       1.254   4.469  -0.847  0.00  0.00    +0.144 HD
ATOM     16  H   UNL     1       1.656   3.354   0.344  0.00  0.00    +0.144 HD
ENDBRANCH  11  14
ENDBRANCH   8  11
ENDBRANCH   3   5
ENDBRANCH   1   3
BRANCH   1  17
ATOM     17  C   UNL     1      -2.145   5.047   5.495  0.00  0.00    +0.020 C 
BRANCH  17  19
ATOM     18  N   UNL     1      -0.602   6.298   4.021  0.00  0.00    -0.317 N 
ATOM     19  C   UNL     1      -0.998   5.110   4.520  0.00  0.00    +0.197 C 
ATOM     20  O   UNL     1      -0.432   4.092   4.184  0.00  0.00    -0.278 OA
ATOM     21  H   UNL     1      -1.056   7.112   4.290  0.00  0.00    +0.149 HD
BRANCH  18  22
ATOM     22  C   UNL     1       0.513   6.359   3.073  0.00  0.00    +0.107 C 
BRANCH  22  24
ATOM     23  C   UNL     1       1.218   8.614   3.884  0.00  0.00    +0.009 C 
ATOM     24  C   UNL     1       0.756   7.813   2.665  0.00  0.00    -0.000 C 
ATOM     25  C   UNL     1       1.836   7.866   1.582  0.00  0.00    +0.009 C 
ENDBRANCH  22  24
ENDBRANCH  18  22
ENDBRANCH  17  19
ENDBRANCH   1  17
BRANCH   1  26
ATOM     26  C   UNL     1      -3.094   3.485   7.084  0.00  0.00    +0.020 C 
BRANCH  26  27
ATOM     27  C   UNL     1      -2.026   3.630   8.137  0.00  0.00    +0.197 C 
ATOM     28  O   UNL     1      -0.880   3.857   7.812  0.00  0.00    -0.278 OA
ATOM     29  N   UNL     1      -2.344   3.507   9.441  0.00  0.00    -0.317 N 
ATOM     30  H   UNL     1      -3.261   3.326   9.701  0.00  0.00    +0.149 HD
BRANCH  29  31
ATOM     31  C   UNL     1      -1.306   3.648  10.465  0.00  0.00    +0.107 C 
BRANCH  31  32
ATOM     32  C   UNL     1      -1.929   3.466  11.851  0.00  0.00    -0.000 C 
ATOM     33  C   UNL     1      -2.446   2.033  11.993  0.00  0.00    +0.009 C 
ATOM     34  C   UNL     1      -0.872   3.736  12.924  0.00  0.00    +0.009 C 
ENDBRANCH  31  32
ENDBRANCH  29  31
ENDBRANCH  26  27
ENDBRANCH   1  26
TORSDOF 12
