REMARK  Name = ZINC49548827
REMARK  5 active torsions:
REMARK  status: ('A' for Active; 'I' for Inactive)
REMARK    1  A    between atoms: C_1  and  N_2
REMARK    2  A    between atoms: C_8  and  C_22
REMARK    3  A    between atoms: N_13  and  C_14
REMARK    4  A    between atoms: C_26  and  O_28
REMARK    5  A    between atoms: O_28  and  C_29
REMARK                            x       y       z     vdW  Elec       q    Type
REMARK                         _______ _______ _______ _____ _____    ______ ____
ROOT
ATOM      1  C   UNL     1      -0.155   1.556   0.842  0.00  0.00    +0.154 C 
ATOM      2  N   UNL     1      -0.059   0.095   0.780  0.00  0.00    -0.293 N 
ATOM      3  C   UNL     1      -1.168  -0.654   0.491  0.00  0.00    +0.126 A 
ATOM      4  C   UNL     1      -0.963  -1.988   0.452  0.00  0.00    +0.042 A 
ATOM      5  S   UNL     1       0.756  -2.151   0.827  0.00  0.00    -0.029 S 
ATOM      6  C   UNL     1       1.123  -0.517   1.002  0.00  0.00    +0.292 A 
ATOM      7  O   UNL     1       2.198  -0.008   1.268  0.00  0.00    -0.259 OA
ATOM      8  C   UNL     1      -1.992  -3.024   0.149  0.00  0.00    +0.068 C 
ATOM      9  C   UNL     1      -3.364  -2.470   0.561  0.00  0.00    +0.110 C 
ATOM     10  C   UNL     1      -3.491  -1.028   0.159  0.00  0.00    +0.226 C 
ATOM     11  O   UNL     1      -4.564  -0.630  -0.242  0.00  0.00    -0.275 OA
ATOM     12  N   UNL     1      -2.466  -0.159   0.224  0.00  0.00    -0.225 N 
ENDROOT
BRANCH  12  13
ATOM     13  C   UNL     1      -2.681   1.212   0.032  0.00  0.00    +0.046 A 
ATOM     14  C   UNL     1      -2.466   1.781  -1.216  0.00  0.00    +0.027 A 
ATOM     15  C   UNL     1      -2.679   3.133  -1.405  0.00  0.00    +0.043 A 
ATOM     16  C   UNL     1      -3.105   3.922  -0.350  0.00  0.00    +0.159 A 
ATOM     17  C   UNL     1      -3.320   3.357   0.898  0.00  0.00    +0.160 A 
ATOM     18  C   UNL     1      -3.114   2.002   1.089  0.00  0.00    +0.065 A 
ATOM     19  F   UNL     1      -3.735   4.128   1.927  0.00  0.00    -0.202 F 
ATOM     20  F   UNL     1      -3.312   5.244  -0.536  0.00  0.00    -0.202 F 
ENDBRANCH  12  13
BRANCH   8  21
ATOM     21  C   UNL     1      -1.695  -4.279   0.928  0.00  0.00    -0.035 A 
ATOM     22  C   UNL     1      -1.665  -4.244   2.310  0.00  0.00    +0.004 A 
ATOM     23  C   UNL     1      -1.392  -5.394   3.028  0.00  0.00    +0.004 A 
ATOM     24  C   UNL     1      -1.149  -6.582   2.365  0.00  0.00    +0.045 A 
ATOM     25  C   UNL     1      -1.179  -6.620   0.979  0.00  0.00    +0.120 A 
ATOM     26  C   UNL     1      -1.459  -5.466   0.261  0.00  0.00    +0.050 A 
BRANCH  25  27
ATOM     27  O   UNL     1      -0.940  -7.787   0.325  0.00  0.00    -0.495 OA
ATOM     28  C   UNL     1      -0.665  -8.936   1.128  0.00  0.00    +0.277 C 
ENDBRANCH  25  27
ENDBRANCH   8  21
TORSDOF 3
