REMARK  Name = ZINC42952055
REMARK  5 active torsions:
REMARK  status: ('A' for Active; 'I' for Inactive)
REMARK    1  A    between atoms: C_1  and  C_2
REMARK    2  A    between atoms: C_2  and  C_4
REMARK    3  A    between atoms: C_2  and  N_20
REMARK    4  A    between atoms: C_4  and  C_6
REMARK    5  A    between atoms: C_4  and  N_13
REMARK                            x       y       z     vdW  Elec       q    Type
REMARK                         _______ _______ _______ _____ _____    ______ ____
ROOT
ATOM      1  C   UNL     1       0.975  -0.509   1.086  0.00  0.00    +0.073 C 
ENDROOT
BRANCH   1   2
ATOM      2  N   UNL     1       0.904  -1.974   1.159  0.00  0.00    -0.287 NA
ATOM      3  C   UNL     1       1.669  -2.483   2.308  0.00  0.00    +0.104 C 
ATOM      4  C   UNL     1       1.316  -3.956   2.521  0.00  0.00    +0.119 C 
ATOM      5  N   UNL     1       1.435  -4.686   1.262  0.00  0.00    -0.313 N 
ATOM      6  C   UNL     1       1.453  -4.080   0.070  0.00  0.00    +0.227 C 
ATOM      7  O   UNL     1       1.523  -4.765  -0.929  0.00  0.00    -0.274 OA
ATOM      8  C   UNL     1       1.389  -2.587  -0.085  0.00  0.00    +0.181 C 
ATOM      9  H   UNL     1       1.504  -5.653   1.291  0.00  0.00    +0.149 HD
ENDBRANCH   1   2
BRANCH   1  10
ATOM     10  C   UNL     1       0.377   0.086   2.336  0.00  0.00    -0.032 A 
ATOM     11  C   UNL     1      -0.760  -0.471   2.890  0.00  0.00    +0.006 A 
ATOM     12  C   UNL     1      -1.308   0.073   4.036  0.00  0.00    +0.015 A 
ATOM     13  C   UNL     1      -0.719   1.176   4.628  0.00  0.00    +0.018 A 
ATOM     14  C   UNL     1       0.419   1.732   4.073  0.00  0.00    +0.015 A 
ATOM     15  C   UNL     1       0.970   1.184   2.930  0.00  0.00    +0.006 A 
ATOM     16 BR   UNL     1      -1.469   1.921   6.196  0.00  0.00    -0.050 Br
ENDBRANCH   1  10
BRANCH   1  18
ATOM     17  C   UNL     1      -1.236  -0.564  -0.077  0.00  0.00    -0.012 C 
ATOM     18  C   UNL     1       0.193  -0.020  -0.135  0.00  0.00    -0.056 C 
BRANCH  18  19
ATOM     19  N   UNL     1       0.159   1.448  -0.139  0.00  0.00    +0.381 N 
ATOM     20  H   UNL     1      -0.376   1.774   0.652  0.00  0.00    -0.090 HD
ATOM     21  H   UNL     1       1.100   1.807  -0.080  0.00  0.00    -0.090 HD
ATOM     22  H   UNL     1      -0.272   1.772  -0.992  0.00  0.00    -0.090 HD
ENDBRANCH  18  19
ENDBRANCH   1  18
TORSDOF 4
