REMARK  Name = ZINC67020427
REMARK  5 active torsions:
REMARK  status: ('A' for Active; 'I' for Inactive)
REMARK    1  A    between atoms: C_1  and  C_2
REMARK    2  A    between atoms: C_3  and  C_14
REMARK    3  A    between atoms: C_4  and  C_13
REMARK    4  A    between atoms: C_14  and  C_15
REMARK    5  A    between atoms: C_27  and  C_30
REMARK                            x       y       z     vdW  Elec       q    Type
REMARK                         _______ _______ _______ _____ _____    ______ ____
ROOT
ATOM      1  C   UNL     1      -2.550  -0.043   0.022  0.00  0.00    +0.134 C 
ENDROOT
BRANCH   1   4
ATOM      2  C   UNL     1      -0.065   1.467  -0.105  0.00  0.00    +0.066 C 
ATOM      3  C   UNL     1      -0.029  -0.038  -0.051  0.00  0.00    +0.046 A 
ATOM      4  C   UNL     1      -1.226  -0.762   0.009  0.00  0.00    +0.003 A 
ATOM      5  C   UNL     1      -1.182  -2.120   0.057  0.00  0.00    +0.045 A 
ATOM      6  N   UNL     1       0.025  -2.746   0.045  0.00  0.00    -0.238 N 
ATOM      7  C   UNL     1       1.178  -2.005  -0.015  0.00  0.00    +0.158 A 
ATOM      8  N   UNL     1       1.125  -0.668  -0.067  0.00  0.00    -0.233 NA
ATOM      9  C   UNL     1       2.248  -2.897  -0.014  0.00  0.00    +0.119 A 
ATOM     10  C   UNL     1       1.725  -4.187   0.048  0.00  0.00    +0.267 A 
ATOM     11  O   UNL     1       2.374  -5.221   0.067  0.00  0.00    -0.266 OA
ATOM     12  N   UNL     1       0.382  -4.099   0.084  0.00  0.00    -0.258 N 
ATOM     13  H   UNL     1      -0.234  -4.847   0.129  0.00  0.00    +0.191 HD
ATOM     14  C   UNL     1      -2.456  -2.922   0.123  0.00  0.00    +0.066 C 
ENDBRANCH   1   4
BRANCH   1  15
ATOM     15  C   UNL     1      -2.891   0.356   1.435  0.00  0.00    +0.220 C 
ATOM     16  O   UNL     1      -2.134   0.084   2.342  0.00  0.00    -0.275 OA
ATOM     17  N   UNL     1      -4.038   1.016   1.690  0.00  0.00    -0.298 N 
ATOM     18  C   UNL     1      -4.888   1.500   0.592  0.00  0.00    +0.108 C 
ATOM     19  C   UNL     1      -6.313   0.982   0.803  0.00  0.00    +0.019 C 
ATOM     20  C   UNL     1      -6.799   1.376   2.200  0.00  0.00    +0.007 C 
ATOM     21  C   UNL     1      -5.889   0.731   3.253  0.00  0.00    +0.010 C 
ATOM     22  C   UNL     1      -4.471   1.264   3.070  0.00  0.00    +0.079 C 
ATOM     23  C   UNL     1      -3.520   0.581   4.049  0.00  0.00    +0.023 C 
ATOM     24  C   UNL     1      -3.537  -0.931   3.824  0.00  0.00    +0.005 C 
ATOM     25  C   UNL     1      -4.959  -1.456   4.039  0.00  0.00    -0.014 C 
ATOM     26  C   UNL     1      -5.911  -0.787   3.058  0.00  0.00    +0.008 C 
ATOM     27  C   UNL     1      -4.981  -2.972   3.832  0.00  0.00    +0.007 C 
ENDBRANCH   1  15
TORSDOF 2
