REMARK  Name = ZINC21776680
REMARK  8 active torsions:
REMARK  status: ('A' for Active; 'I' for Inactive)
REMARK    1  A    between atoms: C_1  and  N_2
REMARK    2  A    between atoms: N_5  and  C_8
REMARK    3  A    between atoms: C_8  and  C_10
REMARK    4  A    between atoms: C_8  and  C_22
REMARK    5  A    between atoms: C_10  and  N_11
REMARK    6  A    between atoms: N_11  and  S_12
REMARK    7  A    between atoms: S_12  and  C_15
REMARK    8  A    between atoms: N_30  and  C_31
REMARK                            x       y       z     vdW  Elec       q    Type
REMARK                         _______ _______ _______ _____ _____    ______ ____
ROOT
ATOM      1  C   UNL     1      -1.258  -0.477  -0.096  0.00  0.00    +0.102 C 
ENDROOT
BRANCH   1   2
ATOM      2  C   UNL     1      -1.866  -0.051  -1.407  0.00  0.00    -0.029 A 
ATOM      3  C   UNL     1      -1.134  -0.157  -2.576  0.00  0.00    +0.007 A 
ATOM      4  C   UNL     1      -1.686   0.233  -3.779  0.00  0.00    +0.024 A 
ATOM      5  C   UNL     1      -2.985   0.736  -3.824  0.00  0.00    +0.033 A 
ATOM      6  C   UNL     1      -3.713   0.834  -2.645  0.00  0.00    -0.025 A 
ATOM      7  C   UNL     1      -3.159   0.439  -1.445  0.00  0.00    +0.010 A 
ATOM      8  C   UNL     1      -5.079   1.396  -2.984  0.00  0.00    +0.056 C 
ATOM      9  C   UNL     1      -5.158   1.206  -4.517  0.00  0.00    +0.109 C 
ATOM     10  N   UNL     1      -3.733   1.198  -4.915  0.00  0.00    -0.332 N 
ATOM     11  C   UNL     1      -3.521   0.350  -6.095  0.00  0.00    +0.129 C 
ENDBRANCH   1   2
BRANCH   1  16
ATOM     12  C   UNL     1       2.127   3.988   0.615  0.00  0.00    -0.096 C 
ATOM     13  N   UNL     1       1.129   2.996   0.193  0.00  0.00    +0.379 N 
ATOM     14  C   UNL     1       1.776   1.749  -0.241  0.00  0.00    -0.064 C 
ATOM     15  C   UNL     1       0.711   0.774  -0.746  0.00  0.00    +0.066 C 
ATOM     16  N   UNL     1      -0.260   0.515   0.326  0.00  0.00    -0.298 NA
ATOM     17  C   UNL     1      -0.907   1.761   0.760  0.00  0.00    +0.066 C 
ATOM     18  C   UNL     1       0.158   2.737   1.265  0.00  0.00    -0.064 C 
ATOM     19  H   UNL     1       0.584   3.412  -0.667  0.00  0.00    -0.082 HD
ENDBRANCH   1  16
BRANCH   1  20
ATOM     20  C   UNL     1      -0.584  -1.840  -0.265  0.00  0.00    +0.129 C 
BRANCH  20  21
ATOM     21  N   UNL     1       0.077  -2.216   0.988  0.00  0.00    -0.188 NA
ATOM     22  H   UNL     1       0.395  -1.438   1.697  0.00  0.00    +0.148 HD
BRANCH  21  23
ATOM     23  S   UNL     1       0.568  -3.779   1.227  0.00  0.00    +0.058 S 
ATOM     24  O   UNL     1       1.188  -3.819   2.505  0.00  0.00    -0.153 OA
ATOM     25  O   UNL     1      -0.536  -4.608   0.890  0.00  0.00    -0.153 OA
BRANCH  23  26
ATOM     26  C   UNL     1       1.830  -4.116   0.045  0.00  0.00    +0.105 A 
ATOM     27  C   UNL     1       1.497  -4.633  -1.193  0.00  0.00    +0.029 A 
ATOM     28  C   UNL     1       2.486  -4.893  -2.123  0.00  0.00    +0.017 A 
ATOM     29  C   UNL     1       3.811  -4.645  -1.811  0.00  0.00    +0.018 A 
ATOM     30  C   UNL     1       4.144  -4.133  -0.570  0.00  0.00    +0.017 A 
ATOM     31  C   UNL     1       3.154  -3.868   0.357  0.00  0.00    +0.029 A 
ATOM     32 BR   UNL     1       5.165  -5.006  -3.080  0.00  0.00    -0.050 Br
ENDBRANCH  23  26
ENDBRANCH  21  23
ENDBRANCH  20  21
ENDBRANCH   1  20
TORSDOF 6
