REMARK  Name = ZINC65415914
REMARK  13 active torsions:
REMARK  status: ('A' for Active; 'I' for Inactive)
REMARK    1  A    between atoms: C_1  and  C_2
REMARK    2  A    between atoms: C_2  and  O_3
REMARK    3  A    between atoms: O_3  and  C_4
REMARK    4  A    between atoms: N_6  and  C_7
REMARK    5  A    between atoms: C_11  and  N_14
REMARK    6  A    between atoms: C_12  and  C_13
REMARK    7  A    between atoms: N_17  and  C_18
REMARK    8  A    between atoms: C_18  and  C_19
REMARK    9  A    between atoms: C_19  and  C_20
REMARK   10  A    between atoms: C_19  and  N_27
REMARK   11  A    between atoms: C_23  and  C_26
REMARK   12  A    between atoms: N_27  and  C_28
REMARK   13  A    between atoms: N_27  and  C_29
REMARK                            x       y       z     vdW  Elec       q    Type
REMARK                         _______ _______ _______ _____ _____    ______ ____
ROOT
ATOM      1  N   UNL     1      -5.564  -6.127  -0.439  0.00  0.00    -0.269 N 
ATOM      2  C   UNL     1      -5.728  -7.464  -0.417  0.00  0.00    +0.304 C 
ATOM      3  O   UNL     1      -4.757  -8.196  -0.397  0.00  0.00    -0.253 OA
ATOM      4  N   UNL     1      -6.969  -7.991  -0.418  0.00  0.00    -0.300 N 
ATOM      5  H   UNL     1      -6.335  -5.545  -0.522  0.00  0.00    +0.156 HD
ATOM      6  H   UNL     1      -7.743  -7.407  -0.434  0.00  0.00    +0.150 HD
ENDROOT
BRANCH   1  11
ATOM      7  C   UNL     1      -2.813  -3.839   0.426  0.00  0.00    +0.041 A 
ATOM      8  C   UNL     1      -1.735  -4.498  -0.152  0.00  0.00    +0.024 A 
ATOM      9  C   UNL     1      -1.931  -5.691  -0.821  0.00  0.00    +0.004 A 
ATOM     10  C   UNL     1      -3.199  -6.232  -0.917  0.00  0.00    +0.024 A 
ATOM     11  C   UNL     1      -4.280  -5.578  -0.341  0.00  0.00    +0.039 A 
ATOM     12  C   UNL     1      -4.086  -4.383   0.337  0.00  0.00    -0.008 A 
ATOM     13  C   UNL     1      -5.256  -3.674   0.969  0.00  0.00    +0.047 C 
BRANCH   7  16
ATOM     14  C   UNL     1      -1.407  -2.346   1.633  0.00  0.00    +0.405 C 
ATOM     15  O   UNL     1      -0.524  -3.180   1.617  0.00  0.00    -0.226 OA
ATOM     16  N   UNL     1      -2.613  -2.631   1.104  0.00  0.00    -0.251 N 
ATOM     17  H   UNL     1      -3.343  -1.998   1.193  0.00  0.00    +0.158 HD
BRANCH  14  18
ATOM     18  O   UNL     1      -1.180  -1.136   2.179  0.00  0.00    -0.450 OA
BRANCH  18  20
ATOM     19  C   UNL     1       0.189   0.515   3.293  0.00  0.00    +0.048 C 
ATOM     20  C   UNL     1       0.121  -0.903   2.721  0.00  0.00    +0.230 C 
ENDBRANCH  18  20
ENDBRANCH  14  18
ENDBRANCH   7  16
ENDBRANCH   1  11
BRANCH   4  21
ATOM     21  C   UNL     1      -7.147  -9.445  -0.394  0.00  0.00    +0.095 C 
BRANCH  21  22
ATOM     22  C   UNL     1      -8.635  -9.778  -0.525  0.00  0.00    -0.021 C 
BRANCH  22  23
ATOM     23  C   UNL     1      -9.388  -9.178   0.634  0.00  0.00    -0.059 A 
ATOM     24  C   UNL     1      -9.384  -9.812   1.863  0.00  0.00    +0.002 A 
ATOM     25  C   UNL     1     -10.075  -9.262   2.927  0.00  0.00    +0.003 A 
ATOM     26  C   UNL     1     -10.769  -8.078   2.762  0.00  0.00    -0.050 A 
ATOM     27  C   UNL     1     -10.772  -7.444   1.533  0.00  0.00    +0.003 A 
ATOM     28  C   UNL     1     -10.078  -7.992   0.471  0.00  0.00    +0.002 A 
ATOM     29  C   UNL     1     -11.523  -7.478   3.921  0.00  0.00    +0.044 C 
ENDBRANCH  22  23
BRANCH  22  30
ATOM     30  N   UNL     1      -8.812 -11.236  -0.522  0.00  0.00    +0.382 N 
ATOM     31  C   UNL     1     -10.225 -11.558  -0.762  0.00  0.00    -0.096 C 
ATOM     32  C   UNL     1      -7.987 -11.832  -1.582  0.00  0.00    -0.096 C 
ATOM     33  H   UNL     1      -8.530 -11.608   0.372  0.00  0.00    -0.082 HD
ENDBRANCH  22  30
ENDBRANCH  21  22
ENDBRANCH   4  21
TORSDOF 8
