REMARK  Name = ZINC28295449
REMARK  15 active torsions:
REMARK  status: ('A' for Active; 'I' for Inactive)
REMARK    1  A    between atoms: C_1  and  C_2
REMARK    2  A    between atoms: C_2  and  C_25
REMARK    3  A    between atoms: C_7  and  C_24
REMARK    4  A    between atoms: C_8  and  O_11
REMARK    5  A    between atoms: O_11  and  C_12
REMARK    6  A    between atoms: C_12  and  C_13
REMARK    7  A    between atoms: C_13  and  C_14
REMARK    8  A    between atoms: C_14  and  C_16
REMARK    9  A    between atoms: C_14  and  O_23
REMARK   10  A    between atoms: C_16  and  N_17
REMARK   11  A    between atoms: N_17  and  C_18
REMARK   12  A    between atoms: C_18  and  C_19
REMARK   13  A    between atoms: C_18  and  C_20
REMARK   14  A    between atoms: C_18  and  C_21
REMARK   15  A    between atoms: C_21  and  O_22
REMARK                            x       y       z     vdW  Elec       q    Type
REMARK                         _______ _______ _______ _____ _____    ______ ____
ROOT
ATOM      1  C   UNL     1      -3.045   6.881   0.888  0.00  0.00    +0.057 C 
ENDROOT
BRANCH   1   2
ATOM      2  C   UNL     1      -1.904   5.980   0.410  0.00  0.00    +0.162 C 
BRANCH   2   3
ATOM      3  O   UNL     1      -2.321   4.614   0.469  0.00  0.00    -0.376 OA
BRANCH   3  10
ATOM      4  C   UNL     1      -3.245   2.266   1.657  0.00  0.00    +0.012 C 
ATOM      5  C   UNL     1      -2.265   1.571   0.710  0.00  0.00    -0.024 C 
ATOM      6  C   UNL     1      -0.790   1.612   1.253  0.00  0.00    -0.002 C 
ATOM      7  C   UNL     1      -0.013   1.086   0.008  0.00  0.00    +0.005 C 
ATOM      8  C   UNL     1      -0.806   1.621  -1.206  0.00  0.00    +0.010 C 
ATOM      9  C   UNL     1      -1.991   2.420  -0.581  0.00  0.00    -0.000 C 
ATOM     10  C   UNL     1      -1.323   3.684   0.041  0.00  0.00    +0.125 C 
ATOM     11  C   UNL     1      -0.530   3.149   1.255  0.00  0.00    +0.036 C 
ATOM     12  C   UNL     1      -3.183   2.679  -1.504  0.00  0.00    +0.014 C 
ATOM     13  C   UNL     1      -2.713   0.146   0.376  0.00  0.00    +0.012 C 
ENDBRANCH   3  10
ENDBRANCH   2   3
ENDBRANCH   1   2
BRANCH   1  14
ATOM     14  C   UNL     1      -2.599   8.344   0.826  0.00  0.00    +0.100 C 
BRANCH  14  15
ATOM     15  O   UNL     1      -1.534   8.557   1.755  0.00  0.00    -0.394 OA
ATOM     16  H   UNL     1      -1.081   9.555   1.852  0.00  0.00    +0.210 HD
ENDBRANCH  14  15
BRANCH  14  17
ATOM     17  C   UNL     1      -3.777   9.252   1.184  0.00  0.00    -0.050 C 
BRANCH  17  18
ATOM     18  N   UNL     1      -3.384  10.656   1.008  0.00  0.00    +0.386 N 
ATOM     19  H   UNL     1      -2.533  10.884   1.667  0.00  0.00    -0.085 HD
ATOM     20  H   UNL     1      -3.094  10.828  -0.039  0.00  0.00    -0.085 HD
BRANCH  18  21
ATOM     21  C   UNL     1      -4.493  11.559   1.343  0.00  0.00    -0.050 C 
ATOM     22  C   UNL     1      -5.684  11.265   0.429  0.00  0.00    -0.008 C 
ATOM     23  C   UNL     1      -4.904  11.343   2.801  0.00  0.00    -0.008 C 
BRANCH  21  24
ATOM     24  C   UNL     1      -4.047  13.009   1.149  0.00  0.00    +0.143 C 
BRANCH  24  25
ATOM     25  O   UNL     1      -5.126  13.888   1.475  0.00  0.00    -0.396 OA
ATOM     26  H   UNL     1      -4.992  14.977   1.395  0.00  0.00    +0.209 HD
ENDBRANCH  24  25
ENDBRANCH  21  24
ENDBRANCH  18  21
ENDBRANCH  17  18
ENDBRANCH  14  17
ENDBRANCH   1  14
TORSDOF 10
