REMARK  Name = ZINC59449363
REMARK  5 active torsions:
REMARK  status: ('A' for Active; 'I' for Inactive)
REMARK    1  A    between atoms: C_6  and  N_7
REMARK    2  A    between atoms: N_7  and  C_8
REMARK    3  A    between atoms: C_8  and  N_10
REMARK    4  A    between atoms: N_10  and  C_11
REMARK    5  A    between atoms: C_11  and  C_12
REMARK                            x       y       z     vdW  Elec       q    Type
REMARK                         _______ _______ _______ _____ _____    ______ ____
ROOT
ATOM      1  C   UNL     1      -1.184  -2.065  -0.099  0.00  0.00    +0.135 C 
ATOM      2  S   UNL     1       0.308  -2.904  -0.119  0.00  0.00    -0.019 S 
ENDROOT
BRANCH   1   3
ATOM      3  N   UNL     1      -1.200  -0.721   0.010  0.00  0.00    -0.297 N 
ATOM      4  H   UNL     1      -2.044  -0.252   0.102  0.00  0.00    +0.154 HD
BRANCH   3  10
ATOM      5  C   UNL     1       1.003  -0.348  -0.907  0.00  0.00    +0.026 A 
ATOM      6  C   UNL     1       2.188   0.362  -0.925  0.00  0.00    +0.041 A 
ATOM      7  C   UNL     1       2.378   1.417  -0.049  0.00  0.00    +0.142 A 
ATOM      8  C   UNL     1       1.380   1.762   0.849  0.00  0.00    +0.078 A 
ATOM      9  C   UNL     1       0.193   1.054   0.870  0.00  0.00    +0.046 A 
ATOM     10  C   UNL     1       0.001  -0.003  -0.009  0.00  0.00    +0.034 A 
ATOM     11 CL   UNL     1       1.621   3.085   1.947  0.00  0.00    -0.081 Cl
ATOM     12  F   UNL     1       3.538   2.109  -0.068  0.00  0.00    -0.204 F 
ENDBRANCH   3  10
ENDBRANCH   1   3
BRANCH   1  13
ATOM     13  N   UNL     1      -2.343  -2.747  -0.193  0.00  0.00    -0.326 N 
ATOM     14  H   UNL     1      -3.188  -2.271  -0.182  0.00  0.00    +0.148 HD
BRANCH  13  15
ATOM     15  C   UNL     1      -2.325  -4.207  -0.311  0.00  0.00    +0.106 C 
BRANCH  15  16
ATOM     16  C   UNL     1      -3.761  -4.729  -0.401  0.00  0.00    +0.003 C 
ATOM     17  C   UNL     1      -4.491  -4.447   0.915  0.00  0.00    -0.014 C 
ATOM     18  C   UNL     1      -5.900  -5.041   0.848  0.00  0.00    -0.082 C 
ATOM     19  N   UNL     1      -5.814  -6.491   0.635  0.00  0.00    +0.379 N 
ATOM     20  C   UNL     1      -5.179  -6.767  -0.659  0.00  0.00    -0.082 C 
ATOM     21  C   UNL     1      -3.742  -6.239  -0.650  0.00  0.00    -0.014 C 
ATOM     22  H   UNL     1      -5.265  -6.906   1.373  0.00  0.00    -0.086 HD
ATOM     23  H   UNL     1      -6.742  -6.887   0.644  0.00  0.00    -0.086 HD
ENDBRANCH  15  16
ENDBRANCH  13  15
ENDBRANCH   1  13
TORSDOF 5
