REMARK  Name = ZINC30713531
REMARK  15 active torsions:
REMARK  status: ('A' for Active; 'I' for Inactive)
REMARK    1  A    between atoms: C_1  and  C_2
REMARK    2  A    between atoms: C_2  and  N_3
REMARK    3  A    between atoms: N_3  and  C_4
REMARK    4  A    between atoms: N_3  and  C_6
REMARK    5  A    between atoms: C_4  and  C_5
REMARK    6  A    between atoms: C_6  and  C_8
REMARK    7  A    between atoms: C_6  and  C_26
REMARK    8  A    between atoms: C_8  and  N_9
REMARK    9  A    between atoms: C_10  and  C_12
REMARK   10  A    between atoms: C_12  and  C_14
REMARK   11  A    between atoms: C_12  and  N_18
REMARK   12  A    between atoms: C_14  and  C_15
REMARK   13  A    between atoms: C_15  and  S_16
REMARK   14  A    between atoms: S_16  and  C_17
REMARK   15  A    between atoms: C_19  and  C_21
REMARK                            x       y       z     vdW  Elec       q    Type
REMARK                         _______ _______ _______ _____ _____    ______ ____
ROOT
ATOM      1  N   UNL     1      -1.197   3.952   0.039  0.00  0.00    -0.315 N 
ATOM      2  C   UNL     1      -1.877   4.650  -0.892  0.00  0.00    +0.233 C 
ATOM      3  O   UNL     1      -1.295   5.103  -1.855  0.00  0.00    -0.274 OA
ATOM      4  H   UNL     1      -1.725   3.541   0.912  0.00  0.00    +0.149 HD
ENDROOT
BRANCH   1   5
ATOM      5  C   UNL     1       0.245   3.741  -0.112  0.00  0.00    +0.093 C 
BRANCH   5   6
ATOM      6  C   UNL     1       0.737   2.784   0.976  0.00  0.00    -0.019 C 
BRANCH   6   7
ATOM      7  C   UNL     1       2.232   2.906   1.114  0.00  0.00    -0.041 A 
ATOM      8  C   UNL     1       3.065   2.151   0.309  0.00  0.00    +0.003 A 
ATOM      9  C   UNL     1       4.437   2.266   0.432  0.00  0.00    +0.000 A 
ATOM     10  C   UNL     1       4.977   3.129   1.367  0.00  0.00    +0.001 A 
ATOM     11  C   UNL     1       4.146   3.881   2.175  0.00  0.00    +0.020 A 
ATOM     12  C   UNL     1       2.773   3.770   2.049  0.00  0.00    +0.043 A 
ATOM     13 CL   UNL     1       1.728   4.713   3.065  0.00  0.00    -0.083 Cl
ENDBRANCH   6   7
BRANCH   6  14
ATOM     14  N   UNL     1       0.390   1.405   0.608  0.00  0.00    +0.385 N 
ATOM     15  H   UNL     1       1.087   1.079  -0.178  0.00  0.00    -0.081 HD
BRANCH  14  17
ATOM     16  C   UNL     1       2.036   0.279   2.029  0.00  0.00    -0.017 C 
ATOM     17  C   UNL     1       0.548   0.499   1.754  0.00  0.00    -0.081 C 
ENDBRANCH  14  17
BRANCH  14  18
ATOM     18  C   UNL     1      -0.972   1.332   0.063  0.00  0.00    -0.081 C 
ATOM     19  C   UNL     1      -0.916   1.419  -1.464  0.00  0.00    -0.017 C 
ENDBRANCH  14  18
ENDBRANCH   6  14
ENDBRANCH   5   6
ENDBRANCH   1   5
BRANCH   2  20
ATOM     20  C   UNL     1      -3.360   4.867  -0.737  0.00  0.00    +0.160 C 
BRANCH  20  21
ATOM     21  N   UNL     1      -3.861   5.648  -1.871  0.00  0.00    -0.297 N 
ATOM     22  C   UNL     1      -5.154   5.553  -2.236  0.00  0.00    +0.280 C 
ATOM     23  O   UNL     1      -5.907   4.817  -1.624  0.00  0.00    -0.267 OA
ATOM     24  H   UNL     1      -3.180   6.312  -2.424  0.00  0.00    +0.150 HD
BRANCH  22  25
ATOM     25  C   UNL     1      -5.655   6.335  -3.371  0.00  0.00    +0.189 A 
ATOM     26  C   UNL     1      -6.936   6.332  -3.844  0.00  0.00    +0.054 A 
ATOM     27  C   UNL     1      -6.967   7.220  -4.931  0.00  0.00    +0.042 A 
ATOM     28  C   UNL     1      -5.719   7.719  -5.072  0.00  0.00    +0.196 A 
ATOM     29  O   UNL     1      -4.933   7.187  -4.127  0.00  0.00    -0.458 OA
ENDBRANCH  22  25
ENDBRANCH  20  21
BRANCH  20  30
ATOM     30  C   UNL     1      -3.631   5.625   0.564  0.00  0.00    +0.042 C 
BRANCH  30  31
ATOM     31  C   UNL     1      -5.141   5.736   0.784  0.00  0.00    +0.071 C 
BRANCH  31  32
ATOM     32  S   UNL     1      -5.463   6.635   2.327  0.00  0.00    -0.164 S 
ATOM     33  C   UNL     1      -7.273   6.680   2.440  0.00  0.00    +0.084 C 
ENDBRANCH  31  32
ENDBRANCH  30  31
ENDBRANCH  20  30
ENDBRANCH   2  20
TORSDOF 12
