REMARK  Name = ZINC21264197
REMARK  12 active torsions:
REMARK  status: ('A' for Active; 'I' for Inactive)
REMARK    1  A    between atoms: C_1  and  C_2
REMARK    2  A    between atoms: C_2  and  C_30
REMARK    3  A    between atoms: C_4  and  N_10
REMARK    4  A    between atoms: C_6  and  C_8
REMARK    5  A    between atoms: C_6  and  C_9
REMARK    6  A    between atoms: N_10  and  C_11
REMARK    7  A    between atoms: C_11  and  N_13
REMARK    8  A    between atoms: N_13  and  C_14
REMARK    9  A    between atoms: N_13  and  C_22
REMARK   10  A    between atoms: C_14  and  C_15
REMARK   11  A    between atoms: C_15  and  N_16
REMARK   12  A    between atoms: C_22  and  C_23
REMARK                            x       y       z     vdW  Elec       q    Type
REMARK                         _______ _______ _______ _____ _____    ______ ____
ROOT
ATOM      1  N   UNL     1       0.106   7.051  -2.376  0.00  0.00    -0.307 N 
ENDROOT
BRANCH   1   2
ATOM      2  C   UNL     1       0.113   5.703  -2.353  0.00  0.00    +0.133 C 
ATOM      3  S   UNL     1      -0.229   4.821  -3.780  0.00  0.00    -0.019 S 
BRANCH   2   4
ATOM      4  N   UNL     1       0.389   5.051  -1.207  0.00  0.00    -0.324 N 
ATOM      5  H   UNL     1       0.608   5.617  -0.290  0.00  0.00    +0.148 HD
BRANCH   4   9
ATOM      6  C   UNL     1      -0.944   0.975  -2.269  0.00  0.00    -0.010 C 
ATOM      7  C   UNL     1      -1.042   1.551  -0.852  0.00  0.00    -0.072 C 
ATOM      8  C   UNL     1      -1.022   3.076  -0.918  0.00  0.00    +0.009 C 
ATOM      9  C   UNL     1       0.396   3.583  -1.181  0.00  0.00    +0.069 C 
ATOM     10  C   UNL     1       1.298   3.104  -0.042  0.00  0.00    +0.009 C 
ATOM     11  C   UNL     1       1.320   1.577  -0.002  0.00  0.00    -0.072 C 
ATOM     12  N   UNL     1      -0.012   1.005   0.008  0.00  0.00    +0.386 N 
ATOM     13  C   UNL     1       2.035   1.156   1.301  0.00  0.00    -0.010 C 
ATOM     14  C   UNL     1       2.151   1.041  -1.172  0.00  0.00    -0.010 C 
ATOM     15  C   UNL     1      -2.415   1.129  -0.282  0.00  0.00    -0.010 C 
ATOM     16  H   UNL     1      -0.328   1.088   1.058  0.00  0.00    -0.084 HD
ATOM     17  H   UNL     1       0.152  -0.053  -0.244  0.00  0.00    -0.084 HD
ENDBRANCH   4   9
ENDBRANCH   2   4
ENDBRANCH   1   2
BRANCH   1  18
ATOM     18  C   UNL     1      -0.194   7.761  -3.622  0.00  0.00    +0.122 C 
BRANCH  18  19
ATOM     19  C   UNL     1      -1.701   8.006  -3.720  0.00  0.00    +0.103 C 
BRANCH  19  20
ATOM     20  N   UNL     1      -2.001   8.718  -4.969  0.00  0.00    -0.297 NA
ATOM     21  C   UNL     1      -1.433  10.073  -4.953  0.00  0.00    +0.112 C 
ATOM     22  C   UNL     1      -1.718  10.756  -6.294  0.00  0.00    +0.175 C 
ATOM     23  O   UNL     1      -3.128  10.763  -6.529  0.00  0.00    -0.377 OA
ATOM     24  C   UNL     1      -3.715   9.459  -6.552  0.00  0.00    +0.175 C 
ATOM     25  C   UNL     1      -3.450   8.763  -5.214  0.00  0.00    +0.112 C 
ENDBRANCH  19  20
ENDBRANCH  18  19
ENDBRANCH   1  18
BRANCH   1  26
ATOM     26  C   UNL     1       0.398   7.806  -1.155  0.00  0.00    +0.144 C 
BRANCH  26  27
ATOM     27  C   UNL     1       1.880   8.066  -1.068  0.00  0.00    +0.005 A 
ATOM     28  C   UNL     1       2.674   7.280  -0.254  0.00  0.00    +0.008 A 
ATOM     29  C   UNL     1       4.034   7.515  -0.179  0.00  0.00    +0.000 A 
ATOM     30  C   UNL     1       4.600   8.543  -0.908  0.00  0.00    +0.003 A 
ATOM     31  C   UNL     1       3.808   9.334  -1.719  0.00  0.00    +0.038 A 
ATOM     32  C   UNL     1       2.446   9.096  -1.800  0.00  0.00    +0.128 A 
ATOM     33  F   UNL     1       1.671   9.869  -2.591  0.00  0.00    -0.205 F 
ENDBRANCH  26  27
ENDBRANCH   1  26
TORSDOF 8
