REMARK  Name = ZINC66246312
REMARK  5 active torsions:
REMARK  status: ('A' for Active; 'I' for Inactive)
REMARK    1  A    between atoms: C_4  and  N_7
REMARK    2  A    between atoms: N_10  and  C_11
REMARK    3  A    between atoms: C_11  and  C_12
REMARK    4  A    between atoms: C_16  and  S_18
REMARK    5  A    between atoms: S_18  and  N_21
REMARK                            x       y       z     vdW  Elec       q    Type
REMARK                         _______ _______ _______ _____ _____    ______ ____
ROOT
ATOM      1  C   UNL     1       4.855  -4.155  -0.295  0.00  0.00    +0.151 C 
ENDROOT
BRANCH   1   5
ATOM      2  N   UNL     1       3.621  -0.651  -0.032  0.00  0.00    -0.328 N 
ATOM      3  C   UNL     1       3.638  -2.022  -0.149  0.00  0.00    +0.173 C 
ATOM      4  N   UNL     1       2.518  -2.683  -0.239  0.00  0.00    -0.371 N 
ATOM      5  N   UNL     1       4.837  -2.695  -0.171  0.00  0.00    -0.353 N 
ATOM      6  H   UNL     1       2.778  -0.184   0.075  0.00  0.00    +0.169 HD
ATOM      7  H   UNL     1       2.526  -3.653  -0.244  0.00  0.00    +0.159 HD
ATOM      8  H   UNL     1       5.671  -2.204  -0.104  0.00  0.00    +0.163 HD
ATOM      9  H   UNL     1       1.677  -2.204  -0.301  0.00  0.00    +0.159 HD
BRANCH   2  13
ATOM     10  C   UNL     1       7.190   1.494  -0.139  0.00  0.00    +0.000 A 
ATOM     11  C   UNL     1       7.000   0.428  -0.998  0.00  0.00    +0.002 A 
ATOM     12  C   UNL     1       5.818  -0.285  -0.965  0.00  0.00    +0.026 A 
ATOM     13  C   UNL     1       4.820   0.069  -0.067  0.00  0.00    +0.042 A 
ATOM     14  C   UNL     1       5.014   1.141   0.795  0.00  0.00    +0.026 A 
ATOM     15  C   UNL     1       6.198   1.850   0.757  0.00  0.00    +0.002 A 
ENDBRANCH   2  13
ENDBRANCH   1   5
BRANCH   1  16
ATOM     16  C   UNL     1       6.282  -4.641  -0.294  0.00  0.00    -0.026 A 
ATOM     17  C   UNL     1       6.973  -4.757  -1.486  0.00  0.00    +0.005 A 
ATOM     18  C   UNL     1       8.282  -5.203  -1.485  0.00  0.00    +0.002 A 
ATOM     19  C   UNL     1       8.899  -5.533  -0.292  0.00  0.00    +0.028 A 
ATOM     20  C   UNL     1       8.207  -5.417   0.899  0.00  0.00    +0.106 A 
ATOM     21  C   UNL     1       6.900  -4.967   0.898  0.00  0.00    +0.034 A 
BRANCH  20  22
ATOM     22  S   UNL     1       8.993  -5.839   2.418  0.00  0.00    +0.061 S 
ATOM     23  O   UNL     1       7.957  -6.162   3.336  0.00  0.00    -0.153 OA
ATOM     24  O   UNL     1      10.037  -6.748   2.097  0.00  0.00    -0.153 OA
BRANCH  22  25
ATOM     25  N   UNL     1       9.721  -4.465   2.990  0.00  0.00    -0.177 NA
ATOM     26  C   UNL     1      11.104  -4.139   2.616  0.00  0.00    +0.109 C 
ATOM     27  C   UNL     1      11.136  -2.720   2.039  0.00  0.00    +0.017 C 
ATOM     28  C   UNL     1      10.512  -1.750   3.045  0.00  0.00    +0.003 C 
ATOM     29  C   UNL     1       9.052  -2.138   3.292  0.00  0.00    +0.017 C 
ATOM     30  C   UNL     1       8.994  -3.547   3.878  0.00  0.00    +0.109 C 
ENDBRANCH  22  25
ENDBRANCH  20  22
ENDBRANCH   1  16
TORSDOF 5
