REMARK  Name = ZINC10751048
REMARK  7 active torsions:
REMARK  status: ('A' for Active; 'I' for Inactive)
REMARK    1  A    between atoms: C_1  and  C_2
REMARK    2  A    between atoms: C_2  and  N_57
REMARK    3  A    between atoms: C_8  and  N_13
REMARK    4  A    between atoms: C_9  and  C_10
REMARK    5  A    between atoms: C_14  and  C_16
REMARK    6  A    between atoms: N_21  and  S_23
REMARK    7  A    between atoms: S_23  and  C_26
REMARK                            x       y       z     vdW  Elec       q    Type
REMARK                         _______ _______ _______ _____ _____    ______ ____
ROOT
ATOM      1  N   UNL     1      -3.479   8.513   4.459  0.00  0.00    -0.279 N 
ATOM      2  C   UNL     1      -2.712   7.612   3.814  0.00  0.00    +0.222 C 
ATOM      3  O   UNL     1      -1.505   7.660   3.916  0.00  0.00    -0.275 OA
ATOM      4  H   UNL     1      -4.445   8.475   4.377  0.00  0.00    +0.155 HD
ENDROOT
BRANCH   1  10
ATOM      5  C   UNL     1      -2.013  12.991   8.505  0.00  0.00    -0.074 C 
ATOM      6  C   UNL     1      -3.147  12.566   7.568  0.00  0.00    +0.018 C 
ATOM      7  C   UNL     1      -2.647  11.410   6.710  0.00  0.00    -0.027 A 
ATOM      8  C   UNL     1      -1.320  11.172   6.600  0.00  0.00    -0.021 A 
ATOM      9  S   UNL     1      -1.202   9.760   5.541  0.00  0.00    -0.079 S 
ATOM     10  C   UNL     1      -2.888   9.496   5.239  0.00  0.00    +0.084 A 
ATOM     11  C   UNL     1      -3.503  10.502   5.971  0.00  0.00    +0.068 A 
ATOM     12  C   UNL     1      -0.220  11.951   7.251  0.00  0.00    -0.035 C 
ATOM     13  N   UNL     1      -0.790  13.239   7.715  0.00  0.00    +0.383 N 
ATOM     14  H   UNL     1      -1.032  13.812   6.897  0.00  0.00    -0.081 HD
BRANCH  11  15
ATOM     15  C   UNL     1      -4.963  10.642   5.997  0.00  0.00    +0.244 C 
ATOM     16  O   UNL     1      -5.615  10.062   6.845  0.00  0.00    -0.270 OA
ATOM     17  N   UNL     1      -5.582  11.412   5.081  0.00  0.00    -0.325 N 
ATOM     18  H   UNL     1      -5.062  11.874   4.404  0.00  0.00    +0.145 HD
ATOM     19  H   UNL     1      -6.548  11.504   5.098  0.00  0.00    +0.145 HD
ENDBRANCH  11  15
BRANCH  13  21
ATOM     20  C   UNL     1       0.508  13.191   9.817  0.00  0.00    -0.017 C 
ATOM     21  C   UNL     1       0.203  13.966   8.534  0.00  0.00    -0.082 C 
ENDBRANCH  13  21
ENDBRANCH   1  10
BRANCH   2  22
ATOM     22  C   UNL     1      -3.355   6.545   2.966  0.00  0.00    +0.091 C 
ATOM     23  C   UNL     1      -4.275   5.686   3.837  0.00  0.00    +0.015 C 
ATOM     24  C   UNL     1      -4.954   4.622   2.971  0.00  0.00    +0.018 C 
ATOM     25  C   UNL     1      -3.889   3.717   2.353  0.00  0.00    +0.109 C 
ATOM     26  N   UNL     1      -2.913   4.548   1.635  0.00  0.00    -0.175 NA
ATOM     27  C   UNL     1      -2.268   5.658   2.350  0.00  0.00    +0.122 C 
BRANCH  26  28
ATOM     28  S   UNL     1      -2.551   4.243   0.049  0.00  0.00    +0.067 S 
ATOM     29  O   UNL     1      -2.072   5.463  -0.500  0.00  0.00    -0.152 OA
ATOM     30  O   UNL     1      -3.664   3.547  -0.496  0.00  0.00    -0.152 OA
BRANCH  28  31
ATOM     31  C   UNL     1      -1.196   3.116   0.030  0.00  0.00    +0.143 A 
ATOM     32  C   UNL     1      -1.213   1.761   0.017  0.00  0.00    +0.036 A 
ATOM     33  C   UNL     1      -0.013   1.076   0.008  0.00  0.00    +0.010 A 
ATOM     34  C   UNL     1       1.146   1.780   0.001  0.00  0.00    +0.047 A 
ATOM     35  S   UNL     1       0.555   3.464   0.015  0.00  0.00    -0.077 S 
ENDBRANCH  28  31
ENDBRANCH  26  28
ENDBRANCH   2  22
TORSDOF 6
