REMARK  Name = ZINC23982868
REMARK  8 active torsions:
REMARK  status: ('A' for Active; 'I' for Inactive)
REMARK    1  A    between atoms: C_1  and  C_2
REMARK    2  A    between atoms: C_2  and  C_4
REMARK    3  A    between atoms: C_2  and  N_13
REMARK    4  A    between atoms: C_14  and  C_16
REMARK    5  A    between atoms: C_16  and  N_17
REMARK    6  A    between atoms: C_20  and  C_24
REMARK    7  A    between atoms: C_20  and  C_31
REMARK    8  A    between atoms: C_24  and  C_25
REMARK                            x       y       z     vdW  Elec       q    Type
REMARK                         _______ _______ _______ _____ _____    ______ ____
ROOT
ATOM      1  N   UNL     1      -1.280   8.851   2.896  0.00  0.00    -0.215 N 
ATOM      2  C   UNL     1      -1.498  10.028   2.277  0.00  0.00    +0.252 C 
ATOM      3  O   UNL     1      -0.988  10.422   1.250  0.00  0.00    -0.272 OA
ATOM      4  C   UNL     1      -2.516  10.758   3.131  0.00  0.00    +0.142 C 
ATOM      5  N   UNL     1      -2.772   9.822   4.240  0.00  0.00    -0.281 N 
ATOM      6  C   UNL     1      -2.005   8.739   4.015  0.00  0.00    +0.310 C 
ATOM      7  O   UNL     1      -1.975   7.769   4.745  0.00  0.00    -0.252 OA
ATOM      8  H   UNL     1      -3.483  10.092   5.035  0.00  0.00    +0.152 HD
ENDROOT
BRANCH   4   9
ATOM      9  C   UNL     1      -3.781  11.018   2.355  0.00  0.00    -0.015 A 
ATOM     10  C   UNL     1      -3.964  12.232   1.719  0.00  0.00    +0.006 A 
ATOM     11  C   UNL     1      -5.122  12.470   1.003  0.00  0.00    +0.000 A 
ATOM     12  C   UNL     1      -6.102  11.497   0.931  0.00  0.00    +0.000 A 
ATOM     13  C   UNL     1      -5.921  10.285   1.571  0.00  0.00    +0.000 A 
ATOM     14  C   UNL     1      -4.761  10.046   2.284  0.00  0.00    +0.006 A 
ENDBRANCH   4   9
BRANCH   1  15
ATOM     15  C   UNL     1      -0.357   7.823   2.407  0.00  0.00    +0.213 C 
BRANCH  15  17
ATOM     16  N   UNL     1      -0.445   5.845   0.925  0.00  0.00    -0.304 N 
ATOM     17  C   UNL     1      -1.096   6.878   1.496  0.00  0.00    +0.232 C 
ATOM     18  O   UNL     1      -2.277   7.046   1.276  0.00  0.00    -0.274 OA
ATOM     19  H   UNL     1       0.626   5.693   1.124  0.00  0.00    +0.149 HD
BRANCH  16  21
ATOM     20  C   UNL     1      -1.191   5.502  -1.379  0.00  0.00    +0.036 C 
ATOM     21  C   UNL     1      -1.163   4.926   0.038  0.00  0.00    +0.136 C 
BRANCH  21  22
ATOM     22  C   UNL     1      -0.463   3.591   0.025  0.00  0.00    +0.126 A 
ATOM     23  C   UNL     1      -1.080   2.402   0.019  0.00  0.00    +0.055 A 
ATOM     24  C   UNL     1      -0.017   1.390   0.010  0.00  0.00    +0.020 A 
ATOM     25  C   UNL     1       0.002  -0.004   0.002  0.00  0.00    +0.011 A 
ATOM     26  C   UNL     1       1.199  -0.666  -0.013  0.00  0.00    +0.001 A 
ATOM     27  C   UNL     1       2.392   0.042  -0.021  0.00  0.00    +0.004 A 
ATOM     28  C   UNL     1       2.393   1.420  -0.014  0.00  0.00    +0.047 A 
ATOM     29  C   UNL     1       1.188   2.112   0.002  0.00  0.00    +0.135 A 
ATOM     30  O   UNL     1       0.871   3.422   0.012  0.00  0.00    -0.458 OA
ENDBRANCH  21  22
ENDBRANCH  16  21
ENDBRANCH  15  17
ENDBRANCH   1  15
BRANCH   4  31
ATOM     31  C   UNL     1      -1.930  12.069   3.659  0.00  0.00    +0.075 C 
BRANCH  31  32
ATOM     32  C   UNL     1      -0.640  11.787   4.385  0.00  0.00    -0.045 A 
ATOM     33  C   UNL     1      -0.655  11.523   5.742  0.00  0.00    +0.004 A 
ATOM     34  C   UNL     1       0.528  11.259   6.408  0.00  0.00    +0.000 A 
ATOM     35  C   UNL     1       1.726  11.269   5.718  0.00  0.00    +0.000 A 
ATOM     36  C   UNL     1       1.741  11.538   4.362  0.00  0.00    +0.000 A 
ATOM     37  C   UNL     1       0.558  11.797   3.696  0.00  0.00    +0.004 A 
ENDBRANCH  31  32
ENDBRANCH   4  31
TORSDOF 7
