REMARK  Name = ZINC35920028
REMARK  6 active torsions:
REMARK  status: ('A' for Active; 'I' for Inactive)
REMARK    1  A    between atoms: C_1  and  C_2
REMARK    2  A    between atoms: C_5  and  S_8
REMARK    3  A    between atoms: S_8  and  N_11
REMARK    4  A    between atoms: C_16  and  O_27
REMARK    5  A    between atoms: N_23  and  C_26
REMARK    6  A    between atoms: O_27  and  C_28
REMARK                            x       y       z     vdW  Elec       q    Type
REMARK                         _______ _______ _______ _____ _____    ______ ____
ROOT
ATOM      1  N   UNL     1       1.610  -4.241   0.139  0.00  0.00    -0.172 NA
ATOM      2  C   UNL     1       2.153  -4.669  -1.161  0.00  0.00    +0.116 C 
ATOM      3  C   UNL     1       3.567  -4.104  -1.291  0.00  0.00    +0.073 C 
ATOM      4  C   UNL     1       4.359  -4.353  -0.036  0.00  0.00    +0.056 A 
ATOM      5  C   UNL     1       3.772  -4.630   1.175  0.00  0.00    +0.052 A 
ATOM      6  C   UNL     1       4.591  -4.832   2.289  0.00  0.00    +0.230 A 
ATOM      7  N   UNL     1       5.908  -4.760   2.146  0.00  0.00    -0.179 NA
ATOM      8  C   UNL     1       6.440  -4.500   0.961  0.00  0.00    +0.221 A 
ATOM      9  N   UNL     1       5.687  -4.300  -0.108  0.00  0.00    -0.219 NA
ATOM     10  N   UNL     1       7.817  -4.436   0.838  0.00  0.00    -0.303 N 
ATOM     11  C   UNL     1       8.448  -4.120  -0.452  0.00  0.00    +0.089 C 
ATOM     12  C   UNL     1       9.464  -2.994  -0.233  0.00  0.00    -0.060 C 
ATOM     13  N   UNL     1      10.407  -3.386   0.822  0.00  0.00    +0.380 N 
ATOM     14  C   UNL     1       9.697  -3.531   2.099  0.00  0.00    -0.060 C 
ATOM     15  C   UNL     1       8.692  -4.678   1.996  0.00  0.00    +0.089 C 
ATOM     16  C   UNL     1      11.445  -2.355   0.956  0.00  0.00    -0.096 C 
ATOM     17  C   UNL     1       2.283  -4.734   1.347  0.00  0.00    +0.151 C 
ATOM     18  H   UNL     1      10.838  -4.264   0.577  0.00  0.00    -0.082 HD
ENDROOT
BRANCH   1  19
ATOM     19  S   UNL     1       0.295  -3.240   0.235  0.00  0.00    +0.061 S 
ATOM     20  O   UNL     1      -0.294  -3.463   1.509  0.00  0.00    -0.153 OA
ATOM     21  O   UNL     1      -0.429  -3.402  -0.978  0.00  0.00    -0.153 OA
BRANCH  19  26
ATOM     22  C   UNL     1       2.364   2.428   0.262  0.00  0.00    +0.044 C 
ATOM     23  C   UNL     1       1.847   1.012   0.255  0.00  0.00    -0.050 A 
ATOM     24  C   UNL     1       1.546   0.392  -0.943  0.00  0.00    +0.005 A 
ATOM     25  C   UNL     1       1.073  -0.906  -0.949  0.00  0.00    +0.029 A 
ATOM     26  C   UNL     1       0.900  -1.585   0.243  0.00  0.00    +0.106 A 
ATOM     27  C   UNL     1       1.201  -0.965   1.441  0.00  0.00    +0.029 A 
ATOM     28  C   UNL     1       1.679   0.332   1.447  0.00  0.00    +0.005 A 
ENDBRANCH  19  26
ENDBRANCH   1  19
BRANCH   6  29
ATOM     29  O   UNL     1       4.047  -5.098   3.501  0.00  0.00    -0.435 OA
BRANCH  29  30
ATOM     30  C   UNL     1       4.878  -5.149   4.577  0.00  0.00    +0.166 A 
ATOM     31  C   UNL     1       6.141  -4.581   4.506  0.00  0.00    +0.052 A 
ATOM     32  C   UNL     1       6.984  -4.633   5.599  0.00  0.00    +0.042 A 
ATOM     33  C   UNL     1       6.570  -5.253   6.766  0.00  0.00    +0.126 A 
ATOM     34  C   UNL     1       5.309  -5.821   6.840  0.00  0.00    +0.080 A 
ATOM     35  C   UNL     1       4.461  -5.766   5.749  0.00  0.00    +0.168 A 
ATOM     36  F   UNL     1       3.229  -6.316   5.822  0.00  0.00    -0.202 F 
ATOM     37  F   UNL     1       7.396  -5.303   7.833  0.00  0.00    -0.205 F 
ENDBRANCH  29  30
ENDBRANCH   6  29
TORSDOF 4
