REMARK  Name = ZINC32602754
REMARK  12 active torsions:
REMARK  status: ('A' for Active; 'I' for Inactive)
REMARK    1  A    between atoms: C_1  and  C_2
REMARK    2  A    between atoms: C_2  and  C_4
REMARK    3  A    between atoms: C_2  and  O_35
REMARK    4  A    between atoms: C_4  and  C_6
REMARK    5  A    between atoms: C_4  and  N_17
REMARK    6  A    between atoms: C_18  and  O_20
REMARK    7  A    between atoms: O_20  and  C_21
REMARK    8  A    between atoms: C_21  and  C_22
REMARK    9  A    between atoms: O_35  and  C_36
REMARK   10  A    between atoms: C_36  and  C_37
REMARK   11  A    between atoms: C_36  and  C_38
REMARK   12  A    between atoms: C_36  and  C_39
REMARK                            x       y       z     vdW  Elec       q    Type
REMARK                         _______ _______ _______ _____ _____    ______ ____
ROOT
ATOM      1  C   UNL     1      -4.477   7.087  -3.462  0.00  0.00    +0.195 C 
ENDROOT
BRANCH   1   2
ATOM      2  C   UNL     1      -5.836   7.718  -3.303  0.00  0.00    +0.272 C 
ATOM      3  O   UNL     1      -6.455   7.569  -2.276  0.00  0.00    -0.269 OA
ATOM      4  N   UNL     1      -6.362   8.448  -4.307  0.00  0.00    -0.178 N 
ATOM      5  C   UNL     1      -7.590   9.080  -4.314  0.00  0.00    +0.098 A 
ATOM      6  C   UNL     1      -8.625   9.187  -3.394  0.00  0.00    +0.030 A 
ATOM      7  C   UNL     1      -9.752   9.912  -3.716  0.00  0.00    +0.002 A 
ATOM      8  C   UNL     1      -9.857  10.535  -4.953  0.00  0.00    +0.002 A 
ATOM      9  C   UNL     1      -8.847  10.447  -5.866  0.00  0.00    +0.032 A 
ATOM     10  C   UNL     1      -7.694   9.712  -5.564  0.00  0.00    +0.113 A 
ATOM     11  N   UNL     1      -6.561   9.441  -6.256  0.00  0.00    -0.129 NA
ATOM     12  N   UNL     1      -5.771   8.710  -5.552  0.00  0.00    -0.057 NA
ENDBRANCH   1   2
BRANCH   1  13
ATOM     13  N   UNL     1      -3.979   6.665  -2.150  0.00  0.00    -0.267 N 
ATOM     14  C   UNL     1      -2.653   6.550  -1.938  0.00  0.00    +0.401 C 
ATOM     15  O   UNL     1      -1.871   6.796  -2.835  0.00  0.00    -0.226 OA
ATOM     16  H   UNL     1      -4.687   6.441  -1.339  0.00  0.00    +0.153 HD
BRANCH  14  17
ATOM     17  O   UNL     1      -2.195   6.161  -0.733  0.00  0.00    -0.449 OA
BRANCH  17  18
ATOM     18  C   UNL     1      -0.755   6.059  -0.577  0.00  0.00    +0.246 C 
BRANCH  18  19
ATOM     19  C   UNL     1      -0.428   5.608   0.848  0.00  0.00    +0.088 C 
ATOM     20  C   UNL     1      -0.873   4.182   1.057  0.00  0.00    -0.029 A 
ATOM     21  C   UNL     1      -2.112   3.580   0.992  0.00  0.00    +0.005 A 
ATOM     22  C   UNL     1      -2.236   2.222   1.229  0.00  0.00    +0.000 A 
ATOM     23  C   UNL     1      -1.119   1.468   1.542  0.00  0.00    +0.001 A 
ATOM     24  C   UNL     1       0.124   2.062   1.610  0.00  0.00    +0.009 A 
ATOM     25  C   UNL     1       0.258   3.430   1.367  0.00  0.00    -0.014 A 
ATOM     26  C   UNL     1       1.451   4.312   1.371  0.00  0.00    -0.014 A 
ATOM     27  C   UNL     1       1.066   5.615   1.065  0.00  0.00    -0.029 A 
ATOM     28  C   UNL     1       2.005   6.622   1.008  0.00  0.00    +0.005 A 
ATOM     29  C   UNL     1       3.337   6.342   1.256  0.00  0.00    +0.000 A 
ATOM     30  C   UNL     1       3.730   5.051   1.561  0.00  0.00    +0.001 A 
ATOM     31  C   UNL     1       2.796   4.037   1.621  0.00  0.00    +0.009 A 
ENDBRANCH  18  19
ENDBRANCH  17  18
ENDBRANCH  14  17
ENDBRANCH   1  13
BRANCH   1  33
ATOM     32  C   UNL     1      -3.232   5.157  -4.444  0.00  0.00    +0.040 C 
ATOM     33  C   UNL     1      -4.584   5.870  -4.383  0.00  0.00    +0.145 C 
BRANCH  33  34
ATOM     34  O   UNL     1      -5.573   4.973  -3.873  0.00  0.00    -0.369 OA
BRANCH  34  35
ATOM     35  C   UNL     1      -6.417   4.407  -4.878  0.00  0.00    +0.062 C 
ATOM     36  C   UNL     1      -5.555   3.732  -5.947  0.00  0.00    +0.041 C 
ATOM     37  C   UNL     1      -7.344   3.370  -4.241  0.00  0.00    +0.041 C 
ATOM     38  C   UNL     1      -7.255   5.513  -5.522  0.00  0.00    +0.041 C 
ENDBRANCH  34  35
ENDBRANCH  33  34
ENDBRANCH   1  33
TORSDOF 8
