REMARK  Name = ZINC63494956
REMARK  5 active torsions:
REMARK  status: ('A' for Active; 'I' for Inactive)
REMARK    1  A    between atoms: C_1  and  C_2
REMARK    2  A    between atoms: C_4  and  C_7
REMARK    3  A    between atoms: C_7  and  O_8
REMARK    4  A    between atoms: O_8  and  C_9
REMARK    5  A    between atoms: C_12  and  C_15
REMARK                            x       y       z     vdW  Elec       q    Type
REMARK                         _______ _______ _______ _____ _____    ______ ____
ROOT
ATOM      1  C   UNL     1      -5.319  -8.027  -2.100  0.00  0.00    +0.209 C 
ATOM      2  N   UNL     1      -4.857  -8.831  -3.246  0.00  0.00    -0.294 N 
ATOM      3  C   UNL     1      -5.192  -8.396  -4.521  0.00  0.00    +0.159 C 
ATOM      4  N   UNL     1      -6.542  -8.125  -4.748  0.00  0.00    -0.259 N 
ATOM      5  C   UNL     1      -7.233  -7.602  -3.659  0.00  0.00    +0.205 A 
ATOM      6  N   UNL     1      -6.676  -7.554  -2.400  0.00  0.00    -0.288 N 
ATOM      7  C   UNL     1      -7.607  -7.003  -1.567  0.00  0.00    +0.072 A 
ATOM      8  C   UNL     1      -7.608  -6.719  -0.207  0.00  0.00    +0.028 A 
ATOM      9  C   UNL     1      -8.755  -6.144   0.317  0.00  0.00    +0.002 A 
ATOM     10  C   UNL     1      -9.858  -5.861  -0.469  0.00  0.00    +0.002 A 
ATOM     11  C   UNL     1      -9.883  -6.135  -1.825  0.00  0.00    +0.030 A 
ATOM     12  C   UNL     1      -8.735  -6.716  -2.376  0.00  0.00    +0.091 A 
ATOM     13  N   UNL     1      -8.438  -7.103  -3.633  0.00  0.00    -0.214 NA
ATOM     14  N   UNL     1      -4.295  -8.249  -5.454  0.00  0.00    -0.375 N 
ATOM     15  H   UNL     1      -4.336  -9.639  -3.114  0.00  0.00    +0.151 HD
ATOM     16  H   UNL     1      -3.364  -8.445  -5.267  0.00  0.00    +0.158 HD
ATOM     17  H   UNL     1      -6.968  -8.289  -5.604  0.00  0.00    +0.158 HD
ATOM     18  H   UNL     1      -4.559  -7.944  -6.336  0.00  0.00    +0.158 HD
ENDROOT
BRANCH   1  22
ATOM     19  C   UNL     1      -2.715  -4.686  -1.535  0.00  0.00    +0.121 A 
ATOM     20  C   UNL     1      -3.233  -5.356  -0.437  0.00  0.00    +0.046 A 
ATOM     21  C   UNL     1      -4.075  -6.436  -0.622  0.00  0.00    +0.011 A 
ATOM     22  C   UNL     1      -4.401  -6.848  -1.901  0.00  0.00    -0.007 A 
ATOM     23  C   UNL     1      -3.885  -6.182  -2.997  0.00  0.00    +0.011 A 
ATOM     24  C   UNL     1      -3.047  -5.098  -2.817  0.00  0.00    +0.046 A 
BRANCH  19  25
ATOM     25  O   UNL     1      -1.887  -3.623  -1.356  0.00  0.00    -0.484 OA
BRANCH  25  26
ATOM     26  C   UNL     1      -1.588  -3.254  -0.008  0.00  0.00    +0.308 C 
BRANCH  26  30
ATOM     27  C   UNL     1      -0.018   1.503   0.010  0.00  0.00    +0.112 C 
ATOM     28  C   UNL     1       0.002  -0.004   0.002  0.00  0.00    +0.224 A 
ATOM     29  N   UNL     1      -1.044  -0.783   0.003  0.00  0.00    -0.193 NA
ATOM     30  C   UNL     1      -0.663  -2.065  -0.006  0.00  0.00    +0.209 A 
ATOM     31  N   UNL     1       0.638  -2.118  -0.012  0.00  0.00    -0.058 NA
ATOM     32  O   UNL     1       1.097  -0.774  -0.013  0.00  0.00    -0.338 OA
ENDBRANCH  26  30
ENDBRANCH  25  26
ENDBRANCH  19  25
ENDBRANCH   1  22
TORSDOF 4
