REMARK  Name = ZINC39336918
REMARK  4 active torsions:
REMARK  status: ('A' for Active; 'I' for Inactive)
REMARK    1  A    between atoms: C_1  and  C_2
REMARK    2  A    between atoms: C_4  and  S_10
REMARK    3  A    between atoms: S_10  and  N_13
REMARK    4  A    between atoms: N_16  and  C_19
REMARK                            x       y       z     vdW  Elec       q    Type
REMARK                         _______ _______ _______ _____ _____    ______ ____
ROOT
ATOM      1  N   UNL     1       1.495  -3.702  -2.865  0.00  0.00    -0.174 NA
ATOM      2  C   UNL     1       2.682  -3.039  -3.423  0.00  0.00    +0.128 C 
ATOM      3  C   UNL     1       3.816  -3.115  -2.394  0.00  0.00    +0.122 C 
ATOM      4  N   UNL     1       3.934  -4.504  -1.927  0.00  0.00    -0.327 N 
ATOM      5  C   UNL     1       2.747  -5.167  -1.369  0.00  0.00    +0.122 C 
ATOM      6  C   UNL     1       1.615  -5.089  -2.393  0.00  0.00    +0.128 C 
ENDROOT
BRANCH   4   7
ATOM      7  C   UNL     1       5.150  -5.181  -2.014  0.00  0.00    +0.035 C 
ATOM      8  C   UNL     1       6.241  -4.658  -2.665  0.00  0.00    +0.023 C 
ATOM      9  C   UNL     1       7.473  -5.352  -2.671  0.00  0.00    -0.000 C 
ATOM     10  C   UNL     1       7.598  -6.645  -2.349  0.00  0.00    +0.004 C 
ATOM     11  C   UNL     1       6.368  -7.433  -2.011  0.00  0.00    +0.160 C 
ATOM     12  C   UNL     1       5.354  -6.453  -1.433  0.00  0.00    +0.003 C 
ATOM     13  C   UNL     1       4.843  -7.068  -0.358  0.00  0.00    +0.027 C 
ATOM     14  C   UNL     1       5.625  -8.207  -0.055  0.00  0.00    +0.106 C 
ATOM     15  N   UNL     1       6.535  -8.438  -0.972  0.00  0.00    -0.279 NA
ENDBRANCH   4   7
BRANCH   1  16
ATOM     16  S   UNL     1       0.051  -2.898  -2.762  0.00  0.00    +0.062 S 
ATOM     17  O   UNL     1      -0.965  -3.891  -2.728  0.00  0.00    -0.153 OA
ATOM     18  O   UNL     1       0.084  -1.876  -3.748  0.00  0.00    -0.153 OA
BRANCH  16  22
ATOM     19  C   UNL     1      -0.046   1.434   0.160  0.00  0.00    +0.045 C 
ATOM     20  C   UNL     1      -0.029  -0.071   0.092  0.00  0.00    -0.030 A 
ATOM     21  C   UNL     1      -0.000  -0.708  -1.135  0.00  0.00    +0.034 A 
ATOM     22  C   UNL     1       0.015  -2.088  -1.198  0.00  0.00    +0.124 A 
ATOM     23  C   UNL     1       0.003  -2.834  -0.032  0.00  0.00    +0.069 A 
ATOM     24  C   UNL     1      -0.025  -2.198   1.196  0.00  0.00    +0.042 A 
ATOM     25  C   UNL     1      -0.036  -0.816   1.258  0.00  0.00    +0.045 A 
ATOM     26 CL   UNL     1      -0.066  -0.017   2.799  0.00  0.00    -0.083 Cl
ATOM     27 CL   UNL     1       0.022  -4.568  -0.112  0.00  0.00    -0.081 Cl
ENDBRANCH  16  22
ENDBRANCH   1  16
TORSDOF 3
