REMARK  Name = ZINC63766868
REMARK  5 active torsions:
REMARK  status: ('A' for Active; 'I' for Inactive)
REMARK    1  A    between atoms: C_1  and  O_2
REMARK    2  A    between atoms: O_2  and  C_3
REMARK    3  A    between atoms: C_6  and  N_9
REMARK    4  A    between atoms: C_14  and  C_31
REMARK    5  A    between atoms: C_31  and  C_32
REMARK                            x       y       z     vdW  Elec       q    Type
REMARK                         _______ _______ _______ _____ _____    ______ ____
ROOT
ATOM      1  N   UNL     1       2.540  -2.504   4.233  0.00  0.00    -0.210 N 
ATOM      2  C   UNL     1       3.127  -1.832   5.268  0.00  0.00    +0.232 C 
ATOM      3  O   UNL     1       2.957  -0.672   5.576  0.00  0.00    -0.274 OA
ATOM      4  C   UNL     1       4.025  -2.830   5.946  0.00  0.00    +0.107 C 
ATOM      5  C   UNL     1       4.060  -2.885   7.479  0.00  0.00    +0.072 C 
ATOM      6  N   UNL     1       4.260  -4.347   7.751  0.00  0.00    -0.295 NA
ATOM      7  C   UNL     1       3.680  -5.099   6.595  0.00  0.00    +0.136 C 
ATOM      8  C   UNL     1       3.080  -4.078   5.721  0.00  0.00    +0.123 C 
ATOM      9  C   UNL     1       2.643  -3.867   4.360  0.00  0.00    +0.233 C 
ATOM     10  O   UNL     1       2.420  -4.709   3.516  0.00  0.00    -0.274 OA
ATOM     11  C   UNL     1       4.766  -5.897   5.921  0.00  0.00    +0.003 A 
ATOM     12  C   UNL     1       5.923  -5.546   5.262  0.00  0.00    +0.008 A 
ATOM     13  C   UNL     1       6.743  -6.527   4.732  0.00  0.00    +0.000 A 
ATOM     14  C   UNL     1       6.397  -7.860   4.869  0.00  0.00    +0.002 A 
ATOM     15  C   UNL     1       5.240  -8.215   5.530  0.00  0.00    +0.023 A 
ATOM     16  C   UNL     1       4.409  -7.233   6.066  0.00  0.00    +0.039 A 
ATOM     17  N   UNL     1       3.207  -7.338   6.767  0.00  0.00    -0.283 N 
ATOM     18  C   UNL     1       2.714  -6.136   7.114  0.00  0.00    +0.243 C 
ATOM     19  O   UNL     1       1.689  -5.926   7.727  0.00  0.00    -0.273 OA
ATOM     20  H   UNL     1       5.238  -4.563   7.869  0.00  0.00    +0.124 HD
ATOM     21  H   UNL     1       2.777  -8.181   6.979  0.00  0.00    +0.155 HD
ENDROOT
BRANCH   1  25
ATOM     22  C   UNL     1       0.626  -0.619   1.042  0.00  0.00    +0.120 A 
ATOM     23  C   UNL     1       1.202   0.140   2.051  0.00  0.00    +0.047 A 
ATOM     24  C   UNL     1       1.835  -0.484   3.107  0.00  0.00    +0.027 A 
ATOM     25  C   UNL     1       1.896  -1.870   3.160  0.00  0.00    +0.044 A 
ATOM     26  C   UNL     1       1.319  -2.628   2.150  0.00  0.00    +0.027 A 
ATOM     27  C   UNL     1       0.682  -2.004   1.097  0.00  0.00    +0.047 A 
BRANCH  22  29
ATOM     28  C   UNL     1      -0.017   1.425   0.010  0.00  0.00    +0.277 C 
ATOM     29  O   UNL     1       0.002  -0.004   0.002  0.00  0.00    -0.495 OA
ENDBRANCH  22  29
ENDBRANCH   1  25
BRANCH   5  30
ATOM     30  C   UNL     1       2.737  -2.394   8.069  0.00  0.00    +0.052 C 
BRANCH  30  31
ATOM     31  C   UNL     1       2.845  -2.344   9.572  0.00  0.00    -0.040 C 
ATOM     32  C   UNL     1       3.160  -1.269  10.329  0.00  0.00    -0.001 A 
ATOM     33  C   UNL     1       3.485   0.123   9.993  0.00  0.00    +0.010 A 
ATOM     34  C   UNL     1       3.764   0.991  10.992  0.00  0.00    +0.001 A 
ATOM     35  C   UNL     1       3.752   0.595  12.337  0.00  0.00    +0.002 A 
ATOM     36  C   UNL     1       3.463  -0.666  12.724  0.00  0.00    +0.026 A 
ATOM     37  C   UNL     1       3.154  -1.661  11.756  0.00  0.00    +0.043 A 
ATOM     38  N   UNL     1       2.847  -2.930  11.877  0.00  0.00    -0.380 N 
ATOM     39  C   UNL     1       2.618  -3.485  10.538  0.00  0.00    +0.144 C 
ATOM     40  H   UNL     1       2.779  -3.419  12.712  0.00  0.00    +0.160 HD
ENDBRANCH  30  31
ENDBRANCH   5  30
TORSDOF 4
