REMARK  Name = ZINC53123832
REMARK  15 active torsions:
REMARK  status: ('A' for Active; 'I' for Inactive)
REMARK    1  A    between atoms: C_1  and  C_2
REMARK    2  A    between atoms: C_2  and  C_3
REMARK    3  A    between atoms: C_2  and  N_4
REMARK    4  A    between atoms: C_5  and  C_7
REMARK    5  A    between atoms: C_12  and  N_13
REMARK    6  A    between atoms: C_14  and  C_16
REMARK    7  A    between atoms: C_16  and  N_17
REMARK    8  A    between atoms: N_17  and  C_18
REMARK    9  A    between atoms: C_18  and  C_19
REMARK   10  A    between atoms: C_18  and  C_20
REMARK   11  A    between atoms: C_18  and  C_21
REMARK   12  A    between atoms: C_21  and  C_22
REMARK   13  A    between atoms: C_22  and  C_23
REMARK   14  A    between atoms: C_22  and  C_24
REMARK   15  A    between atoms: C_22  and  C_25
REMARK                            x       y       z     vdW  Elec       q    Type
REMARK                         _______ _______ _______ _____ _____    ______ ____
ROOT
ATOM      1  N   UNL     1       4.999  -1.510  -1.064  0.00  0.00    -0.286 N 
ATOM      2  C   UNL     1       6.337  -1.370  -1.143  0.00  0.00    +0.200 C 
ATOM      3  O   UNL     1       6.925  -1.718  -2.145  0.00  0.00    -0.278 OA
ATOM      4  H   UNL     1       4.522  -1.181  -0.286  0.00  0.00    +0.155 HD
ENDROOT
BRANCH   1  10
ATOM      5  C   UNL     1       3.088  -2.781  -1.840  0.00  0.00    +0.058 A 
ATOM      6  C   UNL     1       2.395  -3.391  -2.888  0.00  0.00    +0.015 A 
ATOM      7  C   UNL     1       2.907  -3.351  -4.166  0.00  0.00    +0.001 A 
ATOM      8  C   UNL     1       4.108  -2.708  -4.419  0.00  0.00    +0.002 A 
ATOM      9  C   UNL     1       4.805  -2.101  -3.393  0.00  0.00    +0.024 A 
ATOM     10  C   UNL     1       4.301  -2.126  -2.099  0.00  0.00    +0.045 A 
BRANCH   5  12
ATOM     11  N   UNL     1       1.325  -3.347  -0.242  0.00  0.00    -0.309 N 
ATOM     12  C   UNL     1       2.544  -2.820  -0.469  0.00  0.00    +0.246 C 
ATOM     13  O   UNL     1       3.197  -2.377   0.457  0.00  0.00    -0.270 OA
ATOM     14  H   UNL     1       0.804  -3.701  -0.980  0.00  0.00    +0.149 HD
BRANCH  11  16
ATOM     15  C   UNL     1       0.106  -2.052   1.437  0.00  0.00    +0.027 C 
ATOM     16  C   UNL     1       0.785  -3.386   1.119  0.00  0.00    +0.067 C 
ATOM     17  C   UNL     1      -0.238  -4.518   1.230  0.00  0.00    +0.027 C 
ENDBRANCH  11  16
ENDBRANCH   5  12
ENDBRANCH   1  10
BRANCH   2  18
ATOM     18  C   UNL     1       7.103  -0.781   0.014  0.00  0.00    +0.016 C 
BRANCH  18  19
ATOM     19  N   UNL     1       8.533  -0.737  -0.318  0.00  0.00    +0.388 N 
ATOM     20  H   UNL     1       8.866  -1.672  -0.500  0.00  0.00    -0.084 HD
ATOM     21  H   UNL     1       8.671  -0.165  -1.138  0.00  0.00    -0.084 HD
BRANCH  19  22
ATOM     22  C   UNL     1       9.280  -0.163   0.810  0.00  0.00    -0.073 C 
ATOM     23  C   UNL     1       8.744   1.236   1.117  0.00  0.00    -0.010 C 
ATOM     24  C   UNL     1       9.110  -1.056   2.041  0.00  0.00    -0.010 C 
BRANCH  22  25
ATOM     25  C   UNL     1      10.763  -0.073   0.446  0.00  0.00    -0.007 C 
BRANCH  25  26
ATOM     26  C   UNL     1      11.192  -1.356  -0.269  0.00  0.00    -0.039 C 
ATOM     27  C   UNL     1      10.658  -1.343  -1.703  0.00  0.00    +0.010 C 
ATOM     28  C   UNL     1      12.720  -1.439  -0.294  0.00  0.00    +0.010 C 
ATOM     29  C   UNL     1      10.627  -2.567   0.475  0.00  0.00    +0.010 C 
ENDBRANCH  25  26
ENDBRANCH  22  25
ENDBRANCH  19  22
ENDBRANCH  18  19
ENDBRANCH   2  18
TORSDOF 8
