REMARK  Name = ZINC12313391
REMARK  6 active torsions:
REMARK  status: ('A' for Active; 'I' for Inactive)
REMARK    1  A    between atoms: C_1  and  O_2
REMARK    2  A    between atoms: O_2  and  C_3
REMARK    3  A    between atoms: C_7  and  N_9
REMARK    4  A    between atoms: C_11  and  C_16
REMARK    5  A    between atoms: N_18  and  N_19
REMARK    6  A    between atoms: N_28  and  C_29
REMARK                            x       y       z     vdW  Elec       q    Type
REMARK                         _______ _______ _______ _____ _____    ______ ____
ROOT
ATOM      1  C   UNL     1      -5.537   2.710   1.158  0.00  0.00    +0.236 C 
ATOM      2  O   UNL     1      -4.973   3.074   2.168  0.00  0.00    -0.274 OA
ATOM      3  N   UNL     1      -4.830   2.506   0.028  0.00  0.00    -0.219 N 
ATOM      4  H   UNL     1      -5.281   2.215  -0.780  0.00  0.00    +0.176 HD
ENDROOT
BRANCH   3   5
ATOM      5  N   UNL     1      -3.445   2.714   0.021  0.00  0.00    -0.212 N 
ATOM      6  C   UNL     1      -2.951   3.978   0.012  0.00  0.00    +0.224 A 
ATOM      7  N   UNL     1      -1.677   4.242   0.013  0.00  0.00    -0.216 NA
ATOM      8  C   UNL     1      -0.752   3.270   0.009  0.00  0.00    +0.170 A 
ATOM      9  C   UNL     1      -1.168   1.929   0.014  0.00  0.00    +0.105 A 
ATOM     10  C   UNL     1      -2.604   1.653   0.022  0.00  0.00    +0.282 A 
ATOM     11  O   UNL     1      -3.028   0.511   0.030  0.00  0.00    -0.265 OA
ATOM     12  C   UNL     1      -0.008   1.132   0.013  0.00  0.00    +0.150 A 
ATOM     13  N   UNL     1       1.033   1.920  -0.001  0.00  0.00    -0.172 NA
ATOM     14  N   UNL     1       0.609   3.255  -0.003  0.00  0.00    -0.214 N 
BRANCH  14  15
ATOM     15  C   UNL     1       1.442   4.380  -0.017  0.00  0.00    +0.069 A 
ATOM     16  C   UNL     1       2.654   4.357   0.662  0.00  0.00    +0.028 A 
ATOM     17  C   UNL     1       3.474   5.468   0.646  0.00  0.00    +0.003 A 
ATOM     18  C   UNL     1       3.091   6.603  -0.044  0.00  0.00    +0.020 A 
ATOM     19  C   UNL     1       1.885   6.630  -0.722  0.00  0.00    +0.043 A 
ATOM     20  C   UNL     1       1.061   5.519  -0.713  0.00  0.00    +0.047 A 
ATOM     21 CL   UNL     1       1.408   8.057  -1.588  0.00  0.00    -0.083 Cl
ENDBRANCH  14  15
ENDBRANCH   3   5
BRANCH   1  24
ATOM     22  N   UNL     1      -8.664   1.625   2.691  0.00  0.00    -0.271 N 
ATOM     23  C   UNL     1      -7.600   2.630   2.593  0.00  0.00    +0.127 C 
ATOM     24  C   UNL     1      -7.027   2.486   1.166  0.00  0.00    +0.103 C 
ATOM     25  C   UNL     1      -7.367   1.015   0.836  0.00  0.00    +0.110 C 
ATOM     26  C   UNL     1      -8.555   0.702   1.720  0.00  0.00    +0.221 C 
ATOM     27  O   UNL     1      -9.299  -0.245   1.573  0.00  0.00    -0.275 OA
BRANCH  22  32
ATOM     28  C   UNL     1     -10.617   2.551   5.670  0.00  0.00    +0.122 A 
ATOM     29  C   UNL     1     -11.647   1.623   5.604  0.00  0.00    +0.046 A 
ATOM     30  C   UNL     1     -11.685   0.701   4.575  0.00  0.00    +0.005 A 
ATOM     31  C   UNL     1     -10.698   0.700   3.609  0.00  0.00    +0.024 A 
ATOM     32  C   UNL     1      -9.664   1.626   3.669  0.00  0.00    +0.040 A 
ATOM     33  C   UNL     1      -9.622   2.549   4.705  0.00  0.00    +0.069 A 
BRANCH  28  35
ATOM     34  C   UNL     1     -11.636   3.396   7.644  0.00  0.00    +0.277 C 
ATOM     35  O   UNL     1     -10.581   3.457   6.682  0.00  0.00    -0.495 OA
ENDBRANCH  28  35
ENDBRANCH  22  32
ENDBRANCH   1  24
TORSDOF 5
