REMARK  Name = ZINC38700522
REMARK  10 active torsions:
REMARK  status: ('A' for Active; 'I' for Inactive)
REMARK    1  A    between atoms: C_1  and  C_2
REMARK    2  A    between atoms: C_2  and  C_3
REMARK    3  A    between atoms: C_3  and  C_4
REMARK    4  A    between atoms: C_4  and  C_5
REMARK    5  A    between atoms: C_8  and  C_11
REMARK    6  A    between atoms: C_11  and  O_13
REMARK    7  A    between atoms: O_13  and  C_14
REMARK    8  A    between atoms: C_21  and  N_34
REMARK    9  A    between atoms: C_22  and  C_32
REMARK   10  A    between atoms: C_23  and  C_25
REMARK                            x       y       z     vdW  Elec       q    Type
REMARK                         _______ _______ _______ _____ _____    ______ ____
ROOT
ATOM      1  C   UNL     1      -3.364  -6.740  -3.337  0.00  0.00    +0.135 A 
ATOM      2  C   UNL     1      -4.261  -6.752  -4.397  0.00  0.00    +0.047 A 
ATOM      3  C   UNL     1      -5.527  -7.273  -4.223  0.00  0.00    +0.012 A 
ATOM      4  C   UNL     1      -5.909  -7.783  -2.995  0.00  0.00    +0.008 A 
ATOM      5  C   UNL     1      -5.018  -7.774  -1.933  0.00  0.00    +0.138 A 
ATOM      6  C   UNL     1      -3.741  -7.256  -2.108  0.00  0.00    +0.093 A 
ATOM      7  O   UNL     1      -5.374  -8.269  -0.722  0.00  0.00    -0.441 OA
ATOM      8  C   UNL     1      -6.418  -9.108  -0.622  0.00  0.00    +0.199 C 
ATOM      9  C   UNL     1      -7.365  -9.193  -1.586  0.00  0.00    +0.098 C 
ATOM     10  C   UNL     1      -7.296  -8.346  -2.825  0.00  0.00    +0.099 C 
ENDROOT
BRANCH  10  11
ATOM     11  C   UNL     1      -8.283  -7.213  -2.712  0.00  0.00    -0.021 A 
ATOM     12  C   UNL     1      -8.163  -6.290  -1.690  0.00  0.00    +0.005 A 
ATOM     13  C   UNL     1      -9.068  -5.251  -1.586  0.00  0.00    +0.000 A 
ATOM     14  C   UNL     1     -10.095  -5.134  -2.504  0.00  0.00    +0.001 A 
ATOM     15  C   UNL     1     -10.216  -6.056  -3.527  0.00  0.00    +0.015 A 
ATOM     16  C   UNL     1      -9.307  -7.093  -3.634  0.00  0.00    +0.022 A 
ATOM     17 BR   UNL     1      -9.468  -8.351  -5.037  0.00  0.00    -0.050 Br
ENDBRANCH  10  11
BRANCH   8  18
ATOM     18  N   UNL     1      -6.529  -9.904   0.491  0.00  0.00    -0.328 N 
ATOM     19  H   UNL     1      -5.858  -9.856   1.190  0.00  0.00    +0.145 HD
ATOM     20  H   UNL     1      -7.277 -10.515   0.578  0.00  0.00    +0.145 HD
ENDBRANCH   8  18
BRANCH   9  21
ATOM     21  C   UNL     1      -8.454 -10.108  -1.422  0.00  0.00    +0.101 C 
ATOM     22  N   UNL     1      -9.319 -10.834  -1.291  0.00  0.00    -0.191 NA
ENDBRANCH   9  21
BRANCH   1  23
ATOM     23  O   UNL     1      -2.117  -6.228  -3.506  0.00  0.00    -0.426 OA
BRANCH  23  24
ATOM     24  C   UNL     1      -1.980  -4.893  -3.521  0.00  0.00    +0.315 C 
ATOM     25  O   UNL     1      -2.959  -4.185  -3.476  0.00  0.00    -0.250 OA
BRANCH  24  29
ATOM     26  C   UNL     1       1.485  -2.567  -2.460  0.00  0.00    -0.011 C 
ATOM     27  C   UNL     1       0.662  -2.125  -3.671  0.00  0.00    +0.004 C 
ATOM     28  C   UNL     1      -0.732  -2.751  -3.597  0.00  0.00    +0.015 C 
ATOM     29  C   UNL     1      -0.607  -4.276  -3.594  0.00  0.00    +0.098 C 
ATOM     30  C   UNL     1       0.215  -4.718  -2.382  0.00  0.00    +0.015 C 
ATOM     31  C   UNL     1       1.610  -4.092  -2.457  0.00  0.00    +0.004 C 
BRANCH  26  32
ATOM     32  C   UNL     1       0.788  -2.110  -1.176  0.00  0.00    +0.003 C 
BRANCH  32  33
ATOM     33  C   UNL     1       0.774  -0.581  -1.120  0.00  0.00    +0.000 C 
BRANCH  33  35
ATOM     34  C   UNL     1       0.064   1.405   0.219  0.00  0.00    +0.004 C 
ATOM     35  C   UNL     1       0.078  -0.124   0.163  0.00  0.00    -0.003 C 
ENDBRANCH  33  35
ENDBRANCH  32  33
ENDBRANCH  26  32
ENDBRANCH  24  29
ENDBRANCH  23  24
ENDBRANCH   1  23
TORSDOF 9
