REMARK  Name = ZINC12996191
REMARK  8 active torsions:
REMARK  status: ('A' for Active; 'I' for Inactive)
REMARK    1  A    between atoms: C_1  and  C_2
REMARK    2  A    between atoms: C_4  and  S_23
REMARK    3  A    between atoms: C_6  and  N_9
REMARK    4  A    between atoms: C_7  and  C_8
REMARK    5  A    between atoms: C_10  and  C_12
REMARK    6  A    between atoms: C_12  and  N_49
REMARK    7  A    between atoms: C_20  and  C_22
REMARK    8  A    between atoms: S_23  and  N_26
REMARK                            x       y       z     vdW  Elec       q    Type
REMARK                         _______ _______ _______ _____ _____    ______ ____
ROOT
ATOM      1  N   UNL     1       0.017  -2.771  -2.419  0.00  0.00    -0.287 N 
ATOM      2  C   UNL     1       0.137  -4.114  -2.427  0.00  0.00    +0.201 C 
ATOM      3  O   UNL     1       0.155  -4.727  -1.381  0.00  0.00    -0.278 OA
ATOM      4  H   UNL     1      -0.078  -2.288  -3.255  0.00  0.00    +0.155 HD
ENDROOT
BRANCH   1  10
ATOM      5  C   UNL     1      -1.235   1.200   0.195  0.00  0.00    +0.044 C 
ATOM      6  C   UNL     1      -0.569  -0.148   0.089  0.00  0.00    -0.044 A 
ATOM      7  C   UNL     1       0.055  -0.698   1.194  0.00  0.00    +0.032 A 
ATOM      8  C   UNL     1       0.666  -1.935   1.102  0.00  0.00    +0.107 A 
ATOM      9  C   UNL     1       0.655  -2.625  -0.095  0.00  0.00    +0.052 A 
ATOM     10  C   UNL     1       0.029  -2.075  -1.205  0.00  0.00    +0.038 A 
ATOM     11  C   UNL     1      -0.589  -0.835  -1.108  0.00  0.00    -0.026 A 
ATOM     12  C   UNL     1      -1.275  -0.238  -2.309  0.00  0.00    +0.046 C 
BRANCH   8  13
ATOM     13  S   UNL     1       1.460  -2.631   2.513  0.00  0.00    +0.056 S 
ATOM     14  O   UNL     1       2.427  -3.550   2.022  0.00  0.00    -0.153 OA
ATOM     15  O   UNL     1       1.803  -1.546   3.363  0.00  0.00    -0.153 OA
BRANCH  13  16
ATOM     16  N   UNL     1       0.325  -3.525   3.321  0.00  0.00    -0.204 NA
ATOM     17  H   UNL     1       0.595  -4.305   3.832  0.00  0.00    +0.144 HD
ATOM     18  H   UNL     1      -0.610  -3.270   3.285  0.00  0.00    +0.144 HD
ENDBRANCH  13  16
ENDBRANCH   8  13
ENDBRANCH   1  10
BRANCH   2  19
ATOM     19  C   UNL     1       0.248  -4.852  -3.736  0.00  0.00    +0.020 C 
BRANCH  19  29
ATOM     20  C   UNL     1       1.616  -6.598  -2.762  0.00  0.00    -0.072 C 
ATOM     21  C   UNL     1       1.509  -8.009  -2.158  0.00  0.00    +0.024 C 
ATOM     22  C   UNL     1       0.977  -8.918  -3.217  0.00  0.00    -0.010 A 
ATOM     23  C   UNL     1       0.396  -8.546  -4.392  0.00  0.00    -0.051 A 
ATOM     24  C   UNL     1      -0.025  -9.576  -5.231  0.00  0.00    +0.010 A 
ATOM     25  C   UNL     1       0.150 -10.866  -4.860  0.00  0.00    +0.045 A 
ATOM     26  S   UNL     1       0.940 -10.688  -3.267  0.00  0.00    -0.101 S 
ATOM     27  C   UNL     1       0.241  -7.064  -4.720  0.00  0.00    -0.039 C 
ATOM     28  C   UNL     1      -1.136  -6.817  -5.339  0.00  0.00    -0.008 C 
ATOM     29  N   UNL     1       0.339  -6.298  -3.455  0.00  0.00    +0.390 N 
ATOM     30  H   UNL     1      -0.440  -6.568  -2.843  0.00  0.00    -0.080 HD
ENDBRANCH  19  29
ENDBRANCH   2  19
TORSDOF 5
