REMARK  Name = ZINC06877448
REMARK  9 active torsions:
REMARK  status: ('A' for Active; 'I' for Inactive)
REMARK    1  A    between atoms: C_1  and  C_2
REMARK    2  A    between atoms: C_2  and  N_60
REMARK    3  A    between atoms: C_8  and  N_25
REMARK    4  A    between atoms: C_9  and  C_10
REMARK    5  A    between atoms: C_10  and  C_12
REMARK    6  A    between atoms: C_10  and  N_13
REMARK    7  A    between atoms: N_16  and  C_17
REMARK    8  A    between atoms: C_20  and  C_24
REMARK    9  A    between atoms: C_21  and  C_23
REMARK                            x       y       z     vdW  Elec       q    Type
REMARK                         _______ _______ _______ _____ _____    ______ ____
ROOT
ATOM      1  C   UNL     1       7.015   3.489   2.405  0.00  0.00    -0.074 C 
ATOM      2  C   UNL     1       6.029   2.909   1.387  0.00  0.00    +0.018 C 
ATOM      3  C   UNL     1       6.022   1.391   1.541  0.00  0.00    -0.034 A 
ATOM      4  C   UNL     1       7.049   0.780   2.195  0.00  0.00    -0.021 A 
ATOM      5  S   UNL     1       6.624  -0.939   2.139  0.00  0.00    -0.077 S 
ATOM      6  C   UNL     1       5.085  -0.779   1.246  0.00  0.00    +0.090 A 
ATOM      7  C   UNL     1       5.012   0.566   1.052  0.00  0.00    +0.007 A 
ATOM      8  C   UNL     1       8.242   1.439   2.803  0.00  0.00    -0.035 C 
ATOM      9  N   UNL     1       8.323   2.818   2.262  0.00  0.00    +0.383 N 
ATOM     10  H   UNL     1       8.569   2.773   1.266  0.00  0.00    -0.081 HD
ENDROOT
BRANCH   6  11
ATOM     11  N   UNL     1       4.189  -1.777   0.847  0.00  0.00    -0.317 N 
ATOM     12  C   UNL     1       2.836  -1.749   1.026  0.00  0.00    +0.092 A 
ATOM     13  C   UNL     1       2.318  -2.883   0.508  0.00  0.00    +0.019 A 
ATOM     14  C   UNL     1       3.391  -3.642  -0.001  0.00  0.00    +0.019 A 
ATOM     15  C   UNL     1       4.523  -2.942   0.220  0.00  0.00    +0.092 A 
ENDBRANCH   6  11
BRANCH   9  17
ATOM     16  C   UNL     1       8.979   3.764   4.449  0.00  0.00    -0.017 C 
ATOM     17  C   UNL     1       9.366   3.583   2.980  0.00  0.00    -0.082 C 
ENDBRANCH   9  17
BRANCH   7  18
ATOM     18  C   UNL     1       3.840   1.161   0.315  0.00  0.00    +0.104 C 
ATOM     19  C   UNL     1       2.923   1.877   1.309  0.00  0.00    +0.033 C 
BRANCH  18  20
ATOM     20  N   UNL     1       4.325   2.120  -0.680  0.00  0.00    -0.292 N 
ATOM     21  C   UNL     1       3.519   2.512  -1.687  0.00  0.00    +0.304 C 
ATOM     22  O   UNL     1       2.389   2.070  -1.769  0.00  0.00    -0.252 OA
ATOM     23  N   UNL     1       3.965   3.395  -2.603  0.00  0.00    -0.269 N 
ATOM     24  H   UNL     1       5.226   2.473  -0.615  0.00  0.00    +0.151 HD
ATOM     25  H   UNL     1       4.837   3.806  -2.496  0.00  0.00    +0.156 HD
BRANCH  23  26
ATOM     26  C   UNL     1       3.168   3.723  -3.705  0.00  0.00    +0.035 A 
ATOM     27  C   UNL     1       2.330   2.768  -4.267  0.00  0.00    +0.023 A 
ATOM     28  C   UNL     1       1.540   3.097  -5.351  0.00  0.00    +0.005 A 
ATOM     29  C   UNL     1       1.591   4.372  -5.884  0.00  0.00    -0.047 A 
ATOM     30  C   UNL     1       2.428   5.323  -5.330  0.00  0.00    -0.046 A 
ATOM     31  C   UNL     1       3.216   5.002  -4.242  0.00  0.00    +0.027 A 
ATOM     32  C   UNL     1       2.480   6.711  -5.915  0.00  0.00    +0.044 C 
ATOM     33  C   UNL     1       0.732   4.725  -7.071  0.00  0.00    +0.044 C 
ENDBRANCH  23  26
ENDBRANCH  18  20
ENDBRANCH   7  18
TORSDOF 5
