REMARK  Name = ZINC08685575
REMARK  6 active torsions:
REMARK  status: ('A' for Active; 'I' for Inactive)
REMARK    1  A    between atoms: C_3  and  S_20
REMARK    2  A    between atoms: C_6  and  N_7
REMARK    3  A    between atoms: C_8  and  C_10
REMARK    4  A    between atoms: C_10  and  O_11
REMARK    5  A    between atoms: O_11  and  C_12
REMARK    6  A    between atoms: S_20  and  N_23
REMARK                            x       y       z     vdW  Elec       q    Type
REMARK                         _______ _______ _______ _____ _____    ______ ____
ROOT
ATOM      1  C   UNL     1       0.013  -0.008   0.186  0.00  0.00    +0.025 A 
ATOM      2  C   UNL     1      -0.008   1.373   0.198  0.00  0.00    +0.030 A 
ATOM      3  C   UNL     1       1.163   2.086   0.018  0.00  0.00    +0.109 A 
ATOM      4  C   UNL     1       2.359   1.419  -0.175  0.00  0.00    +0.030 A 
ATOM      5  C   UNL     1       2.387   0.038  -0.189  0.00  0.00    +0.025 A 
ATOM      6  C   UNL     1       1.212  -0.681  -0.008  0.00  0.00    +0.034 A 
ENDROOT
BRANCH   6   7
ATOM      7  N   UNL     1       1.237  -2.079  -0.020  0.00  0.00    -0.283 N 
ATOM      8  C   UNL     1       0.186  -2.768  -0.507  0.00  0.00    +0.255 C 
ATOM      9  O   UNL     1      -0.741  -2.177  -1.021  0.00  0.00    -0.272 OA
ATOM     10  H   UNL     1       2.011  -2.554   0.321  0.00  0.00    +0.155 HD
BRANCH   8  11
ATOM     11  C   UNL     1       0.160  -4.272  -0.412  0.00  0.00    +0.325 C 
BRANCH  11  12
ATOM     12  O   UNL     1      -1.048  -4.765  -0.993  0.00  0.00    -0.481 OA
BRANCH  12  13
ATOM     13  C   UNL     1      -1.230  -6.113  -0.989  0.00  0.00    +0.140 A 
ATOM     14  C   UNL     1      -0.264  -6.942  -0.438  0.00  0.00    +0.048 A 
ATOM     15  C   UNL     1      -0.450  -8.311  -0.434  0.00  0.00    +0.023 A 
ATOM     16  C   UNL     1      -1.599  -8.855  -0.981  0.00  0.00    +0.043 A 
ATOM     17  C   UNL     1      -2.563  -8.031  -1.532  0.00  0.00    +0.043 A 
ATOM     18  C   UNL     1      -2.384  -6.660  -1.531  0.00  0.00    +0.084 A 
ATOM     19 CL   UNL     1      -3.598  -5.625  -2.215  0.00  0.00    -0.080 Cl
ATOM     20 CL   UNL     1      -1.829 -10.576  -0.975  0.00  0.00    -0.083 Cl
ENDBRANCH  12  13
ENDBRANCH  11  12
ENDBRANCH   8  11
ENDBRANCH   6   7
BRANCH   3  21
ATOM     21  S   UNL     1       1.132   3.847   0.034  0.00  0.00    +0.073 S 
ATOM     22  O   UNL     1       2.269   4.281  -0.700  0.00  0.00    -0.150 OA
ATOM     23  O   UNL     1      -0.191   4.233  -0.312  0.00  0.00    -0.150 OA
BRANCH  21  24
ATOM     24  N   UNL     1       1.371   4.327   1.601  0.00  0.00    -0.205 N 
ATOM     25  C   UNL     1       2.562   4.066   2.224  0.00  0.00    +0.088 C 
ATOM     26  C   UNL     1       4.776   3.164   2.242  0.00  0.00    +0.113 C 
ATOM     27  C   UNL     1       4.571   2.049   3.268  0.00  0.00    +0.021 C 
ATOM     28  C   UNL     1       4.129   2.622   4.605  0.00  0.00    +0.002 C 
ATOM     29  C   UNL     1       2.755   3.268   4.556  0.00  0.00    +0.007 C 
ATOM     30  C   UNL     1       2.777   4.511   3.654  0.00  0.00    +0.070 C 
ATOM     31  H   UNL     1       0.666   4.793   2.078  0.00  0.00    +0.175 HD
ATOM     32  N   UNL     1       3.474   3.431   1.521  0.00  0.00    -0.375 N 
ATOM     33  H   UNL     1       3.314   3.138   0.550  0.00  0.00    +0.161 HD
ENDBRANCH  21  24
ENDBRANCH   3  21
TORSDOF 6
