REMARK  Name = ZINC63349991
REMARK  10 active torsions:
REMARK  status: ('A' for Active; 'I' for Inactive)
REMARK    1  A    between atoms: C_1  and  C_2
REMARK    2  A    between atoms: C_2  and  O_3
REMARK    3  A    between atoms: O_3  and  C_4
REMARK    4  A    between atoms: N_6  and  C_7
REMARK    5  A    between atoms: C_7  and  C_9
REMARK    6  A    between atoms: C_7  and  C_19
REMARK    7  A    between atoms: C_9  and  C_10
REMARK    8  A    between atoms: N_21  and  C_22
REMARK    9  A    between atoms: C_22  and  C_23
REMARK   10  A    between atoms: C_23  and  C_24
REMARK                            x       y       z     vdW  Elec       q    Type
REMARK                         _______ _______ _______ _____ _____    ______ ____
ROOT
ATOM      1  C   UNL     1       1.509  -3.748  -2.597  0.00  0.00    +0.166 C 
ENDROOT
BRANCH   1   4
ATOM      2  C   UNL     1       0.776  -1.798  -1.335  0.00  0.00    +0.401 C 
ATOM      3  O   UNL     1       0.312  -2.549  -0.500  0.00  0.00    -0.226 OA
ATOM      4  N   UNL     1       1.395  -2.298  -2.422  0.00  0.00    -0.270 N 
ATOM      5  H   UNL     1       1.765  -1.699  -3.088  0.00  0.00    +0.153 HD
BRANCH   2   6
ATOM      6  O   UNL     1       0.671  -0.465  -1.174  0.00  0.00    -0.451 OA
BRANCH   6   8
ATOM      7  C   UNL     1      -0.019   1.526   0.010  0.00  0.00    +0.048 C 
ATOM      8  C   UNL     1       0.002  -0.004   0.002  0.00  0.00    +0.230 C 
ENDBRANCH   6   8
ENDBRANCH   2   6
ENDBRANCH   1   4
BRANCH   1   9
ATOM      9  C   UNL     1       2.275  -4.335  -1.439  0.00  0.00    +0.234 C 
ATOM     10  O   UNL     1       2.371  -3.717  -0.400  0.00  0.00    -0.274 OA
ATOM     11  N   UNL     1       2.852  -5.547  -1.558  0.00  0.00    -0.313 N 
ATOM     12  H   UNL     1       2.775  -6.042  -2.390  0.00  0.00    +0.149 HD
BRANCH  11  13
ATOM     13  C   UNL     1       3.596  -6.118  -0.433  0.00  0.00    +0.108 C 
BRANCH  13  14
ATOM     14  C   UNL     1       4.146  -7.490  -0.828  0.00  0.00    +0.052 C 
BRANCH  14  15
ATOM     15  C   UNL     1       4.912  -8.077   0.329  0.00  0.00    -0.040 C 
ATOM     16  C   UNL     1       4.443  -8.940   1.260  0.00  0.00    -0.001 A 
ATOM     17  C   UNL     1       3.131  -9.565   1.465  0.00  0.00    +0.010 A 
ATOM     18  C   UNL     1       2.962 -10.406   2.511  0.00  0.00    +0.001 A 
ATOM     19  C   UNL     1       4.005 -10.694   3.402  0.00  0.00    +0.002 A 
ATOM     20  C   UNL     1       5.238 -10.158   3.279  0.00  0.00    +0.026 A 
ATOM     21  C   UNL     1       5.529  -9.261   2.214  0.00  0.00    +0.043 A 
ATOM     22  N   UNL     1       6.625  -8.621   1.887  0.00  0.00    -0.380 N 
ATOM     23  C   UNL     1       6.361  -7.826   0.682  0.00  0.00    +0.144 C 
ATOM     24  H   UNL     1       7.471  -8.669   2.359  0.00  0.00    +0.160 HD
ENDBRANCH  14  15
ENDBRANCH  13  14
ENDBRANCH  11  13
ENDBRANCH   1   9
BRANCH   1  25
ATOM     25  C   UNL     1       0.111  -4.367  -2.650  0.00  0.00    +0.065 C 
BRANCH  25  26
ATOM     26  C   UNL     1      -0.611  -3.873  -3.877  0.00  0.00    -0.039 C 
ATOM     27  C   UNL     1      -0.691  -4.491  -5.078  0.00  0.00    -0.001 A 
ATOM     28  C   UNL     1      -0.150  -5.759  -5.581  0.00  0.00    +0.010 A 
ATOM     29  C   UNL     1      -0.404  -6.119  -6.860  0.00  0.00    +0.001 A 
ATOM     30  C   UNL     1      -1.169  -5.313  -7.714  0.00  0.00    +0.002 A 
ATOM     31  C   UNL     1      -1.700  -4.135  -7.324  0.00  0.00    +0.026 A 
ATOM     32  C   UNL     1      -1.496  -3.658  -6.000  0.00  0.00    +0.043 A 
ATOM     33  N   UNL     1      -1.898  -2.568  -5.393  0.00  0.00    -0.380 N 
ATOM     34  C   UNL     1      -1.397  -2.589  -4.014  0.00  0.00    +0.144 C 
ATOM     35  H   UNL     1      -2.439  -1.867  -5.789  0.00  0.00    +0.160 HD
ENDBRANCH  25  26
ENDBRANCH   1  25
TORSDOF 9
