REMARK  Name = ZINC59935409
REMARK  7 active torsions:
REMARK  status: ('A' for Active; 'I' for Inactive)
REMARK    1  A    between atoms: C_5  and  C_7
REMARK    2  A    between atoms: C_10  and  C_12
REMARK    3  A    between atoms: C_13  and  C_14
REMARK    4  A    between atoms: N_16  and  C_17
REMARK    5  A    between atoms: C_21  and  C_23
REMARK    6  A    between atoms: C_23  and  N_24
REMARK    7  A    between atoms: C_28  and  C_30
REMARK                            x       y       z     vdW  Elec       q    Type
REMARK                         _______ _______ _______ _____ _____    ______ ____
ROOT
ATOM      1  C   UNL     1       3.686  -7.580  -1.956  0.00  0.00    +0.241 C 
ATOM      2  O   UNL     1       3.706  -8.473  -1.128  0.00  0.00    -0.270 OA
ATOM      3  N   UNL     1       3.996  -7.845  -3.241  0.00  0.00    -0.282 N 
ATOM      4  H   UNL     1       3.915  -7.150  -3.913  0.00  0.00    +0.155 HD
ENDROOT
BRANCH   3   5
ATOM      5  C   UNL     1       4.433  -9.123  -3.605  0.00  0.00    +0.034 A 
ATOM      6  C   UNL     1       3.909 -10.244  -2.974  0.00  0.00    +0.023 A 
ATOM      7  C   UNL     1       4.342 -11.504  -3.336  0.00  0.00    +0.002 A 
ATOM      8  C   UNL     1       5.296 -11.650  -4.327  0.00  0.00    +0.002 A 
ATOM      9  C   UNL     1       5.820 -10.537  -4.957  0.00  0.00    -0.062 A 
ATOM     10  C   UNL     1       5.387  -9.274  -4.603  0.00  0.00    +0.025 A 
BRANCH   9  11
ATOM     11  C   UNL     1       6.860 -10.701  -6.035  0.00  0.00    -0.042 C 
BRANCH  11  12
ATOM     12  N   UNL     1       6.197 -10.824  -7.340  0.00  0.00    +0.390 N 
ATOM     13  C   UNL     1       5.415 -12.078  -7.385  0.00  0.00    -0.077 C 
ATOM     14  C   UNL     1       5.559 -12.582  -8.842  0.00  0.00    -0.020 C 
ATOM     15  C   UNL     1       7.027 -12.198  -9.164  0.00  0.00    -0.008 C 
ATOM     16  C   UNL     1       7.211 -10.864  -8.410  0.00  0.00    +0.019 C 
ATOM     17  H   UNL     1       5.582 -10.037  -7.485  0.00  0.00    -0.080 HD
BRANCH  16  18
ATOM     18  C   UNL     1       7.006  -9.709  -9.355  0.00  0.00    +0.197 C 
ATOM     19  O   UNL     1       6.103  -8.922  -9.163  0.00  0.00    -0.278 OA
ATOM     20  N   UNL     1       7.825  -9.550 -10.413  0.00  0.00    -0.331 N 
ATOM     21  H   UNL     1       8.547 -10.180 -10.566  0.00  0.00    +0.145 HD
ATOM     22  H   UNL     1       7.693  -8.806 -11.022  0.00  0.00    +0.145 HD
ENDBRANCH  16  18
ENDBRANCH  11  12
ENDBRANCH   9  11
ENDBRANCH   3   5
BRANCH   1  24
ATOM     23  C   UNL     1       3.027  -5.998  -0.276  0.00  0.00    +0.020 C 
ATOM     24  C   UNL     1       3.339  -6.265  -1.570  0.00  0.00    +0.068 C 
BRANCH  23  28
ATOM     25  C   UNL     1       2.087  -2.064   0.386  0.00  0.00    +0.023 A 
ATOM     26  C   UNL     1       2.033  -2.879   1.506  0.00  0.00    +0.017 A 
ATOM     27  C   UNL     1       2.332  -4.205   1.370  0.00  0.00    +0.016 A 
ATOM     28  C   UNL     1       2.680  -4.683   0.110  0.00  0.00    +0.013 A 
ATOM     29  S   UNL     1       2.570  -3.211  -0.894  0.00  0.00    -0.089 S 
BRANCH  25  34
ATOM     30  C   UNL     1       0.384   1.266   0.710  0.00  0.00    +0.001 A 
ATOM     31  C   UNL     1       1.292   2.097   0.075  0.00  0.00    +0.003 A 
ATOM     32  C   UNL     1       2.457   1.580  -0.459  0.00  0.00    +0.039 A 
ATOM     33  C   UNL     1       2.724   0.227  -0.362  0.00  0.00    +0.132 A 
ATOM     34  C   UNL     1       1.811  -0.617   0.278  0.00  0.00    +0.024 A 
ATOM     35  C   UNL     1       0.637  -0.085   0.815  0.00  0.00    +0.012 A 
ATOM     36  F   UNL     1       3.863  -0.279  -0.885  0.00  0.00    -0.205 F 
ENDBRANCH  25  34
ENDBRANCH  23  28
ENDBRANCH   1  24
TORSDOF 7
