REMARK  Name = ZINC34756680
REMARK  6 active torsions:
REMARK  status: ('A' for Active; 'I' for Inactive)
REMARK    1  A    between atoms: C_2  and  C_3
REMARK    2  A    between atoms: C_3  and  N_4
REMARK    3  A    between atoms: C_17  and  S_19
REMARK    4  A    between atoms: S_19  and  C_20
REMARK    5  A    between atoms: C_20  and  C_21
REMARK    6  A    between atoms: N_23  and  C_24
REMARK                            x       y       z     vdW  Elec       q    Type
REMARK                         _______ _______ _______ _____ _____    ______ ____
ROOT
ATOM      1  N   UNL     1       0.326  -1.734   1.951  0.00  0.00    +0.384 N 
ATOM      2  C   UNL     1       0.135  -2.445   3.222  0.00  0.00    -0.059 C 
ATOM      3  C   UNL     1       1.385  -3.274   3.535  0.00  0.00    +0.088 C 
ATOM      4  N   UNL     1       1.664  -4.149   2.386  0.00  0.00    -0.318 N 
ATOM      5  C   UNL     1       1.710  -3.542   1.047  0.00  0.00    +0.088 C 
ATOM      6  C   UNL     1       0.445  -2.700   0.852  0.00  0.00    -0.059 C 
ATOM      7  C   UNL     1       1.877  -5.505   2.560  0.00  0.00    +0.134 A 
ATOM      8  C   UNL     1       3.200  -6.018   2.666  0.00  0.00    +0.051 A 
ATOM      9  C   UNL     1       4.470  -5.290   2.615  0.00  0.00    -0.025 A 
ATOM     10  C   UNL     1       5.598  -6.018   2.742  0.00  0.00    -0.004 A 
ATOM     11  S   UNL     1       5.048  -7.692   2.934  0.00  0.00    -0.073 S 
ATOM     12  C   UNL     1       3.299  -7.412   2.843  0.00  0.00    +0.115 A 
ATOM     13  N   UNL     1       2.227  -8.179   2.903  0.00  0.00    -0.214 NA
ATOM     14  C   UNL     1       1.017  -7.646   2.797  0.00  0.00    +0.191 A 
ATOM     15  N   UNL     1       0.853  -6.338   2.635  0.00  0.00    -0.206 NA
ATOM     16  C   UNL     1       7.009  -5.516   2.722  0.00  0.00    +0.043 C 
ATOM     17  C   UNL     1       7.008  -4.086   2.163  0.00  0.00    +0.005 C 
ATOM     18  C   UNL     1       5.913  -3.283   2.872  0.00  0.00    +0.005 C 
ATOM     19  C   UNL     1       4.536  -3.777   2.427  0.00  0.00    +0.037 C 
ATOM     20  H   UNL     1       1.167  -1.179   2.002  0.00  0.00    -0.081 HD
ENDROOT
BRANCH   1  21
ATOM     21  C   UNL     1      -0.825  -0.855   1.706  0.00  0.00    -0.052 C 
BRANCH  21  23
ATOM     22  C   UNL     1      -0.900   1.477   2.425  0.00  0.00    +0.002 C 
ATOM     23  C   UNL     1      -0.877   0.213   2.768  0.00  0.00    -0.053 C 
ENDBRANCH  21  23
ENDBRANCH   1  21
BRANCH  14  24
ATOM     24  S   UNL     1      -0.398  -8.691   2.881  0.00  0.00    -0.077 S 
BRANCH  24  25
ATOM     25  C   UNL     1       0.295 -10.352   3.109  0.00  0.00    +0.173 C 
BRANCH  25  26
ATOM     26  C   UNL     1      -0.824 -11.357   3.196  0.00  0.00    +0.224 C 
ATOM     27  O   UNL     1      -1.977 -10.989   3.113  0.00  0.00    -0.275 OA
ATOM     28  N   UNL     1      -0.545 -12.664   3.367  0.00  0.00    -0.312 N 
ATOM     29  H   UNL     1       0.377 -12.958   3.434  0.00  0.00    +0.149 HD
BRANCH  28  30
ATOM     30  C   UNL     1      -1.634 -13.640   3.453  0.00  0.00    +0.073 C 
ATOM     31  C   UNL     1      -2.143 -13.712   4.894  0.00  0.00    +0.022 C 
ATOM     32  C   UNL     1      -3.280 -14.732   4.983  0.00  0.00    +0.002 C 
ATOM     33  C   UNL     1      -2.766 -16.108   4.555  0.00  0.00    +0.000 C 
ATOM     34  C   UNL     1      -2.256 -16.037   3.114  0.00  0.00    +0.002 C 
ATOM     35  C   UNL     1      -1.119 -15.017   3.025  0.00  0.00    +0.022 C 
ENDBRANCH  28  30
ENDBRANCH  25  26
ENDBRANCH  24  25
ENDBRANCH  14  24
TORSDOF 6
