REMARK  Name = ZINC64683775
REMARK  10 active torsions:
REMARK  status: ('A' for Active; 'I' for Inactive)
REMARK    1  A    between atoms: C_1  and  C_2
REMARK    2  A    between atoms: C_5  and  N_9
REMARK    3  A    between atoms: C_6  and  C_8
REMARK    4  A    between atoms: C_10  and  S_15
REMARK    5  A    between atoms: S_15  and  C_16
REMARK    6  A    between atoms: C_16  and  C_17
REMARK    7  A    between atoms: N_19  and  CA_20
REMARK    8  A    between atoms: CA_20  and  CB_22
REMARK    9  A    between atoms: CA_20  and  C_32
REMARK   10  A    between atoms: CB_22  and  CG_23
REMARK                            x       y       z     vdW  Elec       q    Type
REMARK                         _______ _______ _______ _____ _____    ______ ____
ROOT
ATOM      1  C   UNK A   0      -2.154  -4.966   1.967  0.00  0.00    +0.167 C 
ENDROOT
BRANCH   1   2
ATOM      2  C   UNK A   0      -3.357  -4.656   2.819  0.00  0.00    +0.224 C 
ATOM      3  O   UNK A   0      -4.382  -4.265   2.301  0.00  0.00    -0.275 OA
ATOM      4  N   TRP A   1      -3.295  -4.813   4.156  0.00  0.00    -0.301 N 
ATOM      5  H   TRP A   1      -2.476  -5.126   4.570  0.00  0.00    +0.150 HD
BRANCH   4   6
ATOM      6  CA  TRP A   1      -4.465  -4.511   4.984  0.00  0.00    +0.190 C 
BRANCH   6   7
ATOM      7  C   TRP A   1      -4.488  -3.039   5.304  0.00  0.00    +0.376 C 
ATOM      8  O   TRP A   1      -5.552  -2.469   5.478  0.00  0.00    -0.244 OA
ATOM      9  OXT TRP A   1      -3.443  -2.417   5.388  0.00  0.00    -0.244 OA
ENDBRANCH   6   7
BRANCH   6  10
ATOM     10  CB  TRP A   1      -4.390  -5.314   6.285  0.00  0.00    +0.067 C 
BRANCH  10  11
ATOM     11  CG  TRP A   1      -4.491  -6.785   5.973  0.00  0.00    -0.039 C 
ATOM     12  CD2 TRP A   1      -3.467  -7.653   5.808  0.00  0.00    -0.001 A 
ATOM     13  CE3 TRP A   1      -2.009  -7.494   5.865  0.00  0.00    +0.010 A 
ATOM     14  CZ3 TRP A   1      -1.222  -8.573   5.651  0.00  0.00    +0.001 A 
ATOM     15  CH2 TRP A   1      -1.763  -9.836   5.376  0.00  0.00    +0.002 A 
ATOM     16  CZ2 TRP A   1      -3.092 -10.061   5.307  0.00  0.00    +0.026 A 
ATOM     17  CE2 TRP A   1      -4.013  -8.998   5.516  0.00  0.00    +0.043 A 
ATOM     18  NE1 TRP A   1      -5.323  -8.963   5.502  0.00  0.00    -0.380 N 
ATOM     19  CD1 TRP A   1      -5.757  -7.591   5.789  0.00  0.00    +0.144 C 
ATOM     20  HE1 TRP A   1      -5.908  -9.718   5.334  0.00  0.00    +0.160 HD
ENDBRANCH  10  11
ENDBRANCH   6  10
ENDBRANCH   4   6
ENDBRANCH   1   2
BRANCH   1  21
ATOM     21  S   UNK A   0      -2.551  -4.657   0.224  0.00  0.00    -0.114 S 
BRANCH  21  23
ATOM     22  N   UNK A   0       0.037  -3.973  -0.147  0.00  0.00    -0.254 N 
ATOM     23  C   UNK A   0      -0.977  -4.922  -0.638  0.00  0.00    +0.203 C 
ATOM     24  N   UNK A   0      -0.445  -6.273  -0.334  0.00  0.00    -0.320 NA
ATOM     25  N   UNK A   0       1.002  -6.028  -0.198  0.00  0.00    +0.411 N 
ATOM     26  N   UNK A   0       1.053  -4.702   0.426  0.00  0.00    -0.265 NA
ATOM     27  H   UNK A   0      -0.834  -6.629   0.527  0.00  0.00    +0.106 HD
ATOM     28  H   UNK A   0       1.427  -6.722   0.398  0.00  0.00    -0.031 HD
ATOM     29  H   UNK A   0       1.947  -4.261   0.268  0.00  0.00    +0.125 HD
ATOM     30  H   UNK A   0       1.447  -6.011  -1.103  0.00  0.00    -0.031 HD
BRANCH  22  35
ATOM     31  C   UNK A   0      -0.193   1.677  -0.569  0.00  0.00    +0.044 C 
ATOM     32  C   UNK A   0      -0.132   0.175  -0.457  0.00  0.00    -0.050 A 
ATOM     33  C   UNK A   0      -0.742  -0.463   0.608  0.00  0.00    +0.005 A 
ATOM     34  C   UNK A   0      -0.688  -1.838   0.714  0.00  0.00    +0.025 A 
ATOM     35  C   UNK A   0      -0.020  -2.582  -0.251  0.00  0.00    +0.048 A 
ATOM     36  C   UNK A   0       0.592  -1.938  -1.319  0.00  0.00    -0.028 A 
ATOM     37  C   UNK A   0       0.529  -0.562  -1.422  0.00  0.00    +0.008 A 
ATOM     38  C   UNK A   0       1.318  -2.740  -2.368  0.00  0.00    +0.046 C 
ENDBRANCH  22  35
ENDBRANCH  21  23
ENDBRANCH   1  21
TORSDOF 8
