REMARK  Name = ZINC44877279
REMARK  5 active torsions:
REMARK  status: ('A' for Active; 'I' for Inactive)
REMARK    1  A    between atoms: C_1  and  C_2
REMARK    2  A    between atoms: C_2  and  C_4
REMARK    3  A    between atoms: C_2  and  C_8
REMARK    4  A    between atoms: N_5  and  O_6
REMARK    5  A    between atoms: N_10  and  C_11
REMARK                            x       y       z     vdW  Elec       q    Type
REMARK                         _______ _______ _______ _____ _____    ______ ____
ROOT
ATOM      1  C   UNL     1      -1.412  -0.526   0.013  0.00  0.00    +0.223 C 
ATOM      2  O   UNL     1      -1.790  -1.233   0.922  0.00  0.00    -0.275 OA
ATOM      3  N   UNL     1      -2.256  -0.206  -0.988  0.00  0.00    -0.313 N 
ATOM      4  H   UNL     1      -1.953   0.360  -1.716  0.00  0.00    +0.149 HD
ENDROOT
BRANCH   3   5
ATOM      5  C   UNL     1      -3.630  -0.713  -0.978  0.00  0.00    +0.058 C 
ATOM      6  C   UNL     1      -4.568   0.258  -0.213  0.00  0.00    +0.002 C 
ATOM      7  C   UNL     1      -5.939  -0.056  -0.861  0.00  0.00    -0.077 C 
ATOM      8  N   UNL     1      -5.639  -0.311  -2.287  0.00  0.00    +0.383 N 
ATOM      9  C   UNL     1      -4.220  -0.719  -2.402  0.00  0.00    -0.048 C 
ATOM     10  C   UNL     1      -4.197  -2.157  -2.956  0.00  0.00    -0.015 C 
ATOM     11  C   UNL     1      -5.562  -2.271  -3.684  0.00  0.00    -0.020 C 
ATOM     12  C   UNL     1      -6.483  -1.431  -2.757  0.00  0.00    -0.078 C 
ATOM     13  H   UNL     1      -5.818   0.517  -2.836  0.00  0.00    -0.081 HD
ENDBRANCH   3   5
BRANCH   1  15
ATOM     14  C   UNL     1      -0.019   1.526   0.010  0.00  0.00    +0.025 C 
ATOM     15  C   UNL     1       0.002  -0.004   0.002  0.00  0.00    +0.138 C 
BRANCH  15  16
ATOM     16  C   UNL     1       0.731  -0.503   1.223  0.00  0.00    +0.143 C 
ATOM     17  N   UNL     1       0.795   0.233   2.283  0.00  0.00    -0.076 NA
ATOM     18  N   UNL     1       1.329  -1.744   1.209  0.00  0.00    -0.343 N 
ATOM     19  H   UNL     1       1.281  -2.296   0.413  0.00  0.00    +0.144 HD
ATOM     20  H   UNL     1       1.798  -2.065   1.995  0.00  0.00    +0.144 HD
BRANCH  17  21
ATOM     21  O   UNL     1       1.480  -0.237   3.430  0.00  0.00    -0.408 OA
ATOM     22  H   UNL     1       1.474   0.383   4.172  0.00  0.00    +0.328 HD
ENDBRANCH  17  21
ENDBRANCH  15  16
ENDBRANCH   1  15
TORSDOF 4
