REMARK  Name = ZINC36648110
REMARK  7 active torsions:
REMARK  status: ('A' for Active; 'I' for Inactive)
REMARK    1  A    between atoms: C_1  and  C_2
REMARK    2  A    between atoms: C_2  and  N_3
REMARK    3  A    between atoms: C_9  and  N_14
REMARK    4  A    between atoms: C_10  and  C_11
REMARK    5  A    between atoms: C_15  and  C_17
REMARK    6  A    between atoms: N_23  and  S_24
REMARK    7  A    between atoms: S_24  and  C_27
REMARK                            x       y       z     vdW  Elec       q    Type
REMARK                         _______ _______ _______ _____ _____    ______ ____
ROOT
ATOM      1  N   UNL     1      -7.262  -2.327  -2.288  0.00  0.00    -0.278 N 
ATOM      2  C   UNL     1      -7.763  -1.455  -3.187  0.00  0.00    +0.236 C 
ATOM      3  O   UNL     1      -7.101  -0.502  -3.541  0.00  0.00    -0.274 OA
ATOM      4  H   UNL     1      -7.791  -3.089  -2.005  0.00  0.00    +0.155 HD
ENDROOT
BRANCH   1  11
ATOM      5  N   UNL     1      -1.635  -1.230   0.360  0.00  0.00    +0.383 N 
ATOM      6  C   UNL     1      -1.653  -2.698   0.320  0.00  0.00    -0.074 C 
ATOM      7  C   UNL     1      -3.081  -3.214   0.528  0.00  0.00    +0.018 C 
ATOM      8  C   UNL     1      -3.986  -2.498  -0.463  0.00  0.00    -0.027 A 
ATOM      9  C   UNL     1      -3.566  -1.365  -1.072  0.00  0.00    -0.021 A 
ATOM     10  S   UNL     1      -4.912  -0.894  -2.116  0.00  0.00    -0.079 S 
ATOM     11  C   UNL     1      -5.991  -2.134  -1.770  0.00  0.00    +0.084 A 
ATOM     12  C   UNL     1      -5.319  -2.921  -0.846  0.00  0.00    +0.068 A 
ATOM     13  C   UNL     1      -2.245  -0.693  -0.870  0.00  0.00    -0.035 C 
ATOM     14  H   UNL     1      -2.157  -0.909   1.162  0.00  0.00    -0.081 HD
BRANCH  12  15
ATOM     15  C   UNL     1      -5.931  -4.127  -0.280  0.00  0.00    +0.244 C 
ATOM     16  O   UNL     1      -6.592  -4.053   0.740  0.00  0.00    -0.270 OA
ATOM     17  N   UNL     1      -5.761  -5.317  -0.888  0.00  0.00    -0.325 N 
ATOM     18  H   UNL     1      -5.234  -5.376  -1.700  0.00  0.00    +0.145 HD
ATOM     19  H   UNL     1      -6.165  -6.116  -0.514  0.00  0.00    +0.145 HD
ENDBRANCH  12  15
BRANCH   5  21
ATOM     20  C   UNL     1      -0.233   0.760   0.634  0.00  0.00    -0.017 C 
ATOM     21  C   UNL     1      -0.246  -0.761   0.462  0.00  0.00    -0.082 C 
ENDBRANCH   5  21
ENDBRANCH   1  11
BRANCH   2  22
ATOM     22  C   UNL     1      -9.145  -1.665  -3.751  0.00  0.00    +0.166 C 
ATOM     23  C   UNL     1     -10.042  -0.485  -3.362  0.00  0.00    +0.030 C 
ATOM     24  C   UNL     1     -11.400  -0.634  -4.052  0.00  0.00    +0.003 C 
ATOM     25  C   UNL     1     -11.208  -0.616  -5.570  0.00  0.00    +0.017 C 
ATOM     26  C   UNL     1     -10.324  -1.796  -5.983  0.00  0.00    +0.110 C 
ATOM     27  N   UNL     1      -9.072  -1.745  -5.216  0.00  0.00    -0.164 NA
BRANCH  27  28
ATOM     28  S   UNL     1      -7.607  -1.771  -5.987  0.00  0.00    +0.068 S 
ATOM     29  O   UNL     1      -6.659  -2.247  -5.042  0.00  0.00    -0.152 OA
ATOM     30  O   UNL     1      -7.819  -2.408  -7.240  0.00  0.00    -0.152 OA
BRANCH  28  31
ATOM     31  C   UNL     1      -7.172  -0.100  -6.339  0.00  0.00    +0.144 A 
ATOM     32  C   UNL     1      -6.349   0.729  -5.653  0.00  0.00    +0.038 A 
ATOM     33  C   UNL     1      -6.153   2.016  -6.120  0.00  0.00    +0.030 A 
ATOM     34  C   UNL     1      -6.792   2.409  -7.250  0.00  0.00    +0.080 A 
ATOM     35  S   UNL     1      -7.697   0.936  -7.694  0.00  0.00    -0.057 S 
ATOM     36 CL   UNL     1      -6.737   3.945  -8.059  0.00  0.00    -0.076 Cl
ENDBRANCH  28  31
ENDBRANCH  27  28
ENDBRANCH   2  22
TORSDOF 6
