REMARK  Name = ZINC04064668
REMARK  11 active torsions:
REMARK  status: ('A' for Active; 'I' for Inactive)
REMARK    1  A    between atoms: C_1  and  C_2
REMARK    2  A    between atoms: C_2  and  C_3
REMARK    3  A    between atoms: C_3  and  O_4
REMARK    4  A    between atoms: O_4  and  C_5
REMARK    5  A    between atoms: C_10  and  C_11
REMARK    6  A    between atoms: C_16  and  C_21
REMARK    7  A    between atoms: C_28  and  C_35
REMARK    8  A    between atoms: C_29  and  C_30
REMARK    9  A    between atoms: C_30  and  O_32
REMARK   10  A    between atoms: O_32  and  C_33
REMARK   11  A    between atoms: C_33  and  C_34
REMARK                            x       y       z     vdW  Elec       q    Type
REMARK                         _______ _______ _______ _____ _____    ______ ____
ROOT
ATOM      1  C   UNL     1       2.449   3.948  -0.001  0.00  0.00    +0.096 C 
ATOM      2  C   UNL     1       2.495   4.820  -1.230  0.00  0.00    +0.024 C 
ATOM      3  C   UNL     1       2.252   6.145  -1.145  0.00  0.00    +0.016 C 
ATOM      4  C   UNL     1       2.299   7.025  -2.370  0.00  0.00    +0.059 C 
ATOM      5  C   UNL     1       1.890   6.214  -3.601  0.00  0.00    +0.032 C 
ATOM      6  C   UNL     1       2.841   5.019  -3.734  0.00  0.00    +0.088 C 
ATOM      7  C   UNL     1       2.796   4.216  -2.463  0.00  0.00    +0.162 C 
ATOM      8  O   UNL     1       3.025   3.023  -2.503  0.00  0.00    -0.292 OA
ATOM      9  N   UNL     1       1.959   6.722   0.062  0.00  0.00    -0.321 N 
ATOM     10  C   UNL     1       2.290   6.095   1.231  0.00  0.00    +0.016 C 
ATOM     11  C   UNL     1       2.537   4.774   1.249  0.00  0.00    +0.065 C 
ATOM     12  C   UNL     1       2.379   6.891   2.508  0.00  0.00    +0.061 C 
ATOM     13  H   UNL     1       1.452   7.698   0.097  0.00  0.00    +0.152 HD
ENDROOT
BRANCH   1  19
ATOM     14  C   UNL     1       1.179   1.786   0.000  0.00  0.00    +0.125 A 
ATOM     15  C   UNL     1      -0.013   1.076   0.008  0.00  0.00    +0.046 A 
ATOM     16  C   UNL     1      -1.218   1.751   0.017  0.00  0.00    +0.004 A 
ATOM     17  C   UNL     1      -1.237   3.133   0.030  0.00  0.00    +0.001 A 
ATOM     18  C   UNL     1      -0.051   3.844   0.023  0.00  0.00    +0.008 A 
ATOM     19  C   UNL     1       1.157   3.173   0.008  0.00  0.00    +0.006 A 
BRANCH  14  20
ATOM     20  O   UNL     1       2.366   1.125  -0.014  0.00  0.00    -0.492 OA
BRANCH  20  21
ATOM     21  C   UNL     1       2.313  -0.303  -0.021  0.00  0.00    +0.229 C 
BRANCH  21  23
ATOM     22  C   UNL     1       3.678  -2.396  -0.044  0.00  0.00    +0.007 C 
ATOM     23  C   UNL     1       3.735  -0.867  -0.037  0.00  0.00    +0.038 C 
ENDBRANCH  21  23
ENDBRANCH  20  21
ENDBRANCH  14  20
ENDBRANCH   1  19
BRANCH   5  24
ATOM     24  C   UNL     1       1.988   7.078  -4.832  0.00  0.00    -0.044 A 
ATOM     25  C   UNL     1       3.195   7.658  -5.176  0.00  0.00    +0.004 A 
ATOM     26  C   UNL     1       3.286   8.447  -6.306  0.00  0.00    +0.000 A 
ATOM     27  C   UNL     1       2.167   8.665  -7.089  0.00  0.00    +0.000 A 
ATOM     28  C   UNL     1       0.959   8.089  -6.743  0.00  0.00    +0.000 A 
ATOM     29  C   UNL     1       0.869   7.296  -5.614  0.00  0.00    +0.004 A 
ENDBRANCH   5  24
BRANCH  11  30
ATOM     30  C   UNL     1       2.886   4.150   2.470  0.00  0.00    +0.338 C 
ATOM     31  O   UNL     1       2.960   4.809   3.490  0.00  0.00    -0.245 OA
BRANCH  30  32
ATOM     32  O   UNL     1       3.136   2.825   2.503  0.00  0.00    -0.462 OA
BRANCH  32  33
ATOM     33  C   UNL     1       3.482   2.261   3.769  0.00  0.00    +0.229 C 
ATOM     34  C   UNL     1       3.728   0.759   3.609  0.00  0.00    +0.048 C 
ENDBRANCH  32  33
ENDBRANCH  30  32
ENDBRANCH  11  30
TORSDOF 8
