REMARK  Name = ZINC43262344
REMARK  8 active torsions:
REMARK  status: ('A' for Active; 'I' for Inactive)
REMARK    1  A    between atoms: C_1  and  C_2
REMARK    2  A    between atoms: C_2  and  C_3
REMARK    3  A    between atoms: C_3  and  C_5
REMARK    4  A    between atoms: C_3  and  N_23
REMARK    5  A    between atoms: C_5  and  C_7
REMARK    6  A    between atoms: C_5  and  N_13
REMARK    7  A    between atoms: C_17  and  C_19
REMARK    8  A    between atoms: N_21  and  C_22
REMARK                            x       y       z     vdW  Elec       q    Type
REMARK                         _______ _______ _______ _____ _____    ______ ____
ROOT
ATOM      1  C   UNL     1       1.004  -2.168  -1.160  0.00  0.00    -0.013 C 
ENDROOT
BRANCH   1   2
ATOM      2  C   UNL     1      -0.356  -2.757  -1.429  0.00  0.00    -0.021 A 
ATOM      3  C   UNL     1      -0.889  -3.173  -2.604  0.00  0.00    +0.011 A 
ATOM      4  C   UNL     1      -2.172  -3.687  -2.614  0.00  0.00    +0.023 A 
ATOM      5  C   UNL     1      -2.861  -3.759  -1.447  0.00  0.00    +0.055 A 
ATOM      6  S   UNL     1      -1.682  -3.095  -0.282  0.00  0.00    -0.088 S 
ATOM      7 BR   UNL     1      -4.611  -4.402  -1.135  0.00  0.00    -0.043 Br
ENDBRANCH   1   2
BRANCH   1   8
ATOM      8  N   UNL     1       1.458  -2.574   0.177  0.00  0.00    +0.393 N 
ATOM      9  C   UNL     1       2.733  -1.897   0.497  0.00  0.00    -0.077 C 
ATOM     10  C   UNL     1       3.545  -2.942   1.302  0.00  0.00    -0.020 C 
ATOM     11  C   UNL     1       3.159  -4.261   0.581  0.00  0.00    -0.008 C 
ATOM     12  C   UNL     1       1.681  -4.032   0.203  0.00  0.00    +0.020 C 
ATOM     13  H   UNL     1       0.762  -2.325   0.863  0.00  0.00    -0.080 HD
BRANCH  12  14
ATOM     14  C   UNL     1       1.403  -4.617  -1.157  0.00  0.00    +0.199 C 
ATOM     15  O   UNL     1       2.073  -4.282  -2.111  0.00  0.00    -0.278 OA
ATOM     16  N   UNL     1       0.409  -5.514  -1.314  0.00  0.00    -0.320 N 
ATOM     17  C   UNL     1       0.139  -6.084  -2.637  0.00  0.00    +0.128 C 
ATOM     18  H   UNL     1      -0.127  -5.783  -0.552  0.00  0.00    +0.148 HD
ENDBRANCH  12  14
ENDBRANCH   1   8
BRANCH   1  19
ATOM     19  C   UNL     1       0.921  -0.641  -1.228  0.00  0.00    +0.042 C 
BRANCH  19  20
ATOM     20  N   UNL     1       0.354  -0.239  -2.522  0.00  0.00    -0.328 NA
ATOM     21  H   UNL     1      -0.572  -0.619  -2.644  0.00  0.00    +0.118 HD
ATOM     22  H   UNL     1       0.349   0.765  -2.618  0.00  0.00    +0.118 HD
ENDBRANCH  19  20
BRANCH  19  24
ATOM     23  C   UNL     1       0.044   1.402  -0.088  0.00  0.00    +0.005 C 
ATOM     24  C   UNL     1       0.027  -0.128  -0.097  0.00  0.00    +0.014 C 
ENDBRANCH  19  24
ENDBRANCH   1  19
TORSDOF 6
