REMARK  Name = ZINC61700327
REMARK  7 active torsions:
REMARK  status: ('A' for Active; 'I' for Inactive)
REMARK    1  A    between atoms: C_1  and  C_2
REMARK    2  A    between atoms: C_2  and  C_4
REMARK    3  A    between atoms: C_2  and  N_21
REMARK    4  A    between atoms: C_7  and  S_11
REMARK    5  A    between atoms: S_11  and  C_12
REMARK    6  A    between atoms: C_18  and  N_20
REMARK    7  A    between atoms: N_21  and  C_22
REMARK                            x       y       z     vdW  Elec       q    Type
REMARK                         _______ _______ _______ _____ _____    ______ ____
ROOT
ATOM      1  C   UNL     1      -1.475  -0.534   0.791  0.00  0.00    -0.061 A 
ATOM      2  C   UNL     1      -2.015  -0.480  -0.481  0.00  0.00    +0.003 A 
ATOM      3  C   UNL     1      -3.291  -0.955  -0.713  0.00  0.00    +0.016 A 
ATOM      4  C   UNL     1      -4.032  -1.488   0.334  0.00  0.00    +0.030 A 
ATOM      5  C   UNL     1      -3.487  -1.541   1.611  0.00  0.00    +0.032 A 
ATOM      6  C   UNL     1      -2.208  -1.069   1.835  0.00  0.00    +0.018 A 
ATOM      7 BR   UNL     1      -4.492  -2.265   3.040  0.00  0.00    -0.049 Br
ENDROOT
BRANCH   1   9
ATOM      8  C   UNL     1      -0.121   1.509   1.169  0.00  0.00    -0.009 C 
ATOM      9  C   UNL     1      -0.082  -0.015   1.040  0.00  0.00    -0.044 C 
BRANCH   9  10
ATOM     10  N   UNL     1       0.787  -0.390  -0.084  0.00  0.00    +0.382 N 
ATOM     11  C   UNL     1       2.170   0.011   0.212  0.00  0.00    -0.100 C 
ATOM     12  H   UNL     1       0.749  -1.389  -0.221  0.00  0.00    -0.085 HD
ATOM     13  H   UNL     1       0.474   0.077  -0.922  0.00  0.00    -0.085 HD
ENDBRANCH   9  10
ENDBRANCH   1   9
BRANCH   4  14
ATOM     14  S   UNL     1      -5.661  -2.094   0.043  0.00  0.00    -0.051 S 
BRANCH  14  15
ATOM     15  C   UNL     1      -5.469  -3.846   0.039  0.00  0.00    +0.176 A 
ATOM     16  N   UNL     1      -6.573  -4.638  -0.063  0.00  0.00    -0.302 N 
ATOM     17  H   UNL     1      -7.453  -4.235  -0.133  0.00  0.00    +0.171 HD
ATOM     18  C   UNL     1      -6.445  -5.981  -0.067  0.00  0.00    +0.254 A 
ATOM     19  O   UNL     1      -7.429  -6.698  -0.159  0.00  0.00    -0.268 OA
ATOM     20  C   UNL     1      -5.166  -6.538   0.034  0.00  0.00    +0.113 A 
ATOM     21  C   UNL     1      -4.074  -5.687   0.135  0.00  0.00    +0.124 A 
ATOM     22  N   UNL     1      -4.261  -4.363   0.129  0.00  0.00    -0.208 NA
BRANCH  21  23
ATOM     23  N   UNL     1      -2.799  -6.206   0.236  0.00  0.00    -0.343 N 
ATOM     24  H   UNL     1      -2.665  -7.167   0.237  0.00  0.00    +0.144 HD
ATOM     25  H   UNL     1      -2.037  -5.610   0.307  0.00  0.00    +0.144 HD
ENDBRANCH  21  23
ENDBRANCH  14  15
ENDBRANCH   4  14
TORSDOF 5
