REMARK  Name = ZINC61606960
REMARK  10 active torsions:
REMARK  status: ('A' for Active; 'I' for Inactive)
REMARK    1  A    between atoms: C_1  and  C_2
REMARK    2  A    between atoms: C_2  and  C_3
REMARK    3  A    between atoms: C_3  and  C_4
REMARK    4  A    between atoms: C_4  and  C_5
REMARK    5  A    between atoms: C_5  and  C_6
REMARK    6  A    between atoms: C_5  and  N_23
REMARK    7  A    between atoms: N_8  and  C_9
REMARK    8  A    between atoms: N_8  and  C_10
REMARK    9  A    between atoms: N_13  and  C_16
REMARK   10  A    between atoms: C_19  and  C_22
REMARK                            x       y       z     vdW  Elec       q    Type
REMARK                         _______ _______ _______ _____ _____    ______ ____
ROOT
ATOM      1  C   UNL     1       1.631  -4.048   2.403  0.00  0.00    +0.236 C 
ATOM      2  O   UNL     1       0.869  -4.751   3.032  0.00  0.00    -0.274 OA
ATOM      3  N   UNL     1       2.592  -4.607   1.642  0.00  0.00    -0.300 N 
ATOM      4  C   UNL     1       3.512  -3.758   0.882  0.00  0.00    +0.132 C 
ENDROOT
BRANCH   3   5
ATOM      5  C   UNL     1       2.716  -6.065   1.574  0.00  0.00    +0.072 C 
ATOM      6  C   UNL     1       2.545  -6.527   0.124  0.00  0.00    +0.004 C 
ATOM      7  C   UNL     1       2.754  -8.041   0.049  0.00  0.00    -0.077 C 
ATOM      8  N   UNL     1       4.106  -8.375   0.513  0.00  0.00    +0.382 N 
ATOM      9  C   UNL     1       4.254  -8.000   1.925  0.00  0.00    -0.077 C 
ATOM     10  C   UNL     1       4.102  -6.485   2.072  0.00  0.00    +0.004 C 
ATOM     11  H   UNL     1       4.785  -7.873  -0.040  0.00  0.00    -0.081 HD
BRANCH   8  12
ATOM     12  C   UNL     1       4.330  -9.819   0.366  0.00  0.00    -0.069 C 
ATOM     13  C   UNL     1       5.739 -10.169   0.850  0.00  0.00    -0.015 C 
ATOM     14  C   UNL     1       5.972 -11.674   0.696  0.00  0.00    +0.002 C 
ATOM     15  C   UNL     1       5.827 -12.064  -0.776  0.00  0.00    -0.014 C 
ATOM     16  C   UNL     1       4.418 -11.715  -1.260  0.00  0.00    +0.002 C 
ATOM     17  C   UNL     1       4.185 -10.210  -1.106  0.00  0.00    -0.015 C 
ATOM     18  C   UNL     1       6.857 -11.301  -1.610  0.00  0.00    +0.007 C 
ENDBRANCH   8  12
ENDBRANCH   3   5
BRANCH   1  19
ATOM     19  C   UNL     1       1.503  -2.548   2.473  0.00  0.00    +0.160 C 
BRANCH  19  20
ATOM     20  N   UNL     1       0.752  -2.177   3.675  0.00  0.00    -0.288 N 
ATOM     21  C   UNL     1      -0.509  -2.619   3.845  0.00  0.00    +0.298 C 
ATOM     22  O   UNL     1      -1.024  -3.326   3.001  0.00  0.00    -0.253 OA
ATOM     23  N   UNL     1      -1.199  -2.278   4.951  0.00  0.00    -0.313 N 
ATOM     24  H   UNL     1       1.164  -1.613   4.349  0.00  0.00    +0.151 HD
ATOM     25  H   UNL     1      -0.788  -1.714   5.625  0.00  0.00    +0.146 HD
ATOM     26  H   UNL     1      -2.107  -2.597   5.074  0.00  0.00    +0.146 HD
ENDBRANCH  19  20
BRANCH  19  27
ATOM     27  C   UNL     1       0.763  -2.041   1.233  0.00  0.00    +0.032 C 
BRANCH  27  28
ATOM     28  C   UNL     1       0.742  -0.511   1.242  0.00  0.00    +0.002 C 
BRANCH  28  30
ATOM     29  C   UNL     1      -0.019   1.526   0.010  0.00  0.00    +0.004 C 
ATOM     30  C   UNL     1       0.002  -0.004   0.002  0.00  0.00    -0.003 C 
ENDBRANCH  28  30
ENDBRANCH  27  28
ENDBRANCH  19  27
ENDBRANCH   1  19
TORSDOF 7
