REMARK  Name = ZINC00931348
REMARK  10 active torsions:
REMARK  status: ('A' for Active; 'I' for Inactive)
REMARK    1  A    between atoms: C_1  and  C_2
REMARK    2  A    between atoms: C_5  and  N_9
REMARK    3  A    between atoms: C_7  and  C_8
REMARK    4  A    between atoms: N_9  and  C_10
REMARK    5  A    between atoms: C_10  and  C_12
REMARK    6  A    between atoms: C_10  and  C_19
REMARK    7  A    between atoms: N_14  and  C_18
REMARK    8  A    between atoms: C_16  and  C_17
REMARK    9  A    between atoms: N_21  and  C_22
REMARK   10  A    between atoms: C_28  and  C_30
REMARK                            x       y       z     vdW  Elec       q    Type
REMARK                         _______ _______ _______ _____ _____    ______ ____
ROOT
ATOM      1  N   UNL     1      -1.552  -2.027   0.674  0.00  0.00    -0.252 N 
ATOM      2  C   UNL     1      -1.099  -0.807   0.325  0.00  0.00    +0.265 C 
ATOM      3  O   UNL     1       0.088  -0.627   0.154  0.00  0.00    -0.271 OA
ENDROOT
BRANCH   2   4
ATOM      4  C   UNL     1      -2.068   0.334   0.147  0.00  0.00    +0.296 C 
ATOM      5  C   UNL     1      -2.859   0.142  -1.154  0.00  0.00    +0.283 C 
ATOM      6  O   UNL     1      -3.758   1.247  -1.298  0.00  0.00    -0.484 OA
ATOM      7  C   UNL     1      -3.243   2.488  -1.077  0.00  0.00    +0.162 A 
ATOM      8  C   UNL     1      -3.930   3.602  -1.536  0.00  0.00    +0.049 A 
ATOM      9  C   UNL     1      -3.421   4.868  -1.317  0.00  0.00    +0.004 A 
ATOM     10  C   UNL     1      -2.226   5.027  -0.639  0.00  0.00    +0.004 A 
ATOM     11  C   UNL     1      -1.536   3.921  -0.180  0.00  0.00    +0.049 A 
ATOM     12  C   UNL     1      -2.041   2.648  -0.398  0.00  0.00    +0.163 A 
ATOM     13  O   UNL     1      -1.348   1.568   0.057  0.00  0.00    -0.472 OA
ENDBRANCH   2   4
BRANCH   1  18
ATOM     14  C   UNL     1       2.120  -6.221   1.730  0.00  0.00    +0.044 C 
ATOM     15  C   UNL     1       1.145  -5.107   1.449  0.00  0.00    -0.047 A 
ATOM     16  C   UNL     1       1.602  -3.896   0.962  0.00  0.00    +0.005 A 
ATOM     17  C   UNL     1       0.710  -2.873   0.704  0.00  0.00    +0.024 A 
ATOM     18  C   UNL     1      -0.646  -3.062   0.935  0.00  0.00    +0.038 A 
ATOM     19  C   UNL     1      -1.101  -4.277   1.429  0.00  0.00    +0.027 A 
ATOM     20  C   UNL     1      -0.205  -5.298   1.680  0.00  0.00    -0.046 A 
ATOM     21  C   UNL     1      -0.699  -6.619   2.211  0.00  0.00    +0.044 C 
ENDBRANCH   1  18
BRANCH   1  22
ATOM     22  C   UNL     1      -2.993  -2.271   0.782  0.00  0.00    +0.200 C 
BRANCH  22  23
ATOM     23  C   UNL     1      -3.407  -3.293  -0.244  0.00  0.00    +0.022 A 
ATOM     24  C   UNL     1      -2.610  -4.239  -0.793  0.00  0.00    +0.114 A 
ATOM     25  N   UNL     1      -3.356  -4.952  -1.663  0.00  0.00    -0.274 N 
ATOM     26  N   UNL     1      -4.655  -4.426  -1.649  0.00  0.00    -0.176 NA
ATOM     27  C   UNL     1      -4.686  -3.436  -0.794  0.00  0.00    +0.065 A 
ATOM     28  C   UNL     1      -5.889  -2.593  -0.461  0.00  0.00    +0.068 C 
ATOM     29  C   UNL     1      -2.890  -6.075  -2.479  0.00  0.00    +0.172 C 
ENDBRANCH  22  23
BRANCH  22  30
ATOM     30  C   UNL     1      -3.313  -2.785   2.162  0.00  0.00    +0.239 C 
ATOM     31  O   UNL     1      -2.450  -2.818   3.013  0.00  0.00    -0.273 OA
ATOM     32  N   UNL     1      -4.560  -3.209   2.450  0.00  0.00    -0.311 N 
ATOM     33  H   UNL     1      -5.231  -3.254   1.751  0.00  0.00    +0.149 HD
BRANCH  32  34
ATOM     34  C   UNL     1      -4.902  -3.602   3.819  0.00  0.00    +0.073 C 
ATOM     35  C   UNL     1      -4.511  -5.064   4.043  0.00  0.00    +0.022 C 
ATOM     36  C   UNL     1      -4.868  -5.474   5.473  0.00  0.00    +0.002 C 
ATOM     37  C   UNL     1      -6.374  -5.309   5.690  0.00  0.00    +0.000 C 
ATOM     38  C   UNL     1      -6.765  -3.847   5.466  0.00  0.00    +0.002 C 
ATOM     39  C   UNL     1      -6.408  -3.437   4.036  0.00  0.00    +0.022 C 
ENDBRANCH  32  34
ENDBRANCH  22  30
ENDBRANCH   1  22
TORSDOF 6
