REMARK  Name = ZINC13471178
REMARK  6 active torsions:
REMARK  status: ('A' for Active; 'I' for Inactive)
REMARK    1  A    between atoms: C_1  and  C_2
REMARK    2  A    between atoms: C_4  and  C_29
REMARK    3  A    between atoms: C_6  and  N_8
REMARK    4  A    between atoms: N_10  and  C_11
REMARK    5  A    between atoms: N_21  and  C_22
REMARK    6  A    between atoms: C_22  and  C_23
REMARK                            x       y       z     vdW  Elec       q    Type
REMARK                         _______ _______ _______ _____ _____    ______ ____
ROOT
ATOM      1  C   UNL     1       0.374  -2.093   6.031  0.00  0.00    +0.078 C 
ATOM      2  C   UNL     1       1.826  -1.680   6.234  0.00  0.00    +0.009 C 
ATOM      3  C   UNL     1       2.123  -1.258   7.662  0.00  0.00    -0.066 C 
ATOM      4  C   UNL     1       1.464   0.076   7.999  0.00  0.00    -0.015 C 
ATOM      5  C   UNL     1      -0.050  -0.039   8.097  0.00  0.00    -0.003 C 
ATOM      6  C   UNL     1      -0.490  -1.248   8.912  0.00  0.00    -0.015 C 
ATOM      7  C   UNL     1       0.276  -2.509   8.527  0.00  0.00    -0.066 C 
ATOM      8  C   UNL     1      -0.124  -3.002   7.147  0.00  0.00    +0.009 C 
ATOM      9  N   UNL     1       1.713  -2.272   8.631  0.00  0.00    +0.387 N 
ATOM     10  H   UNL     1       1.911  -1.918   9.564  0.00  0.00    -0.081 HD
ENDROOT
BRANCH   1  13
ATOM     11  N   UNL     1       0.050  -2.797   2.392  0.00  0.00    -0.295 N 
ATOM     12  C   UNL     1       0.150  -2.124   3.580  0.00  0.00    +0.143 C 
ATOM     13  N   UNL     1       0.267  -2.819   4.751  0.00  0.00    -0.364 N 
ATOM     14  S   UNL     1       0.129  -0.465   3.597  0.00  0.00    -0.016 SA
ATOM     15  H   UNL     1      -0.296  -3.703   2.376  0.00  0.00    +0.154 HD
ATOM     16  H   UNL     1       0.279  -3.789   4.740  0.00  0.00    +0.162 HD
BRANCH  11  22
ATOM     17  C   UNL     1      -0.575  -2.118  -2.436  0.00  0.00    +0.044 C 
ATOM     18  C   UNL     1       0.162  -1.831  -1.153  0.00  0.00    -0.048 A 
ATOM     19  C   UNL     1       1.232  -0.955  -1.152  0.00  0.00    +0.006 A 
ATOM     20  C   UNL     1       1.910  -0.689   0.023  0.00  0.00    -0.048 A 
ATOM     21  C   UNL     1       1.521  -1.298   1.200  0.00  0.00    +0.026 A 
ATOM     22  C   UNL     1       0.447  -2.178   1.202  0.00  0.00    +0.033 A 
ATOM     23  C   UNL     1      -0.237  -2.438   0.021  0.00  0.00    +0.026 A 
ATOM     24  C   UNL     1       3.076   0.266   0.020  0.00  0.00    +0.044 C 
ENDBRANCH  11  22
ENDBRANCH   1  13
BRANCH   9  25
ATOM     25  C   UNL     1       2.465  -3.512   8.439  0.00  0.00    -0.035 C 
BRANCH  25  26
ATOM     26  C   UNL     1       2.106  -4.490   9.528  0.00  0.00    -0.027 A 
ATOM     27  C   UNL     1       1.127  -5.428   9.545  0.00  0.00    +0.009 A 
ATOM     28  C   UNL     1       0.981  -6.224  10.665  0.00  0.00    +0.008 A 
ATOM     29  C   UNL     1       1.821  -6.044  11.714  0.00  0.00    +0.045 A 
ATOM     30  S   UNL     1       2.866  -4.721  11.127  0.00  0.00    -0.103 S 
ENDBRANCH  25  26
ENDBRANCH   9  25
TORSDOF 4
