REMARK  Name = ZINC67213031
REMARK  14 active torsions:
REMARK  status: ('A' for Active; 'I' for Inactive)
REMARK    1  A    between atoms: C_1  and  N_2
REMARK    2  A    between atoms: N_2  and  C_3
REMARK    3  A    between atoms: N_2  and  C_4
REMARK    4  A    between atoms: C_4  and  C_5
REMARK    5  A    between atoms: N_7  and  C_8
REMARK    6  A    between atoms: C_12  and  C_14
REMARK    7  A    between atoms: C_14  and  N_15
REMARK    8  A    between atoms: N_15  and  C_16
REMARK    9  A    between atoms: C_16  and  C_17
REMARK   10  A    between atoms: C_22  and  O_23
REMARK   11  A    between atoms: O_23  and  C_24
REMARK   12  A    between atoms: C_24  and  C_25
REMARK   13  A    between atoms: N_27  and  C_28
REMARK   14  A    between atoms: N_27  and  C_29
REMARK                            x       y       z     vdW  Elec       q    Type
REMARK                         _______ _______ _______ _____ _____    ______ ____
ROOT
ATOM      1  N   UNL     1      -5.590  -7.244   0.547  0.00  0.00    +0.384 N 
ATOM      2  H   UNL     1      -4.907  -7.875   0.939  0.00  0.00    -0.085 HD
ATOM      3  H   UNL     1      -5.690  -6.440   1.149  0.00  0.00    -0.085 HD
ENDROOT
BRANCH   1   4
ATOM      4  C   UNL     1      -5.146  -6.806  -0.783  0.00  0.00    -0.046 C 
BRANCH   4   9
ATOM      5  C   UNL     1      -2.559  -4.085  -0.344  0.00  0.00    +0.034 A 
ATOM      6  C   UNL     1      -1.379  -4.810  -0.443  0.00  0.00    +0.023 A 
ATOM      7  C   UNL     1      -1.424  -6.175  -0.650  0.00  0.00    +0.002 A 
ATOM      8  C   UNL     1      -2.643  -6.819  -0.760  0.00  0.00    +0.002 A 
ATOM      9  C   UNL     1      -3.820  -6.100  -0.662  0.00  0.00    -0.063 A 
ATOM     10  C   UNL     1      -3.781  -4.736  -0.448  0.00  0.00    +0.025 A 
BRANCH   5  13
ATOM     11  C   UNL     1      -1.539  -1.965  -0.696  0.00  0.00    +0.201 C 
ATOM     12  O   UNL     1      -0.648  -2.509  -1.313  0.00  0.00    -0.278 OA
ATOM     13  N   UNL     1      -2.517  -2.702  -0.134  0.00  0.00    -0.287 N 
ATOM     14  H   UNL     1      -3.192  -2.275   0.416  0.00  0.00    +0.155 HD
BRANCH  11  15
ATOM     15  C   UNL     1      -1.552  -0.464  -0.556  0.00  0.00    +0.018 C 
BRANCH  15  17
ATOM     16  C   UNL     1      -0.464   1.569  -1.219  0.00  0.00    -0.096 C 
ATOM     17  N   UNL     1      -0.388   0.102  -1.252  0.00  0.00    +0.382 N 
ATOM     18  C   UNL     1       0.844  -0.340  -0.584  0.00  0.00    -0.096 C 
ATOM     19  H   UNL     1      -0.383  -0.213  -2.210  0.00  0.00    -0.082 HD
ENDBRANCH  15  17
ENDBRANCH  11  15
ENDBRANCH   5  13
ENDBRANCH   4   9
ENDBRANCH   1   4
BRANCH   1  20
ATOM     20  C   UNL     1      -6.883  -7.932   0.430  0.00  0.00    -0.043 C 
BRANCH  20  21
ATOM     21  C   UNL     1      -7.338  -8.381   1.794  0.00  0.00    -0.023 A 
ATOM     22  C   UNL     1      -7.154  -9.692   2.188  0.00  0.00    +0.005 A 
ATOM     23  C   UNL     1      -7.573 -10.105   3.439  0.00  0.00    +0.000 A 
ATOM     24  C   UNL     1      -8.176  -9.206   4.300  0.00  0.00    +0.004 A 
ATOM     25  C   UNL     1      -8.362  -7.894   3.911  0.00  0.00    +0.046 A 
ATOM     26  C   UNL     1      -7.938  -7.476   2.658  0.00  0.00    +0.123 A 
BRANCH  26  27
ATOM     27  O   UNL     1      -8.115  -6.184   2.275  0.00  0.00    -0.483 OA
BRANCH  27  28
ATOM     28  C   UNL     1      -8.740  -5.309   3.216  0.00  0.00    +0.324 C 
BRANCH  28  29
ATOM     29  C   UNL     1      -8.850  -3.929   2.621  0.00  0.00    +0.253 C 
ATOM     30  O   UNL     1      -8.435  -3.716   1.502  0.00  0.00    -0.272 OA
ATOM     31  N   UNL     1      -9.411  -2.931   3.333  0.00  0.00    -0.305 N 
ATOM     32  C   UNL     1      -9.518  -1.589   2.755  0.00  0.00    +0.131 C 
ATOM     33  C   UNL     1      -9.912  -3.188   4.685  0.00  0.00    +0.131 C 
ENDBRANCH  28  29
ENDBRANCH  27  28
ENDBRANCH  26  27
ENDBRANCH  20  21
ENDBRANCH   1  20
TORSDOF 10
