REMARK  Name = ZINC64002411
REMARK  5 active torsions:
REMARK  status: ('A' for Active; 'I' for Inactive)
REMARK    1  A    between atoms: C_1  and  S_2
REMARK    2  A    between atoms: S_2  and  C_3
REMARK    3  A    between atoms: C_6  and  C_9
REMARK    4  A    between atoms: C_24  and  C_26
REMARK    5  A    between atoms: C_26  and  N_27
REMARK                            x       y       z     vdW  Elec       q    Type
REMARK                         _______ _______ _______ _____ _____    ______ ____
ROOT
ATOM      1  C   UNL     1       2.901  -1.397  -5.106  0.00  0.00    +0.133 C 
ATOM      2  C   UNL     1       4.383  -1.651  -4.808  0.00  0.00    +0.131 C 
ATOM      3  C   UNL     1       4.454  -2.968  -4.045  0.00  0.00    -0.035 C 
ATOM      4  C   UNL     1       5.087  -2.708  -2.907  0.00  0.00    -0.001 A 
ATOM      5  C   UNL     1       5.512  -3.582  -1.802  0.00  0.00    +0.010 A 
ATOM      6  C   UNL     1       6.140  -2.971  -0.763  0.00  0.00    +0.001 A 
ATOM      7  C   UNL     1       6.385  -1.595  -0.713  0.00  0.00    +0.002 A 
ATOM      8  C   UNL     1       6.032  -0.718  -1.687  0.00  0.00    +0.026 A 
ATOM      9  C   UNL     1       5.369  -1.243  -2.834  0.00  0.00    +0.043 A 
ATOM     10  N   UNL     1       4.944  -0.628  -3.924  0.00  0.00    -0.375 N 
ATOM     11  C   UNL     1       3.815  -4.236  -4.556  0.00  0.00    +0.052 C 
ATOM     12  C   UNL     1       2.361  -3.885  -4.918  0.00  0.00    +0.113 C 
ATOM     13  N   UNL     1       2.337  -2.629  -5.679  0.00  0.00    -0.290 N 
ATOM     14  C   UNL     1       1.795  -2.604  -6.912  0.00  0.00    +0.238 C 
ATOM     15  O   UNL     1       1.774  -1.569  -7.545  0.00  0.00    -0.274 OA
ATOM     16  H   UNL     1       4.987   0.322  -4.112  0.00  0.00    +0.160 HD
ENDROOT
BRANCH   1  20
ATOM     17  C   UNL     1       0.848  -0.411  -1.489  0.00  0.00    +0.008 A 
ATOM     18  C   UNL     1       1.473  -1.645  -1.621  0.00  0.00    +0.015 A 
ATOM     19  C   UNL     1       2.135  -1.960  -2.791  0.00  0.00    +0.006 A 
ATOM     20  C   UNL     1       2.178  -1.049  -3.830  0.00  0.00    -0.025 A 
ATOM     21  C   UNL     1       1.558   0.180  -3.703  0.00  0.00    +0.006 A 
ATOM     22  C   UNL     1       0.888   0.500  -2.538  0.00  0.00    +0.015 A 
BRANCH  17  24
ATOM     23  C   UNL     1       0.223  -1.471   1.046  0.00  0.00    +0.090 C 
ATOM     24  S   UNL     1       0.002  -0.004   0.002  0.00  0.00    -0.129 S 
ENDBRANCH  17  24
ENDBRANCH   1  20
BRANCH  14  25
ATOM     25  C   UNL     1       1.215  -3.862  -7.506  0.00  0.00    +0.242 C 
BRANCH  25  26
ATOM     26  N   UNL     1       0.692  -3.575  -8.844  0.00  0.00    -0.223 N 
ATOM     27  C   UNL     1       1.017  -4.213  -9.983  0.00  0.00    +0.245 A 
ATOM     28  N   UNL     1       0.328  -3.645 -10.943  0.00  0.00    -0.117 NA
ATOM     29  N   UNL     1      -0.385  -2.708 -10.419  0.00  0.00    -0.023 NA
ATOM     30  N   UNL     1      -0.171  -2.666  -9.151  0.00  0.00    -0.044 NA
ENDBRANCH  25  26
ENDBRANCH  14  25
TORSDOF 4
