REMARK  Name = ZINC23538110
REMARK  6 active torsions:
REMARK  status: ('A' for Active; 'I' for Inactive)
REMARK    1  A    between atoms: C_1  and  C_2
REMARK    2  A    between atoms: C_13  and  C_15
REMARK    3  A    between atoms: C_15  and  C_17
REMARK    4  A    between atoms: C_15  and  S_18
REMARK    5  A    between atoms: S_18  and  C_19
REMARK    6  A    between atoms: N_28  and  C_29
REMARK                            x       y       z     vdW  Elec       q    Type
REMARK                         _______ _______ _______ _____ _____    ______ ____
ROOT
ATOM      1  C   UNL     1       0.856   5.170   2.224  0.00  0.00    +0.137 C 
ATOM      2  C   UNL     1      -0.240   6.173   2.590  0.00  0.00    +0.029 C 
ENDROOT
BRANCH   1  14
ATOM      3  C   UNL     1       0.371   1.073   2.443  0.00  0.00    +0.028 C 
ATOM      4  C   UNL     1      -0.057   1.644   1.089  0.00  0.00    +0.079 C 
ATOM      5  C   UNL     1       0.826   1.061  -0.022  0.00  0.00    +0.027 C 
ATOM      6  C   UNL     1       0.340   1.590  -1.371  0.00  0.00    +0.039 C 
ATOM      7  C   UNL     1       0.223   3.091  -1.338  0.00  0.00    -0.026 A 
ATOM      8  C   UNL     1       0.223   3.789  -2.534  0.00  0.00    +0.005 A 
ATOM      9  C   UNL     1       0.114   5.166  -2.537  0.00  0.00    +0.000 A 
ATOM     10  C   UNL     1       0.003   5.857  -1.344  0.00  0.00    +0.002 A 
ATOM     11  C   UNL     1       0.003   5.168  -0.147  0.00  0.00    +0.024 A 
ATOM     12  C   UNL     1       0.114   3.782  -0.142  0.00  0.00    +0.040 A 
ATOM     13  N   UNL     1       0.119   3.102   1.083  0.00  0.00    -0.267 N 
ATOM     14  C   UNL     1       0.285   3.775   2.239  0.00  0.00    +0.233 C 
ATOM     15  O   UNL     1      -0.024   3.258   3.292  0.00  0.00    -0.274 OA
ENDBRANCH   1  14
BRANCH   1  16
ATOM     16  S   UNL     1       2.204   5.283   3.426  0.00  0.00    -0.075 S 
BRANCH  16  17
ATOM     17  C   UNL     1       2.770   6.920   3.098  0.00  0.00    +0.173 A 
ATOM     18  N   UNL     1       2.180   7.636   2.163  0.00  0.00    -0.216 NA
ATOM     19  C   UNL     1       2.580   8.873   1.897  0.00  0.00    +0.116 A 
ATOM     20  C   UNL     1       3.652   9.475   2.585  0.00  0.00    +0.072 A 
ATOM     21  C   UNL     1       3.964  10.831   2.166  0.00  0.00    +0.023 A 
ATOM     22  C   UNL     1       3.240  11.398   1.190  0.00  0.00    +0.048 A 
ATOM     23  S   UNL     1       2.065  10.130   0.755  0.00  0.00    -0.077 S 
ATOM     24  C   UNL     1       4.276   8.671   3.590  0.00  0.00    +0.263 A 
ATOM     25  O   UNL     1       5.212   9.109   4.237  0.00  0.00    -0.267 OA
ATOM     26  N   UNL     1       3.817   7.426   3.812  0.00  0.00    -0.290 N 
ATOM     27  C   UNL     1       4.453   6.598   4.840  0.00  0.00    +0.154 C 
ENDBRANCH  16  17
ENDBRANCH   1  16
TORSDOF 3
