REMARK  Name = ZINC60269255
REMARK  12 active torsions:
REMARK  status: ('A' for Active; 'I' for Inactive)
REMARK    1  A    between atoms: C_1  and  C_2
REMARK    2  A    between atoms: C_2  and  C_3
REMARK    3  A    between atoms: C_2  and  C_4
REMARK    4  A    between atoms: C_2  and  O_5
REMARK    5  A    between atoms: O_5  and  C_6
REMARK    6  A    between atoms: N_8  and  C_9
REMARK    7  A    between atoms: C_9  and  C_10
REMARK    8  A    between atoms: N_16  and  C_17
REMARK    9  A    between atoms: C_17  and  C_18
REMARK   10  A    between atoms: N_20  and  C_21
REMARK   11  A    between atoms: C_24  and  S_27
REMARK   12  A    between atoms: S_27  and  C_30
REMARK                            x       y       z     vdW  Elec       q    Type
REMARK                         _______ _______ _______ _____ _____    ______ ____
ROOT
ATOM      1  C   UNL     1       4.662  -0.563  -3.971  0.00  0.00    -0.050 C 
ATOM      2  C   UNL     1       6.157  -0.236  -3.972  0.00  0.00    -0.014 C 
ATOM      3  C   UNL     1       6.795  -0.792  -5.248  0.00  0.00    -0.003 C 
ATOM      4  C   UNL     1       6.530  -2.299  -5.325  0.00  0.00    -0.019 C 
ATOM      5  C   UNL     1       5.022  -2.549  -5.275  0.00  0.00    -0.078 C 
ATOM      6  N   UNL     1       4.477  -2.018  -4.019  0.00  0.00    +0.388 N 
ATOM      7  H   UNL     1       4.955  -2.443  -3.239  0.00  0.00    -0.081 HD
ENDROOT
BRANCH   1   8
ATOM      8  C   UNL     1       4.021  -0.009  -2.697  0.00  0.00    +0.092 C 
BRANCH   8  11
ATOM      9  C   UNL     1       4.223  -0.316  -0.289  0.00  0.00    +0.401 C 
ATOM     10  O   UNL     1       3.456   0.614  -0.135  0.00  0.00    -0.226 OA
ATOM     11  N   UNL     1       4.569  -0.706  -1.532  0.00  0.00    -0.283 N 
ATOM     12  H   UNL     1       5.181  -1.449  -1.654  0.00  0.00    +0.152 HD
BRANCH   9  13
ATOM     13  O   UNL     1       4.727  -0.957   0.783  0.00  0.00    -0.445 OA
BRANCH  13  15
ATOM     14  C   UNL     1       2.798  -0.611   2.196  0.00  0.00    +0.055 C 
ATOM     15  C   UNL     1       4.317  -0.490   2.070  0.00  0.00    +0.107 C 
ATOM     16  C   UNL     1       4.728   0.975   2.236  0.00  0.00    +0.055 C 
ATOM     17  C   UNL     1       4.988  -1.334   3.156  0.00  0.00    +0.055 C 
ENDBRANCH  13  15
ENDBRANCH   9  13
ENDBRANCH   8  11
ENDBRANCH   1   8
BRANCH   6  18
ATOM     18  C   UNL     1       3.043  -2.330  -3.939  0.00  0.00    +0.019 C 
BRANCH  18  19
ATOM     19  C   UNL     1       2.860  -3.821  -3.814  0.00  0.00    +0.201 C 
ATOM     20  O   UNL     1       3.828  -4.551  -3.793  0.00  0.00    -0.278 OA
ATOM     21  N   UNL     1       1.620  -4.342  -3.725  0.00  0.00    -0.287 N 
ATOM     22  H   UNL     1       0.850  -3.755  -3.672  0.00  0.00    +0.155 HD
BRANCH  21  23
ATOM     23  C   UNL     1       1.444  -5.730  -3.709  0.00  0.00    +0.033 A 
ATOM     24  C   UNL     1       2.375  -6.542  -3.074  0.00  0.00    +0.025 A 
ATOM     25  C   UNL     1       2.199  -7.912  -3.060  0.00  0.00    +0.029 A 
ATOM     26  C   UNL     1       1.097  -8.475  -3.677  0.00  0.00    +0.088 A 
ATOM     27  C   UNL     1       0.169  -7.669  -4.311  0.00  0.00    +0.029 A 
ATOM     28  C   UNL     1       0.336  -6.298  -4.323  0.00  0.00    +0.025 A 
BRANCH  26  29
ATOM     29  S   UNL     1       0.876 -10.223  -3.657  0.00  0.00    -0.006 S 
ATOM     30  O   UNL     1       0.095 -10.503  -4.811  0.00  0.00    -0.170 OA
ATOM     31  O   UNL     1       2.187 -10.753  -3.523  0.00  0.00    -0.170 OA
ATOM     32  C   UNL     1      -0.088 -10.553  -2.156  0.00  0.00    +0.200 C 
ENDBRANCH  26  29
ENDBRANCH  21  23
ENDBRANCH  18  19
ENDBRANCH   6  18
TORSDOF 8
