REMARK  Name = ZINC22890915
REMARK  7 active torsions:
REMARK  status: ('A' for Active; 'I' for Inactive)
REMARK    1  A    between atoms: C_3  and  C_15
REMARK    2  A    between atoms: C_5  and  N_7
REMARK    3  A    between atoms: C_8  and  C_10
REMARK    4  A    between atoms: N_17  and  N_18
REMARK    5  A    between atoms: N_18  and  C_19
REMARK    6  A    between atoms: C_19  and  N_21
REMARK    7  A    between atoms: N_21  and  C_22
REMARK                            x       y       z     vdW  Elec       q    Type
REMARK                         _______ _______ _______ _____ _____    ______ ____
ROOT
ATOM      1  C   UNL     1       0.004   1.380   0.176  0.00  0.00    +0.003 A 
ATOM      2  C   UNL     1       1.174   2.089  -0.011  0.00  0.00    +0.013 A 
ATOM      3  C   UNL     1       2.378   1.411  -0.204  0.00  0.00    +0.040 A 
ATOM      4  C   UNL     1       2.395   0.016  -0.207  0.00  0.00    +0.036 A 
ATOM      5  C   UNL     1       1.215  -0.687  -0.018  0.00  0.00    +0.034 A 
ATOM      6  C   UNL     1       0.021  -0.002   0.172  0.00  0.00    +0.023 A 
ENDROOT
BRANCH   5   7
ATOM      7  N   UNL     1       1.226  -2.086  -0.021  0.00  0.00    -0.281 N 
ATOM      8  C   UNL     1       2.295  -2.752   0.458  0.00  0.00    +0.255 C 
ATOM      9  O   UNL     1       3.209  -2.141   0.980  0.00  0.00    -0.269 OA
ATOM     10  H   UNL     1       0.464  -2.576  -0.368  0.00  0.00    +0.155 HD
BRANCH   8  11
ATOM     11  C   UNL     1       2.358  -4.212   0.349  0.00  0.00    +0.074 A 
ATOM     12  C   UNL     1       3.352  -5.079   0.777  0.00  0.00    +0.021 A 
ATOM     13  C   UNL     1       3.127  -6.413   0.534  0.00  0.00    +0.008 A 
ATOM     14  C   UNL     1       1.982  -6.785  -0.090  0.00  0.00    +0.046 A 
ATOM     15  S   UNL     1       1.171  -5.338  -0.359  0.00  0.00    -0.092 S 
ENDBRANCH   8  11
ENDBRANCH   5   7
BRANCH   3  16
ATOM     16  C   UNL     1       3.632   2.168  -0.405  0.00  0.00    +0.260 C 
ATOM     17  O   UNL     1       4.680   1.575  -0.573  0.00  0.00    -0.269 OA
ATOM     18  N   UNL     1       3.613   3.515  -0.402  0.00  0.00    -0.231 N 
ATOM     19  H   UNL     1       2.777   3.989  -0.268  0.00  0.00    +0.173 HD
BRANCH  18  20
ATOM     20  N   UNL     1       4.801   4.233  -0.593  0.00  0.00    -0.246 N 
ATOM     21  H   UNL     1       5.638   3.760  -0.727  0.00  0.00    +0.172 HD
BRANCH  20  22
ATOM     22  C   UNL     1       4.783   5.580  -0.590  0.00  0.00    +0.147 C 
ATOM     23  S   UNL     1       6.235   6.457  -0.823  0.00  0.00    -0.017 S 
BRANCH  22  24
ATOM     24  N   UNL     1       3.621   6.238  -0.404  0.00  0.00    -0.323 N 
ATOM     25  H   UNL     1       2.799   5.741  -0.272  0.00  0.00    +0.148 HD
BRANCH  24  26
ATOM     26  C   UNL     1       3.601   7.703  -0.400  0.00  0.00    +0.072 C 
ATOM     27  C   UNL     1       2.769   8.395   0.681  0.00  0.00    +0.024 C 
ATOM     28  C   UNL     1       2.286   8.392  -0.770  0.00  0.00    +0.024 C 
ENDBRANCH  24  26
ENDBRANCH  22  24
ENDBRANCH  20  22
ENDBRANCH  18  20
ENDBRANCH   3  16
TORSDOF 7
