REMARK  Name = ZINC22106668
REMARK  7 active torsions:
REMARK  status: ('A' for Active; 'I' for Inactive)
REMARK    1  A    between atoms: C_1  and  C_2
REMARK    2  A    between atoms: C_9  and  C_16
REMARK    3  A    between atoms: C_11  and  O_12
REMARK    4  A    between atoms: C_16  and  S_17
REMARK    5  A    between atoms: S_17  and  C_18
REMARK    6  A    between atoms: C_21  and  C_24
REMARK    7  A    between atoms: N_22  and  N_23
REMARK                            x       y       z     vdW  Elec       q    Type
REMARK                         _______ _______ _______ _____ _____    ______ ____
ROOT
ATOM      1  C   UNL     1       0.128   1.341  -2.569  0.00  0.00    +0.109 C 
ATOM      2  C   UNL     1      -0.006  -0.159  -2.507  0.00  0.00    +0.214 C 
ATOM      3  O   UNL     1      -0.651  -0.746  -3.350  0.00  0.00    -0.276 OA
ATOM      4  N   UNL     1       0.590  -0.849  -1.514  0.00  0.00    -0.286 N 
ATOM      5  C   UNL     1       0.382  -2.223  -1.397  0.00  0.00    +0.037 A 
ATOM      6  C   UNL     1       0.309  -2.807  -0.132  0.00  0.00    +0.024 A 
ATOM      7  C   UNL     1       0.101  -4.149  -0.001  0.00  0.00    +0.013 A 
ATOM      8  C   UNL     1      -0.029  -4.947  -1.144  0.00  0.00    +0.022 A 
ATOM      9  C   UNL     1      -0.248  -6.391  -1.033  0.00  0.00    -0.020 A 
ATOM     10  C   UNL     1      -0.367  -7.112  -2.179  0.00  0.00    +0.092 A 
ATOM     11  C   UNL     1      -0.279  -6.464  -3.428  0.00  0.00    +0.285 A 
ATOM     12  O   UNL     1      -0.078  -5.140  -3.522  0.00  0.00    -0.425 OA
ATOM     13  C   UNL     1       0.049  -4.366  -2.423  0.00  0.00    +0.141 A 
ATOM     14  C   UNL     1       0.255  -2.999  -2.538  0.00  0.00    +0.070 A 
ATOM     15  H   UNL     1       1.240  -0.327  -0.795  0.00  0.00    +0.155 HD
ENDROOT
BRANCH  11  16
ATOM     16  O   UNL     1      -0.387  -7.122  -4.447  0.00  0.00    -0.480 OA
ATOM     17  H   UNL     1      -0.320  -6.630  -5.428  0.00  0.00    +0.295 HD
ENDBRANCH  11  16
BRANCH   9  18
ATOM     18  C   UNL     1      -0.339  -7.059   0.315  0.00  0.00    +0.113 C 
BRANCH  18  19
ATOM     19  S   UNL     1       1.312  -7.583   0.841  0.00  0.00    -0.080 S 
BRANCH  19  20
ATOM     20  C   UNL     1       0.921  -8.310   2.397  0.00  0.00    +0.209 A 
ATOM     21  N   UNL     1      -0.273  -8.392   2.941  0.00  0.00    -0.121 NA
ATOM     22  N   UNL     1      -0.199  -8.986   4.079  0.00  0.00    -0.127 NA
ATOM     23  C   UNL     1       1.047  -9.310   4.335  0.00  0.00    +0.183 A 
ATOM     24  N   UNL     1       1.802  -8.887   3.266  0.00  0.00    -0.224 N 
BRANCH  23  25
ATOM     25  C   UNL     1       1.544 -10.000   5.544  0.00  0.00    +0.035 A 
ATOM     26  C   UNL     1       2.671  -9.519   6.213  0.00  0.00    +0.013 A 
ATOM     27  C   UNL     1       3.130 -10.167   7.340  0.00  0.00    +0.001 A 
ATOM     28  C   UNL     1       2.476 -11.293   7.810  0.00  0.00    +0.001 A 
ATOM     29  C   UNL     1       1.359 -11.776   7.153  0.00  0.00    +0.016 A 
ATOM     30  C   UNL     1       0.885 -11.133   6.026  0.00  0.00    +0.029 A 
ATOM     31 BR   UNL     1      -0.647 -11.790   5.133  0.00  0.00    -0.050 Br
ENDBRANCH  23  25
BRANCH  24  32
ATOM     32  N   UNL     1       3.153  -9.017   3.107  0.00  0.00    -0.295 N 
ATOM     33  H   UNL     1       3.754  -9.506   3.888  0.00  0.00    +0.163 HD
ATOM     34  H   UNL     1       3.639  -8.633   2.198  0.00  0.00    +0.163 HD
ENDBRANCH  24  32
ENDBRANCH  19  20
ENDBRANCH  18  19
ENDBRANCH   9  18
TORSDOF 6
