REMARK  Name = ZINC32511775
REMARK  10 active torsions:
REMARK  status: ('A' for Active; 'I' for Inactive)
REMARK    1  A    between atoms: C_5  and  C_7
REMARK    2  A    between atoms: C_7  and  C_8
REMARK    3  A    between atoms: C_8  and  N_9
REMARK    4  A    between atoms: C_10  and  C_12
REMARK    5  A    between atoms: C_15  and  N_27
REMARK    6  A    between atoms: N_18  and  C_19
REMARK    7  A    between atoms: C_19  and  C_20
REMARK    8  A    between atoms: N_27  and  C_28
REMARK    9  A    between atoms: C_28  and  C_29
REMARK   10  A    between atoms: C_33  and  O_35
REMARK                            x       y       z     vdW  Elec       q    Type
REMARK                         _______ _______ _______ _____ _____    ______ ____
ROOT
ATOM      1  C   UNL     1       1.467  -6.354   2.566  0.00  0.00    +0.021 C 
ATOM      2  C   UNL     1       0.093  -6.936   2.172  0.00  0.00    +0.010 C 
ATOM      3  C   UNL     1      -0.029  -8.190   3.078  0.00  0.00    +0.036 C 
ATOM      4  C   UNL     1       0.664  -7.705   4.376  0.00  0.00    -0.059 C 
ATOM      5  N   UNL     1       1.789  -6.860   3.913  0.00  0.00    +0.391 N 
ATOM      6  H   UNL     1       2.636  -7.408   3.876  0.00  0.00    -0.080 HD
ENDROOT
BRANCH   1   8
ATOM      7  N   UNL     1       2.175  -4.128   1.753  0.00  0.00    -0.316 N 
ATOM      8  C   UNL     1       1.399  -4.849   2.586  0.00  0.00    +0.200 C 
ATOM      9  O   UNL     1       0.645  -4.286   3.352  0.00  0.00    -0.278 OA
ATOM     10  H   UNL     1       2.778  -4.578   1.141  0.00  0.00    +0.149 HD
BRANCH   7  11
ATOM     11  C   UNL     1       2.109  -2.664   1.773  0.00  0.00    +0.109 C 
BRANCH  11  12
ATOM     12  C   UNL     1       3.083  -2.096   0.739  0.00  0.00    +0.056 C 
BRANCH  12  17
ATOM     13  C   UNL     1       2.135   1.457  -0.115  0.00  0.00    +0.000 A 
ATOM     14  C   UNL     1       2.891   2.173   0.795  0.00  0.00    +0.003 A 
ATOM     15  C   UNL     1       3.710   1.508   1.688  0.00  0.00    +0.038 A 
ATOM     16  C   UNL     1       3.773   0.125   1.671  0.00  0.00    +0.127 A 
ATOM     17  C   UNL     1       3.015  -0.591   0.759  0.00  0.00    -0.011 A 
ATOM     18  C   UNL     1       2.197   0.077  -0.133  0.00  0.00    +0.006 A 
ATOM     19  F   UNL     1       4.574  -0.526   2.543  0.00  0.00    -0.205 F 
ENDBRANCH  12  17
ENDBRANCH  11  12
ENDBRANCH   7  11
ENDBRANCH   1   8
BRANCH   3  20
ATOM     20  N   UNL     1      -1.437  -8.525   3.326  0.00  0.00    -0.311 NA
ATOM     21  H   UNL     1      -1.551  -8.960   4.229  0.00  0.00    +0.122 HD
BRANCH  20  22
ATOM     22  C   UNL     1      -1.970  -9.382   2.258  0.00  0.00    +0.116 C 
BRANCH  22  23
ATOM     23  C   UNL     1      -3.413  -9.705   2.546  0.00  0.00    -0.030 A 
ATOM     24  C   UNL     1      -3.735 -10.823   3.293  0.00  0.00    +0.005 A 
ATOM     25  C   UNL     1      -5.058 -11.122   3.559  0.00  0.00    +0.004 A 
ATOM     26  C   UNL     1      -6.063 -10.304   3.078  0.00  0.00    +0.045 A 
ATOM     27  C   UNL     1      -5.742  -9.182   2.328  0.00  0.00    +0.117 A 
ATOM     28  C   UNL     1      -4.413  -8.881   2.067  0.00  0.00    +0.050 A 
BRANCH  27  29
ATOM     29  O   UNL     1      -6.729  -8.376   1.853  0.00  0.00    -0.507 OA
ATOM     30  H   UNL     1      -6.975  -7.660   2.455  0.00  0.00    +0.292 HD
ENDBRANCH  27  29
ENDBRANCH  22  23
ENDBRANCH  20  22
ENDBRANCH   3  20
BRANCH   5  31
ATOM     31  C   UNL     1       1.973  -5.730   4.834  0.00  0.00    -0.042 C 
BRANCH  31  32
ATOM     32  C   UNL     1       2.471  -6.241   6.162  0.00  0.00    -0.063 A 
ATOM     33  C   UNL     1       1.569  -6.603   7.145  0.00  0.00    +0.002 A 
ATOM     34  C   UNL     1       2.024  -7.071   8.363  0.00  0.00    +0.002 A 
ATOM     35  C   UNL     1       3.382  -7.177   8.599  0.00  0.00    +0.020 A 
ATOM     36  C   UNL     1       4.285  -6.815   7.615  0.00  0.00    +0.041 A 
ATOM     37  C   UNL     1       3.828  -6.352   6.394  0.00  0.00    +0.021 A 
ATOM     38 CL   UNL     1       5.990  -6.948   7.911  0.00  0.00    -0.084 Cl
ENDBRANCH  31  32
ENDBRANCH   5  31
TORSDOF 10
