REMARK  Name = ZINC63503279
REMARK  9 active torsions:
REMARK  status: ('A' for Active; 'I' for Inactive)
REMARK    1  A    between atoms: C_1  and  C_2
REMARK    2  A    between atoms: C_9  and  N_12
REMARK    3  A    between atoms: C_13  and  C_15
REMARK    4  A    between atoms: C_15  and  C_17
REMARK    5  A    between atoms: C_15  and  N_27
REMARK    6  A    between atoms: C_17  and  C_18
REMARK    7  A    between atoms: C_28  and  O_30
REMARK    8  A    between atoms: O_30  and  C_31
REMARK    9  A    between atoms: C_31  and  C_32
REMARK                            x       y       z     vdW  Elec       q    Type
REMARK                         _______ _______ _______ _____ _____    ______ ____
ROOT
ATOM      1  C   UNL     1      -2.446  -7.233   2.968  0.00  0.00    +0.166 C 
ENDROOT
BRANCH   1   3
ATOM      2  N   UNL     1      -1.123  -5.628   1.630  0.00  0.00    -0.287 N 
ATOM      3  C   UNL     1      -1.217  -6.393   2.736  0.00  0.00    +0.236 C 
ATOM      4  O   UNL     1      -0.312  -6.405   3.543  0.00  0.00    -0.274 OA
ATOM      5  H   UNL     1      -1.846  -5.618   0.984  0.00  0.00    +0.151 HD
BRANCH   2  14
ATOM      6  C   UNL     1      -0.018   1.503   0.010  0.00  0.00    +0.044 C 
ATOM      7  C   UNL     1       0.002  -0.004   0.002  0.00  0.00    -0.049 A 
ATOM      8  C   UNL     1       0.006  -0.700  -1.193  0.00  0.00    +0.005 A 
ATOM      9  C   UNL     1       0.025  -2.075  -1.215  0.00  0.00    +0.024 A 
ATOM     10  C   UNL     1       0.040  -2.822  -0.023  0.00  0.00    +0.043 A 
ATOM     11  C   UNL     1       0.035  -2.090   1.168  0.00  0.00    +0.032 A 
ATOM     12  C   UNL     1       0.023  -0.714   1.191  0.00  0.00    +0.020 A 
ATOM     13  S   UNL     1       0.057  -3.310   2.462  0.00  0.00    -0.082 S 
ATOM     14  C   UNL     1       0.072  -4.811   1.404  0.00  0.00    +0.224 C 
ATOM     15  N   UNL     1       0.059  -4.213   0.062  0.00  0.00    -0.316 N 
ATOM     16  H   UNL     1       0.062  -4.766  -0.735  0.00  0.00    +0.149 HD
ENDBRANCH   2  14
ENDBRANCH   1   3
BRANCH   1  17
ATOM     17  N   UNL     1      -2.305  -7.966   4.229  0.00  0.00    -0.270 N 
ATOM     18  C   UNL     1      -2.981  -9.116   4.419  0.00  0.00    +0.401 C 
ATOM     19  O   UNL     1      -3.708  -9.546   3.544  0.00  0.00    -0.226 OA
ATOM     20  H   UNL     1      -1.725  -7.623   4.927  0.00  0.00    +0.153 HD
BRANCH  18  21
ATOM     21  O   UNL     1      -2.852  -9.790   5.577  0.00  0.00    -0.446 OA
BRANCH  21  22
ATOM     22  C   UNL     1      -3.597 -11.002   5.710  0.00  0.00    +0.269 C 
BRANCH  22  23
ATOM     23  C   UNL     1      -3.328 -11.612   7.061  0.00  0.00    -0.010 A 
ATOM     24  C   UNL     1      -2.284 -12.502   7.222  0.00  0.00    +0.007 A 
ATOM     25  C   UNL     1      -2.037 -13.062   8.462  0.00  0.00    +0.000 A 
ATOM     26  C   UNL     1      -2.835 -12.730   9.541  0.00  0.00    +0.000 A 
ATOM     27  C   UNL     1      -3.879 -11.839   9.380  0.00  0.00    +0.000 A 
ATOM     28  C   UNL     1      -4.123 -11.276   8.142  0.00  0.00    +0.007 A 
ENDBRANCH  22  23
ENDBRANCH  21  22
ENDBRANCH  18  21
ENDBRANCH   1  17
BRANCH   1  29
ATOM     29  C   UNL     1      -3.677  -6.327   3.040  0.00  0.00    +0.065 C 
BRANCH  29  30
ATOM     30  C   UNL     1      -4.918  -7.174   3.150  0.00  0.00    -0.039 C 
ATOM     31  C   UNL     1      -5.565  -7.526   4.284  0.00  0.00    -0.001 A 
ATOM     32  C   UNL     1      -5.315  -7.237   5.702  0.00  0.00    +0.010 A 
ATOM     33  C   UNL     1      -6.157  -7.741   6.632  0.00  0.00    +0.001 A 
ATOM     34  C   UNL     1      -7.260  -8.531   6.278  0.00  0.00    +0.002 A 
ATOM     35  C   UNL     1      -7.555  -8.839   4.997  0.00  0.00    +0.026 A 
ATOM     36  C   UNL     1      -6.737  -8.361   3.936  0.00  0.00    +0.043 A 
ATOM     37  N   UNL     1      -6.811  -8.520   2.637  0.00  0.00    -0.380 N 
ATOM     38  C   UNL     1      -5.697  -7.797   2.013  0.00  0.00    +0.144 C 
ATOM     39  H   UNL     1      -7.491  -9.027   2.167  0.00  0.00    +0.160 HD
ENDBRANCH  29  30
ENDBRANCH   1  29
TORSDOF 8
