REMARK  Name = ZINC21583803
REMARK  12 active torsions:
REMARK  status: ('A' for Active; 'I' for Inactive)
REMARK    1  A    between atoms: C_1  and  C_2
REMARK    2  A    between atoms: C_6  and  N_8
REMARK    3  A    between atoms: C_9  and  C_11
REMARK    4  A    between atoms: C_16  and  N_17
REMARK    5  A    between atoms: C_18  and  C_20
REMARK    6  A    between atoms: C_20  and  N_21
REMARK    7  A    between atoms: N_21  and  C_22
REMARK    8  A    between atoms: N_21  and  C_23
REMARK    9  A    between atoms: C_23  and  C_25
REMARK   10  A    between atoms: C_23  and  C_26
REMARK   11  A    between atoms: C_29  and  S_32
REMARK   12  A    between atoms: S_32  and  N_35
REMARK                            x       y       z     vdW  Elec       q    Type
REMARK                         _______ _______ _______ _____ _____    ______ ____
ROOT
ATOM      1  N   UNL     1       3.504   7.517   0.095  0.00  0.00    -0.286 N 
ATOM      2  C   UNL     1       4.672   8.181  -0.012  0.00  0.00    +0.201 C 
ATOM      3  O   UNL     1       4.693   9.390   0.079  0.00  0.00    -0.278 OA
ATOM      4  H   UNL     1       3.495   6.417   0.100  0.00  0.00    +0.155 HD
ENDROOT
BRANCH   1  10
ATOM      5  C   UNL     1       1.207   7.655   0.856  0.00  0.00    +0.058 A 
ATOM      6  C   UNL     1       0.012   8.372   0.948  0.00  0.00    +0.015 A 
ATOM      7  C   UNL     1      -0.076   9.634   0.401  0.00  0.00    +0.001 A 
ATOM      8  C   UNL     1       1.013  10.193  -0.248  0.00  0.00    +0.002 A 
ATOM      9  C   UNL     1       2.199   9.495  -0.350  0.00  0.00    +0.024 A 
ATOM     10  C   UNL     1       2.308   8.224   0.198  0.00  0.00    +0.046 A 
BRANCH   5  12
ATOM     11  N   UNL     1       0.218   5.713   1.963  0.00  0.00    -0.281 N 
ATOM     12  C   UNL     1       1.310   6.306   1.442  0.00  0.00    +0.250 C 
ATOM     13  O   UNL     1       2.380   5.728   1.456  0.00  0.00    -0.270 OA
ATOM     14  H   UNL     1      -0.766   6.197   1.875  0.00  0.00    +0.155 HD
BRANCH  11  20
ATOM     15  C   UNL     1       2.841   2.642   4.766  0.00  0.00    +0.044 C 
ATOM     16  C   UNL     1       1.596   2.966   3.982  0.00  0.00    -0.049 A 
ATOM     17  C   UNL     1       0.566   2.046   3.909  0.00  0.00    +0.003 A 
ATOM     18  C   UNL     1      -0.581   2.342   3.196  0.00  0.00    +0.002 A 
ATOM     19  C   UNL     1      -0.699   3.557   2.549  0.00  0.00    +0.023 A 
ATOM     20  C   UNL     1       0.335   4.481   2.616  0.00  0.00    +0.034 A 
ATOM     21  C   UNL     1       1.486   4.181   3.333  0.00  0.00    +0.026 A 
ENDBRANCH  11  20
ENDBRANCH   5  12
ENDBRANCH   1  10
BRANCH   2  22
ATOM     22  C   UNL     1       5.952   7.421  -0.245  0.00  0.00    +0.019 C 
BRANCH  22  23
ATOM     23  N   UNL     1       7.075   8.365  -0.324  0.00  0.00    +0.388 N 
ATOM     24  C   UNL     1       7.294   9.031   0.967  0.00  0.00    -0.095 C 
ATOM     25  H   UNL     1       6.816   9.137  -1.063  0.00  0.00    -0.081 HD
BRANCH  23  26
ATOM     26  C   UNL     1       8.297   7.692  -0.783  0.00  0.00    -0.041 C 
ATOM     27  C   UNL     1       8.060   7.095  -2.172  0.00  0.00    -0.008 C 
BRANCH  26  28
ATOM     28  C   UNL     1       9.425   8.690  -0.851  0.00  0.00    -0.061 A 
ATOM     29  C   UNL     1       9.190   9.966  -1.327  0.00  0.00    +0.004 A 
ATOM     30  C   UNL     1      10.223  10.883  -1.385  0.00  0.00    +0.029 A 
ATOM     31  C   UNL     1      11.493  10.520  -0.977  0.00  0.00    +0.105 A 
ATOM     32  C   UNL     1      11.728   9.242  -0.505  0.00  0.00    +0.029 A 
ATOM     33  C   UNL     1      10.694   8.327  -0.443  0.00  0.00    +0.004 A 
BRANCH  31  34
ATOM     34  S   UNL     1      12.811  11.686  -1.057  0.00  0.00    +0.056 S 
ATOM     35  O   UNL     1      12.216  12.975  -1.022  0.00  0.00    -0.153 OA
ATOM     36  O   UNL     1      13.781  11.268  -0.107  0.00  0.00    -0.153 OA
BRANCH  34  37
ATOM     37  N   UNL     1      13.513  11.530  -2.549  0.00  0.00    -0.204 NA
ATOM     38  H   UNL     1      14.344  12.244  -2.640  0.00  0.00    +0.144 HD
ATOM     39  H   UNL     1      12.765  11.736  -3.329  0.00  0.00    +0.144 HD
ENDBRANCH  34  37
ENDBRANCH  31  34
ENDBRANCH  26  28
ENDBRANCH  23  26
ENDBRANCH  22  23
ENDBRANCH   2  22
TORSDOF 9
