REMARK  Name = ZINC27904171
REMARK  9 active torsions:
REMARK  status: ('A' for Active; 'I' for Inactive)
REMARK    1  A    between atoms: C_1  and  O_2
REMARK    2  A    between atoms: O_2  and  C_3
REMARK    3  A    between atoms: C_6  and  O_41
REMARK    4  A    between atoms: C_7  and  C_9
REMARK    5  A    between atoms: C_11  and  C_29
REMARK    6  A    between atoms: C_24  and  C_25
REMARK    7  A    between atoms: C_24  and  C_27
REMARK    8  A    between atoms: C_29  and  C_31
REMARK    9  A    between atoms: O_41  and  C_42
REMARK                            x       y       z     vdW  Elec       q    Type
REMARK                         _______ _______ _______ _____ _____    ______ ____
ROOT
ATOM      1  C   UNL     1       2.351   1.354   0.319  0.00  0.00    +0.085 C 
ATOM      2  C   UNL     1       2.588   0.171   1.296  0.00  0.00    +0.134 C 
ATOM      3  N   UNL     1       3.520  -0.695   0.568  0.00  0.00    -0.383 NA
ATOM      4  C   UNL     1       4.546  -1.477   1.070  0.00  0.00    +0.054 C 
ATOM      5  C   UNL     1       5.668  -1.539   0.324  0.00  0.00    +0.022 C 
ATOM      6  C   UNL     1       5.742  -0.771  -0.935  0.00  0.00    -0.019 A 
ATOM      7  C   UNL     1       6.979  -0.519  -1.532  0.00  0.00    +0.008 A 
ATOM      8  C   UNL     1       7.039   0.197  -2.710  0.00  0.00    +0.001 A 
ATOM      9  C   UNL     1       5.880   0.666  -3.303  0.00  0.00    +0.000 A 
ATOM     10  C   UNL     1       4.649   0.423  -2.717  0.00  0.00    +0.006 A 
ATOM     11  C   UNL     1       4.576  -0.288  -1.542  0.00  0.00    -0.019 A 
ATOM     12  C   UNL     1       3.250  -0.562  -0.879  0.00  0.00    +0.122 C 
ATOM     13  C   UNL     1       2.291   0.627  -1.051  0.00  0.00    +0.173 C 
ATOM     14  H   UNL     1       4.067  -1.372   1.241  0.00  0.00    +0.127 HD
ENDROOT
BRANCH   1  19
ATOM     15  C   UNL     1      -0.708   2.596   2.157  0.00  0.00    +0.121 A 
ATOM     16  C   UNL     1      -1.350   3.325   1.166  0.00  0.00    +0.049 A 
ATOM     17  C   UNL     1      -0.798   3.410  -0.097  0.00  0.00    +0.049 A 
ATOM     18  C   UNL     1       0.402   2.771  -0.373  0.00  0.00    +0.124 A 
ATOM     19  C   UNL     1       1.047   2.047   0.619  0.00  0.00    +0.005 A 
ATOM     20  C   UNL     1       0.494   1.962   1.882  0.00  0.00    +0.053 A 
BRANCH  15  22
ATOM     21  C   UNL     1      -2.547   3.092   3.582  0.00  0.00    +0.277 C 
ATOM     22  O   UNL     1      -1.255   2.508   3.398  0.00  0.00    -0.495 OA
ENDBRANCH  15  22
BRANCH  18  23
ATOM     23  O   UNL     1       0.946   2.855  -1.616  0.00  0.00    -0.495 OA
ATOM     24  C   UNL     1       0.228   3.617  -2.589  0.00  0.00    +0.277 C 
ENDBRANCH  18  23
ENDBRANCH   1  19
BRANCH  13  25
ATOM     25  C   UNL     1       0.924   0.154  -1.326  0.00  0.00    +0.087 C 
ATOM     26  N   UNL     1      -0.130  -0.211  -1.538  0.00  0.00    -0.195 NA
ENDBRANCH  13  25
BRANCH  13  27
ATOM     27  C   UNL     1       2.757   1.516  -2.128  0.00  0.00    +0.087 C 
ATOM     28  N   UNL     1       3.118   2.202  -2.959  0.00  0.00    -0.195 NA
ENDBRANCH  13  27
BRANCH   2  29
ATOM     29  C   UNL     1       1.297  -0.555   1.574  0.00  0.00    +0.159 C 
ATOM     30  O   UNL     1       0.403  -0.527   0.764  0.00  0.00    -0.295 OA
BRANCH  29  31
ATOM     31  C   UNL     1       1.123  -1.315   2.864  0.00  0.00    +0.032 C 
ATOM     32  C   UNL     1       2.205  -2.390   2.973  0.00  0.00    +0.018 C 
ATOM     33  C   UNL     1       2.028  -3.162   4.282  0.00  0.00    -0.010 C 
ATOM     34  C   UNL     1       0.648  -3.823   4.302  0.00  0.00    +0.007 C 
ATOM     35  C   UNL     1      -0.434  -2.747   4.193  0.00  0.00    -0.010 C 
ATOM     36  C   UNL     1      -0.257  -1.975   2.884  0.00  0.00    +0.018 C 
ATOM     37  C   UNL     1      -0.314  -1.781   5.374  0.00  0.00    +0.007 C 
ATOM     38  C   UNL     1       1.065  -1.121   5.354  0.00  0.00    -0.010 C 
ATOM     39  C   UNL     1       2.148  -2.196   5.463  0.00  0.00    +0.007 C 
ATOM     40  C   UNL     1       1.243  -0.349   4.045  0.00  0.00    +0.018 C 
ENDBRANCH  29  31
ENDBRANCH   2  29
TORSDOF 7
