REMARK  Name = ZINC10061550
REMARK  7 active torsions:
REMARK  status: ('A' for Active; 'I' for Inactive)
REMARK    1  A    between atoms: C_1  and  C_2
REMARK    2  A    between atoms: C_2  and  C_3
REMARK    3  A    between atoms: C_3  and  N_45
REMARK    4  A    between atoms: C_9  and  N_14
REMARK    5  A    between atoms: C_10  and  C_11
REMARK    6  A    between atoms: C_15  and  C_17
REMARK    7  A    between atoms: C_17  and  C_18
REMARK                            x       y       z     vdW  Elec       q    Type
REMARK                         _______ _______ _______ _____ _____    ______ ____
ROOT
ATOM      1  C   UNL     1       1.833   8.513   7.016  0.00  0.00    -0.074 C 
ATOM      2  C   UNL     1       2.282   8.630   5.556  0.00  0.00    +0.018 C 
ATOM      3  C   UNL     1       2.058   7.282   4.881  0.00  0.00    -0.027 A 
ATOM      4  C   UNL     1       1.886   6.169   5.630  0.00  0.00    -0.021 A 
ATOM      5  S   UNL     1       1.663   4.866   4.455  0.00  0.00    -0.079 S 
ATOM      6  C   UNL     1       1.796   5.784   2.991  0.00  0.00    +0.084 A 
ATOM      7  C   UNL     1       2.016   7.077   3.446  0.00  0.00    +0.068 A 
ATOM      8  C   UNL     1       1.892   6.093   7.124  0.00  0.00    -0.035 C 
ATOM      9  N   UNL     1       2.493   7.348   7.640  0.00  0.00    +0.383 N 
ATOM     10  H   UNL     1       3.491   7.362   7.402  0.00  0.00    -0.081 HD
ENDROOT
BRANCH   7  11
ATOM     11  C   UNL     1       2.195   8.193   2.512  0.00  0.00    +0.244 C 
ATOM     12  O   UNL     1       1.230   8.830   2.133  0.00  0.00    -0.270 OA
ATOM     13  N   UNL     1       3.429   8.512   2.072  0.00  0.00    -0.325 N 
ATOM     14  H   UNL     1       4.198   8.004   2.374  0.00  0.00    +0.145 HD
ATOM     15  H   UNL     1       3.547   9.251   1.454  0.00  0.00    +0.145 HD
ENDBRANCH   7  11
BRANCH   6  16
ATOM     16  N   UNL     1       1.709   5.334   1.682  0.00  0.00    -0.279 N 
ATOM     17  C   UNL     1       1.495   4.028   1.430  0.00  0.00    +0.222 C 
ATOM     18  O   UNL     1       1.377   3.245   2.349  0.00  0.00    -0.275 OA
ATOM     19  H   UNL     1       1.803   5.960   0.947  0.00  0.00    +0.155 HD
BRANCH  17  20
ATOM     20  C   UNL     1       1.401   3.539   0.008  0.00  0.00    +0.138 C 
BRANCH  20  21
ATOM     21  C   UNL     1       1.159   2.052   0.002  0.00  0.00    -0.000 A 
ATOM     22  C   UNL     1      -0.017   1.379   0.010  0.00  0.00    +0.013 A 
ATOM     23  C   UNL     1       0.002  -0.004   0.002  0.00  0.00    +0.028 A 
ATOM     24  C   UNL     1       1.198  -0.645  -0.013  0.00  0.00    +0.078 A 
ATOM     25  S   UNL     1       2.348   0.720  -0.017  0.00  0.00    -0.081 S 
ATOM     26 CL   UNL     1       1.524  -2.350  -0.026  0.00  0.00    -0.076 Cl
ENDBRANCH  20  21
ENDBRANCH  17  20
ENDBRANCH   6  16
BRANCH   9  27
ATOM     27  C   UNL     1       2.348   7.411   9.110  0.00  0.00    -0.079 C 
BRANCH  27  29
ATOM     28  C   UNL     1       0.747   7.565  11.022  0.00  0.00    +0.002 C 
ATOM     29  C   UNL     1       0.871   7.498   9.498  0.00  0.00    -0.022 C 
ENDBRANCH  27  29
ENDBRANCH   9  27
TORSDOF 6
