REMARK  Name = ZINC20155064
REMARK  13 active torsions:
REMARK  status: ('A' for Active; 'I' for Inactive)
REMARK    1  A    between atoms: C_1  and  O_2
REMARK    2  A    between atoms: O_2  and  C_3
REMARK    3  A    between atoms: C_5  and  N_11
REMARK    4  A    between atoms: C_7  and  O_9
REMARK    5  A    between atoms: O_9  and  C_10
REMARK    6  A    between atoms: C_12  and  C_14
REMARK    7  A    between atoms: C_16  and  N_33
REMARK    8  A    between atoms: C_19  and  N_20
REMARK    9  A    between atoms: C_21  and  C_23
REMARK   10  A    between atoms: C_23  and  N_24
REMARK   11  A    between atoms: N_24  and  C_25
REMARK   12  A    between atoms: C_25  and  C_26
REMARK   13  A    between atoms: C_26  and  C_27
REMARK                            x       y       z     vdW  Elec       q    Type
REMARK                         _______ _______ _______ _____ _____    ______ ____
ROOT
ATOM      1  C   UNL     1      -3.606   1.843  -0.035  0.00  0.00    +0.060 A 
ATOM      2  C   UNL     1      -2.410   1.122  -0.001  0.00  0.00    +0.047 A 
ATOM      3  C   UNL     1      -1.208   1.789   0.081  0.00  0.00    +0.127 A 
ATOM      4  C   UNL     1      -1.177   3.174   0.134  0.00  0.00    +0.034 A 
ATOM      5  C   UNL     1      -2.350   3.900   0.095  0.00  0.00    +0.026 A 
ATOM      6  C   UNL     1      -3.572   3.245   0.013  0.00  0.00    +0.046 A 
ENDROOT
BRANCH   1   8
ATOM      7  N   UNL     1      -4.923  -0.204  -0.271  0.00  0.00    -0.281 N 
ATOM      8  C   UNL     1      -4.897   1.136  -0.123  0.00  0.00    +0.250 C 
ATOM      9  O   UNL     1      -5.939   1.761  -0.062  0.00  0.00    -0.270 OA
ATOM     10  H   UNL     1      -3.985  -0.758  -0.422  0.00  0.00    +0.155 HD
BRANCH   7  13
ATOM     11  C   UNL     1      -7.484  -2.783  -0.849  0.00  0.00    +0.125 A 
ATOM     12  C   UNL     1      -6.276  -2.105  -0.888  0.00  0.00    +0.069 A 
ATOM     13  C   UNL     1      -6.142  -0.888  -0.233  0.00  0.00    +0.041 A 
ATOM     14  C   UNL     1      -7.216  -0.354   0.466  0.00  0.00    +0.069 A 
ATOM     15  C   UNL     1      -8.426  -1.031   0.499  0.00  0.00    +0.125 A 
ATOM     16  C   UNL     1      -8.559  -2.246  -0.156  0.00  0.00    +0.091 A 
BRANCH  11  18
ATOM     17  C   UNL     1      -8.889  -4.618  -1.408  0.00  0.00    +0.277 C 
ATOM     18  O   UNL     1      -7.616  -3.974  -1.490  0.00  0.00    -0.495 OA
ENDBRANCH  11  18
BRANCH  15  19
ATOM     19  O   UNL     1      -9.480  -0.505   1.177  0.00  0.00    -0.495 OA
ATOM     20  C   UNL     1     -10.694  -1.259   1.174  0.00  0.00    +0.277 C 
ENDBRANCH  15  19
ENDBRANCH   7  13
ENDBRANCH   1   8
BRANCH   6  21
ATOM     21  N   UNL     1      -4.757   3.976  -0.021  0.00  0.00    -0.286 N 
ATOM     22  C   UNL     1      -4.797   5.166  -0.653  0.00  0.00    +0.200 C 
ATOM     23  O   UNL     1      -3.831   5.555  -1.274  0.00  0.00    -0.278 OA
ATOM     24  H   UNL     1      -5.660   3.582   0.468  0.00  0.00    +0.155 HD
BRANCH  22  25
ATOM     25  C   UNL     1      -6.042   6.012  -0.589  0.00  0.00    +0.015 C 
BRANCH  25  26
ATOM     26  N   UNL     1      -5.833   7.249  -1.352  0.00  0.00    +0.385 N 
ATOM     27  H   UNL     1      -4.989   7.807  -0.922  0.00  0.00    -0.085 HD
ATOM     28  H   UNL     1      -5.613   7.001  -2.401  0.00  0.00    -0.085 HD
BRANCH  26  29
ATOM     29  C   UNL     1      -7.030   8.101  -1.311  0.00  0.00    -0.077 C 
BRANCH  29  30
ATOM     30  C   UNL     1      -6.774   9.378  -2.115  0.00  0.00    +0.016 C 
BRANCH  30  31
ATOM     31  C   UNL     1      -8.002  10.251  -2.074  0.00  0.00    -0.049 A 
ATOM     32  C   UNL     1      -8.978  10.118  -3.043  0.00  0.00    +0.003 A 
ATOM     33  C   UNL     1     -10.106  10.917  -3.002  0.00  0.00    +0.000 A 
ATOM     34  C   UNL     1     -10.253  11.854  -1.997  0.00  0.00    +0.000 A 
ATOM     35  C   UNL     1      -9.274  11.991  -1.031  0.00  0.00    +0.000 A 
ATOM     36  C   UNL     1      -8.148  11.190  -1.069  0.00  0.00    +0.003 A 
ENDBRANCH  30  31
ENDBRANCH  29  30
ENDBRANCH  26  29
ENDBRANCH  25  26
ENDBRANCH  22  25
ENDBRANCH   6  21
BRANCH   3  37
ATOM     37  N   UNL     1       0.058   1.023   0.118  0.00  0.00    +0.056 N 
ATOM     38  O   UNL     1       0.035  -0.194   0.077  0.00  0.00    -0.126 OA
ATOM     39  O   UNL     1       1.124   1.610   0.185  0.00  0.00    -0.126 OA
ENDBRANCH   3  37
TORSDOF 11
