REMARK  Name = ZINC59170725
REMARK  8 active torsions:
REMARK  status: ('A' for Active; 'I' for Inactive)
REMARK    1  A    between atoms: C_1  and  C_2
REMARK    2  A    between atoms: C_9  and  C_23
REMARK    3  A    between atoms: N_11  and  C_12
REMARK    4  A    between atoms: C_15  and  S_18
REMARK    5  A    between atoms: S_18  and  N_21
REMARK    6  A    between atoms: N_25  and  C_26
REMARK    7  A    between atoms: C_31  and  O_32
REMARK    8  A    between atoms: O_32  and  C_33
REMARK                            x       y       z     vdW  Elec       q    Type
REMARK                         _______ _______ _______ _____ _____    ______ ____
ROOT
ATOM      1  C   UNL     1      -1.248   1.251   0.056  0.00  0.00    +0.044 C 
ATOM      2  C   UNL     1      -0.778  -0.180  -0.003  0.00  0.00    -0.050 A 
ATOM      3  C   UNL     1      -0.071  -0.627  -1.109  0.00  0.00    +0.007 A 
ATOM      4  C   UNL     1       0.365  -1.935  -1.184  0.00  0.00    +0.047 A 
ATOM      5  C   UNL     1       0.097  -2.812  -0.144  0.00  0.00    +0.137 A 
ATOM      6  C   UNL     1      -0.617  -2.356   0.980  0.00  0.00    +0.018 A 
ATOM      7  C   UNL     1      -1.048  -1.025   1.037  0.00  0.00    +0.015 A 
ATOM      8  C   UNL     1      -0.891  -3.281   2.081  0.00  0.00    +0.030 A 
ATOM      9  C   UNL     1      -0.203  -4.487   2.087  0.00  0.00    +0.098 A 
ATOM     10  C   UNL     1       0.744  -4.727   0.980  0.00  0.00    +0.212 A 
ATOM     11  N   UNL     1       1.780  -5.523   1.134  0.00  0.00    -0.325 N 
ATOM     12  O   UNL     1       0.513  -4.100  -0.202  0.00  0.00    -0.439 OA
ATOM     13  H   UNL     1       1.986  -5.886   2.010  0.00  0.00    +0.169 HD
ENDROOT
BRANCH  11  14
ATOM     14  C   UNL     1       2.565  -5.839   0.060  0.00  0.00    +0.042 A 
ATOM     15  C   UNL     1       1.979  -6.189  -1.159  0.00  0.00    +0.027 A 
ATOM     16  C   UNL     1       2.777  -6.506  -2.238  0.00  0.00    +0.030 A 
ATOM     17  C   UNL     1       4.155  -6.479  -2.115  0.00  0.00    +0.105 A 
ATOM     18  C   UNL     1       4.743  -6.133  -0.911  0.00  0.00    +0.030 A 
ATOM     19  C   UNL     1       3.957  -5.809   0.175  0.00  0.00    +0.027 A 
BRANCH  17  20
ATOM     20  S   UNL     1       5.167  -6.887  -3.499  0.00  0.00    +0.056 S 
ATOM     21  O   UNL     1       6.417  -7.316  -2.976  0.00  0.00    -0.153 OA
ATOM     22  O   UNL     1       4.377  -7.703  -4.353  0.00  0.00    -0.153 OA
BRANCH  20  23
ATOM     23  N   UNL     1       5.457  -5.481  -4.324  0.00  0.00    -0.204 NA
ATOM     24  H   UNL     1       5.083  -4.645  -4.005  0.00  0.00    +0.144 HD
ATOM     25  H   UNL     1       6.002  -5.493  -5.127  0.00  0.00    +0.144 HD
ENDBRANCH  20  23
ENDBRANCH  17  20
ENDBRANCH  11  14
BRANCH   9  26
ATOM     26  C   UNL     1      -0.407  -5.484   3.152  0.00  0.00    +0.253 C 
ATOM     27  O   UNL     1      -1.097  -5.211   4.116  0.00  0.00    -0.270 OA
ATOM     28  N   UNL     1       0.170  -6.698   3.059  0.00  0.00    -0.278 N 
ATOM     29  H   UNL     1       0.765  -6.897   2.319  0.00  0.00    +0.155 HD
BRANCH  28  30
ATOM     30  C   UNL     1      -0.089  -7.673   4.031  0.00  0.00    +0.076 A 
ATOM     31  C   UNL     1      -0.420  -7.295   5.324  0.00  0.00    +0.027 A 
ATOM     32  C   UNL     1      -0.676  -8.259   6.281  0.00  0.00    +0.002 A 
ATOM     33  C   UNL     1      -0.602  -9.600   5.953  0.00  0.00    +0.004 A 
ATOM     34  C   UNL     1      -0.271  -9.984   4.667  0.00  0.00    +0.047 A 
ATOM     35  C   UNL     1      -0.019  -9.024   3.700  0.00  0.00    +0.141 A 
BRANCH  35  36
ATOM     36  O   UNL     1       0.300  -9.400   2.433  0.00  0.00    -0.493 OA
ATOM     37  C   UNL     1       0.353 -10.803   2.167  0.00  0.00    +0.277 C 
ENDBRANCH  35  36
ENDBRANCH  28  30
ENDBRANCH   9  26
TORSDOF 6
