REMARK  Name = ZINC64166817
REMARK  9 active torsions:
REMARK  status: ('A' for Active; 'I' for Inactive)
REMARK    1  A    between atoms: C_1  and  C_2
REMARK    2  A    between atoms: C_2  and  C_3
REMARK    3  A    between atoms: C_3  and  C_4
REMARK    4  A    between atoms: C_3  and  C_5
REMARK    5  A    between atoms: C_3  and  C_6
REMARK    6  A    between atoms: C_10  and  N_13
REMARK    7  A    between atoms: N_16  and  C_17
REMARK    8  A    between atoms: C_17  and  C_18
REMARK    9  A    between atoms: C_18  and  C_19
REMARK                            x       y       z     vdW  Elec       q    Type
REMARK                         _______ _______ _______ _____ _____    ______ ____
ROOT
ATOM      1  N   UNL     1      -2.039  -4.613  -3.030  0.00  0.00    -0.274 N 
ATOM      2  C   UNL     1      -2.662  -5.779  -3.294  0.00  0.00    +0.301 C 
ATOM      3  O   UNL     1      -2.977  -6.520  -2.383  0.00  0.00    -0.253 OA
ATOM      4  N   UNL     1      -2.936  -6.123  -4.568  0.00  0.00    -0.299 N 
ATOM      5  H   UNL     1      -1.788  -4.022  -3.757  0.00  0.00    +0.153 HD
ATOM      6  H   UNL     1      -2.685  -5.531  -5.295  0.00  0.00    +0.150 HD
ENDROOT
BRANCH   1  10
ATOM      7  C   UNL     1      -1.413  -2.063   0.004  0.00  0.00    +0.135 C 
ATOM      8  N   UNL     1      -2.788  -2.620  -0.078  0.00  0.00    -0.241 NA
ATOM      9  N   UNL     1      -2.960  -3.760  -0.942  0.00  0.00    -0.226 NA
ATOM     10  C   UNL     1      -1.741  -4.239  -1.645  0.00  0.00    +0.218 C 
ATOM     11  S   UNL     1      -0.697  -2.715  -1.570  0.00  0.00    -0.101 S 
ATOM     12  H   UNL     1      -3.458  -1.898  -0.295  0.00  0.00    +0.142 HD
ATOM     13  H   UNL     1      -3.418  -4.517  -0.456  0.00  0.00    +0.143 HD
BRANCH   7  14
ATOM     14  C   UNL     1      -1.433  -0.534   0.013  0.00  0.00    -0.009 C 
ATOM     15  C   UNL     1      -2.149  -0.040   1.272  0.00  0.00    +0.013 C 
ATOM     16  C   UNL     1      -2.173  -0.027  -1.227  0.00  0.00    +0.013 C 
BRANCH  14  18
ATOM     17  C   UNL     1      -0.019   1.526   0.010  0.00  0.00    +0.004 C 
ATOM     18  C   UNL     1       0.002  -0.004   0.002  0.00  0.00    +0.005 C 
ENDBRANCH  14  18
ENDBRANCH   7  14
ENDBRANCH   1  10
BRANCH   4  19
ATOM     19  C   UNL     1      -3.613  -7.390  -4.855  0.00  0.00    +0.110 C 
BRANCH  19  20
ATOM     20  C   UNL     1      -3.803  -7.535  -6.367  0.00  0.00    +0.052 C 
BRANCH  20  21
ATOM     21  C   UNL     1      -4.499  -8.839  -6.662  0.00  0.00    -0.040 C 
ATOM     22  C   UNL     1      -5.826  -9.028  -6.847  0.00  0.00    -0.001 A 
ATOM     23  C   UNL     1      -6.973  -8.113  -6.829  0.00  0.00    +0.010 A 
ATOM     24  C   UNL     1      -8.211  -8.608  -7.053  0.00  0.00    +0.001 A 
ATOM     25  C   UNL     1      -8.426  -9.970  -7.303  0.00  0.00    +0.002 A 
ATOM     26  C   UNL     1      -7.423 -10.873  -7.336  0.00  0.00    +0.026 A 
ATOM     27  C   UNL     1      -6.079 -10.462  -7.113  0.00  0.00    +0.043 A 
ATOM     28  N   UNL     1      -4.953 -11.133  -7.093  0.00  0.00    -0.380 N 
ATOM     29  C   UNL     1      -3.856 -10.199  -6.818  0.00  0.00    +0.144 C 
ATOM     30  H   UNL     1      -4.861 -12.088  -7.240  0.00  0.00    +0.160 HD
ENDBRANCH  20  21
ENDBRANCH  19  20
ENDBRANCH   4  19
TORSDOF 6
