REMARK  Name = ZINC42341498
REMARK  7 active torsions:
REMARK  status: ('A' for Active; 'I' for Inactive)
REMARK    1  A    between atoms: C_1  and  C_2
REMARK    2  A    between atoms: C_2  and  C_4
REMARK    3  A    between atoms: C_2  and  N_11
REMARK    4  A    between atoms: N_11  and  C_12
REMARK    5  A    between atoms: C_12  and  C_13
REMARK    6  A    between atoms: C_13  and  C_15
REMARK    7  A    between atoms: C_15  and  N_16
REMARK                            x       y       z     vdW  Elec       q    Type
REMARK                         _______ _______ _______ _____ _____    ______ ____
ROOT
ATOM      1  N   UNL     1       0.713  -0.491   1.192  0.00  0.00    +0.385 N 
ATOM      2  H   UNL     1       0.290  -0.099   2.020  0.00  0.00    -0.085 HD
ATOM      3  H   UNL     1       0.655  -1.497   1.230  0.00  0.00    -0.085 HD
ENDROOT
BRANCH   1   5
ATOM      4  C   UNL     1      -0.019   1.526   0.010  0.00  0.00    -0.009 C 
ATOM      5  C   UNL     1       0.002  -0.004   0.002  0.00  0.00    -0.043 C 
BRANCH   5   6
ATOM      6  C   UNL     1      -1.412  -0.526   0.013  0.00  0.00    -0.043 A 
ATOM      7  C   UNL     1      -2.015  -0.864   1.210  0.00  0.00    +0.003 A 
ATOM      8  C   UNL     1      -3.312  -1.342   1.220  0.00  0.00    +0.000 A 
ATOM      9  C   UNL     1      -4.006  -1.483   0.033  0.00  0.00    +0.001 A 
ATOM     10  C   UNL     1      -3.404  -1.145  -1.165  0.00  0.00    +0.020 A 
ATOM     11  C   UNL     1      -2.108  -0.661  -1.175  0.00  0.00    +0.043 A 
ATOM     12 CL   UNL     1      -1.354  -0.230  -2.678  0.00  0.00    -0.083 Cl
ENDBRANCH   5   6
ENDBRANCH   1   5
BRANCH   1  13
ATOM     13  C   UNL     1       2.122  -0.083   1.122  0.00  0.00    -0.049 C 
BRANCH  13  14
ATOM     14  C   UNL     1       2.862  -0.589   2.361  0.00  0.00    +0.123 C 
ATOM     15  O   UNL     1       2.881  -2.018   2.354  0.00  0.00    -0.235 OA
BRANCH  14  16
ATOM     16  C   UNL     1       4.297  -0.060   2.351  0.00  0.00    -0.046 C 
BRANCH  16  17
ATOM     17  N   UNL     1       5.008  -0.546   3.541  0.00  0.00    +0.381 N 
ATOM     18  C   UNL     1       5.220  -2.014   3.447  0.00  0.00    -0.079 C 
ATOM     19  C   UNL     1       6.407  -2.263   4.410  0.00  0.00    -0.020 C 
ATOM     20  C   UNL     1       7.300  -1.020   4.188  0.00  0.00    -0.020 C 
ATOM     21  C   UNL     1       6.359   0.052   3.609  0.00  0.00    -0.079 C 
ATOM     22  H   UNL     1       4.485  -0.322   4.374  0.00  0.00    -0.082 HD
ENDBRANCH  16  17
ENDBRANCH  14  16
ENDBRANCH  13  14
ENDBRANCH   1  13
TORSDOF 6
