REMARK  Name = ZINC66244884
REMARK  10 active torsions:
REMARK  status: ('A' for Active; 'I' for Inactive)
REMARK    1  A    between atoms: C_1  and  O_2
REMARK    2  A    between atoms: O_2  and  C_3
REMARK    3  A    between atoms: C_6  and  C_9
REMARK    4  A    between atoms: C_9  and  C_10
REMARK    5  A    between atoms: C_10  and  N_11
REMARK    6  A    between atoms: N_14  and  C_15
REMARK    7  A    between atoms: C_15  and  C_16
REMARK    8  A    between atoms: C_16  and  C_22
REMARK    9  A    between atoms: C_25  and  O_28
REMARK   10  A    between atoms: O_28  and  C_29
REMARK                            x       y       z     vdW  Elec       q    Type
REMARK                         _______ _______ _______ _____ _____    ______ ____
ROOT
ATOM      1  N   UNL     1       4.564  -3.073  -5.670  0.00  0.00    -0.357 N 
ATOM      2  C   UNL     1       5.874  -3.440  -5.475  0.00  0.00    +0.169 C 
ATOM      3  N   UNL     1       6.483  -3.118  -4.368  0.00  0.00    -0.371 N 
ATOM      4  N   UNL     1       6.543  -4.146  -6.447  0.00  0.00    -0.357 N 
ATOM      5  H   UNL     1       4.111  -3.312  -6.494  0.00  0.00    +0.162 HD
ATOM      6  H   UNL     1       7.407  -3.377  -4.230  0.00  0.00    +0.159 HD
ATOM      7  H   UNL     1       6.090  -4.386  -7.270  0.00  0.00    +0.162 HD
ATOM      8  H   UNL     1       6.011  -2.619  -3.682  0.00  0.00    +0.159 HD
ENDROOT
BRANCH   1   9
ATOM      9  C   UNL     1       3.852  -2.320  -4.635  0.00  0.00    +0.120 C 
BRANCH   9  10
ATOM     10  C   UNL     1       2.421  -2.041  -5.100  0.00  0.00    +0.056 C 
BRANCH  10  14
ATOM     11  C   UNL     1       0.343   0.154  -2.080  0.00  0.00    +0.120 A 
ATOM     12  C   UNL     1       1.043   0.828  -3.071  0.00  0.00    +0.046 A 
ATOM     13  C   UNL     1       1.715   0.115  -4.046  0.00  0.00    +0.007 A 
ATOM     14  C   UNL     1       1.688  -1.267  -4.035  0.00  0.00    -0.045 A 
ATOM     15  C   UNL     1       0.990  -1.940  -3.050  0.00  0.00    +0.007 A 
ATOM     16  C   UNL     1       0.322  -1.233  -2.069  0.00  0.00    +0.046 A 
BRANCH  11  18
ATOM     17  C   UNL     1      -0.254   2.278  -1.194  0.00  0.00    +0.277 C 
ATOM     18  O   UNL     1      -0.318   0.853  -1.120  0.00  0.00    -0.495 OA
ENDBRANCH  11  18
ENDBRANCH  10  14
ENDBRANCH   9  10
ENDBRANCH   1   9
BRANCH   4  19
ATOM     19  C   UNL     1       7.939  -4.537  -6.238  0.00  0.00    +0.127 C 
BRANCH  19  20
ATOM     20  C   UNL     1       8.415  -5.380  -7.423  0.00  0.00    +0.017 C 
ATOM     21  C   UNL     1       9.865  -5.816  -7.192  0.00  0.00    +0.041 C 
ATOM     22  C   UNL     1      10.759  -4.575  -7.131  0.00  0.00    +0.161 C 
ATOM     23  O   UNL     1      10.620  -3.830  -8.343  0.00  0.00    -0.380 OA
ATOM     24  C   UNL     1       9.294  -3.356  -8.587  0.00  0.00    +0.161 C 
ATOM     25  C   UNL     1       8.342  -4.548  -8.706  0.00  0.00    +0.041 C 
BRANCH  20  26
ATOM     26  C   UNL     1       7.537  -6.598  -7.560  0.00  0.00    -0.039 A 
ATOM     27  C   UNL     1       6.830  -6.810  -8.729  0.00  0.00    +0.008 A 
ATOM     28  C   UNL     1       6.024  -7.925  -8.857  0.00  0.00    +0.046 A 
ATOM     29  C   UNL     1       5.925  -8.832  -7.812  0.00  0.00    +0.120 A 
ATOM     30  C   UNL     1       6.636  -8.616  -6.640  0.00  0.00    +0.046 A 
ATOM     31  C   UNL     1       7.445  -7.503  -6.519  0.00  0.00    +0.008 A 
BRANCH  29  32
ATOM     32  O   UNL     1       5.133  -9.929  -7.936  0.00  0.00    -0.495 OA
ATOM     33  C   UNL     1       5.079 -10.819  -6.819  0.00  0.00    +0.277 C 
ENDBRANCH  29  32
ENDBRANCH  20  26
ENDBRANCH  19  20
ENDBRANCH   4  19
TORSDOF 8
