REMARK  Name = ZINC08691492
REMARK  13 active torsions:
REMARK  status: ('A' for Active; 'I' for Inactive)
REMARK    1  A    between atoms: C_1  and  C_2
REMARK    2  A    between atoms: C_2  and  O_3
REMARK    3  A    between atoms: O_3  and  C_4
REMARK    4  A    between atoms: C_4  and  C_6
REMARK    5  A    between atoms: C_8  and  C_28
REMARK    6  A    between atoms: C_10  and  C_11
REMARK    7  A    between atoms: C_11  and  O_13
REMARK    8  A    between atoms: O_13  and  C_14
REMARK    9  A    between atoms: C_14  and  C_15
REMARK   10  A    between atoms: C_16  and  N_17
REMARK   11  A    between atoms: N_17  and  C_18
REMARK   12  A    between atoms: C_25  and  C_26
REMARK   13  A    between atoms: C_25  and  O_27
REMARK                            x       y       z     vdW  Elec       q    Type
REMARK                         _______ _______ _______ _____ _____    ______ ____
ROOT
ATOM      1  C   UNL     1       1.557  -2.261  -1.905  0.00  0.00    +0.141 C 
ATOM      2  C   UNL     1       2.972  -1.872  -2.340  0.00  0.00    +0.074 C 
ATOM      3  C   UNL     1       3.977  -2.790  -1.707  0.00  0.00    +0.062 C 
ATOM      4  C   UNL     1       3.661  -3.974  -1.171  0.00  0.00    +0.021 C 
ATOM      5  C   UNL     1       2.262  -4.516  -1.125  0.00  0.00    +0.086 C 
ATOM      6  C   UNL     1       1.371  -3.767  -2.124  0.00  0.00    +0.082 C 
ATOM      7  C   UNL     1       1.783  -4.133  -3.552  0.00  0.00    +0.042 C 
ENDROOT
BRANCH   2   8
ATOM      8  C   UNL     1       3.254  -0.455  -1.912  0.00  0.00    -0.039 A 
ATOM      9  C   UNL     1       3.565  -0.180  -0.594  0.00  0.00    +0.005 A 
ATOM     10  C   UNL     1       3.825   1.119  -0.201  0.00  0.00    +0.015 A 
ATOM     11  C   UNL     1       3.773   2.145  -1.128  0.00  0.00    +0.018 A 
ATOM     12  C   UNL     1       3.462   1.869  -2.447  0.00  0.00    +0.015 A 
ATOM     13  C   UNL     1       3.207   0.569  -2.840  0.00  0.00    +0.005 A 
ATOM     14 BR   UNL     1       4.127   3.923  -0.591  0.00  0.00    -0.050 Br
ENDBRANCH   2   8
BRANCH   1  15
ATOM     15  C   UNL     1       1.369  -1.935  -0.446  0.00  0.00    +0.314 C 
ATOM     16  O   UNL     1       2.114  -2.409   0.380  0.00  0.00    -0.250 OA
BRANCH  15  17
ATOM     17  O   UNL     1       0.375  -1.119  -0.063  0.00  0.00    -0.465 OA
BRANCH  17  19
ATOM     18  C   UNL     1      -0.935   0.066   1.587  0.00  0.00    +0.048 C 
ATOM     19  C   UNL     1       0.321  -0.766   1.321  0.00  0.00    +0.229 C 
ENDBRANCH  17  19
ENDBRANCH  15  17
ENDBRANCH   1  15
BRANCH   3  20
ATOM     20  C   UNL     1       5.328  -2.382  -1.677  0.00  0.00    +0.337 C 
ATOM     21  O   UNL     1       6.152  -3.046  -1.075  0.00  0.00    -0.245 OA
BRANCH  20  22
ATOM     22  O   UNL     1       5.707  -1.255  -2.315  0.00  0.00    -0.462 OA
BRANCH  22  23
ATOM     23  C   UNL     1       7.103  -0.947  -2.314  0.00  0.00    +0.229 C 
ATOM     24  C   UNL     1       7.325   0.413  -2.980  0.00  0.00    +0.048 C 
ENDBRANCH  22  23
ENDBRANCH  20  22
ENDBRANCH   3  20
BRANCH   4  25
ATOM     25  N   UNL     1       4.666  -4.729  -0.634  0.00  0.00    -0.317 N 
ATOM     26  H   UNL     1       5.189  -4.385   0.106  0.00  0.00    +0.152 HD
BRANCH  25  27
ATOM     27  C   UNL     1       4.938  -5.999  -1.152  0.00  0.00    +0.031 A 
ATOM     28  C   UNL     1       4.306  -6.427  -2.312  0.00  0.00    +0.023 A 
ATOM     29  C   UNL     1       4.577  -7.682  -2.822  0.00  0.00    +0.002 A 
ATOM     30  C   UNL     1       5.477  -8.511  -2.178  0.00  0.00    +0.000 A 
ATOM     31  C   UNL     1       6.108  -8.088  -1.022  0.00  0.00    +0.002 A 
ATOM     32  C   UNL     1       5.846  -6.832  -0.511  0.00  0.00    +0.023 A 
ENDBRANCH  25  27
ENDBRANCH   4  25
BRANCH   6  33
ATOM     33  O   UNL     1       0.002  -4.117  -1.911  0.00  0.00    -0.388 OA
ATOM     34  H   UNL     1      -0.187  -5.058  -2.034  0.00  0.00    +0.210 HD
ENDBRANCH   6  33
TORSDOF 10
