REMARK  Name = ZINC44118148
REMARK  9 active torsions:
REMARK  status: ('A' for Active; 'I' for Inactive)
REMARK    1  A    between atoms: C_1  and  N_2
REMARK    2  A    between atoms: N_2  and  C_3
REMARK    3  A    between atoms: N_2  and  C_4
REMARK    4  A    between atoms: C_4  and  C_6
REMARK    5  A    between atoms: C_4  and  C_26
REMARK    6  A    between atoms: C_6  and  N_7
REMARK    7  A    between atoms: N_10  and  C_11
REMARK    8  A    between atoms: C_14  and  N_17
REMARK    9  A    between atoms: C_18  and  C_20
REMARK                            x       y       z     vdW  Elec       q    Type
REMARK                         _______ _______ _______ _____ _____    ______ ____
ROOT
ATOM      1  N   UNL     1      -0.496  -1.804   0.402  0.00  0.00    -0.300 N 
ATOM      2  C   UNL     1      -0.286  -3.135   0.448  0.00  0.00    +0.304 C 
ATOM      3  O   UNL     1      -0.730  -3.850  -0.430  0.00  0.00    -0.253 OA
ATOM      4  N   UNL     1       0.415  -3.672   1.465  0.00  0.00    -0.269 N 
ATOM      5  H   UNL     1      -0.142  -1.233   1.102  0.00  0.00    +0.150 HD
ATOM      6  H   UNL     1       0.699  -3.114   2.206  0.00  0.00    +0.156 HD
ENDROOT
BRANCH   4   7
ATOM      7  C   UNL     1       0.735  -5.036   1.452  0.00  0.00    +0.035 A 
ATOM      8  C   UNL     1       0.770  -5.752   2.641  0.00  0.00    +0.025 A 
ATOM      9  C   UNL     1       1.085  -7.096   2.629  0.00  0.00    +0.025 A 
ATOM     10  C   UNL     1       1.367  -7.732   1.427  0.00  0.00    +0.034 A 
ATOM     11  C   UNL     1       1.331  -7.016   0.237  0.00  0.00    +0.025 A 
ATOM     12  C   UNL     1       1.011  -5.673   0.249  0.00  0.00    +0.025 A 
BRANCH  10  13
ATOM     13  N   UNL     1       1.687  -9.096   1.414  0.00  0.00    -0.283 N 
ATOM     14  C   UNL     1       1.102  -9.934   2.292  0.00  0.00    +0.246 C 
ATOM     15  O   UNL     1       0.224  -9.528   3.025  0.00  0.00    -0.273 OA
ATOM     16  H   UNL     1       2.330  -9.437   0.773  0.00  0.00    +0.155 HD
BRANCH  14  17
ATOM     17  C   UNL     1       1.538 -11.375   2.365  0.00  0.00    +0.204 C 
ATOM     18  C   UNL     1       2.995 -11.470   2.884  0.00  0.00    +0.043 C 
ATOM     19  C   UNL     1       3.002 -12.905   3.479  0.00  0.00    +0.031 C 
ATOM     20  C   UNL     1       1.562 -13.043   4.019  0.00  0.00    +0.161 C 
ATOM     21  O   UNL     1       0.746 -12.087   3.329  0.00  0.00    -0.367 OA
ENDBRANCH  14  17
ENDBRANCH  10  13
ENDBRANCH   4   7
BRANCH   1  22
ATOM     22  C   UNL     1      -1.259  -1.220  -0.704  0.00  0.00    +0.095 C 
BRANCH  22  23
ATOM     23  C   UNL     1      -1.458   0.276  -0.452  0.00  0.00    -0.014 C 
BRANCH  23  24
ATOM     24  C   UNL     1      -2.234   0.472   0.825  0.00  0.00    -0.022 A 
ATOM     25  C   UNL     1      -1.778   0.797   2.059  0.00  0.00    +0.009 A 
ATOM     26  C   UNL     1      -2.683   0.926   3.096  0.00  0.00    +0.008 A 
ATOM     27  C   UNL     1      -4.000   0.723   2.848  0.00  0.00    +0.045 A 
ATOM     28  S   UNL     1      -3.993   0.343   1.103  0.00  0.00    -0.103 S 
ENDBRANCH  23  24
BRANCH  23  30
ATOM     29  C   UNL     1      -2.301   2.320  -1.383  0.00  0.00    -0.096 C 
ATOM     30  N   UNL     1      -2.202   0.866  -1.572  0.00  0.00    +0.382 N 
ATOM     31  C   UNL     1      -1.499   0.583  -2.831  0.00  0.00    -0.096 C 
ATOM     32  H   UNL     1      -3.129   0.468  -1.608  0.00  0.00    -0.082 HD
ENDBRANCH  23  30
ENDBRANCH  22  23
ENDBRANCH   1  22
TORSDOF 7
