REMARK  Name = ZINC32542486
REMARK  13 active torsions:
REMARK  status: ('A' for Active; 'I' for Inactive)
REMARK    1  A    between atoms: C_1  and  C_2
REMARK    2  A    between atoms: C_5  and  C_9
REMARK    3  A    between atoms: C_7  and  C_8
REMARK    4  A    between atoms: C_9  and  C_11
REMARK    5  A    between atoms: C_9  and  N_12
REMARK    6  A    between atoms: C_13  and  C_15
REMARK    7  A    between atoms: C_15  and  N_16
REMARK    8  A    between atoms: N_16  and  C_17
REMARK    9  A    between atoms: N_16  and  C_18
REMARK   10  A    between atoms: C_18  and  C_20
REMARK   11  A    between atoms: C_18  and  C_21
REMARK   12  A    between atoms: C_24  and  S_27
REMARK   13  A    between atoms: S_27  and  N_30
REMARK                            x       y       z     vdW  Elec       q    Type
REMARK                         _______ _______ _______ _____ _____    ______ ____
ROOT
ATOM      1  N   UNL     1       2.181  -2.613  -1.371  0.00  0.00    +0.388 N 
ATOM      2  C   UNL     1       1.907  -2.045  -2.698  0.00  0.00    -0.095 C 
ATOM      3  H   UNL     1       3.121  -2.176  -1.004  0.00  0.00    -0.081 HD
ENDROOT
BRANCH   1   4
ATOM      4  C   UNL     1       2.359  -4.069  -1.448  0.00  0.00    -0.041 C 
ATOM      5  C   UNL     1       1.143  -4.696  -2.133  0.00  0.00    -0.008 C 
BRANCH   4   6
ATOM      6  C   UNL     1       3.600  -4.382  -2.244  0.00  0.00    -0.061 A 
ATOM      7  C   UNL     1       3.645  -5.513  -3.037  0.00  0.00    +0.004 A 
ATOM      8  C   UNL     1       4.782  -5.797  -3.771  0.00  0.00    +0.029 A 
ATOM      9  C   UNL     1       5.877  -4.957  -3.702  0.00  0.00    +0.105 A 
ATOM     10  C   UNL     1       5.833  -3.829  -2.905  0.00  0.00    +0.029 A 
ATOM     11  C   UNL     1       4.695  -3.541  -2.175  0.00  0.00    +0.004 A 
BRANCH   9  12
ATOM     12  S   UNL     1       7.328  -5.323  -4.632  0.00  0.00    +0.056 S 
ATOM     13  O   UNL     1       6.918  -6.140  -5.720  0.00  0.00    -0.153 OA
ATOM     14  O   UNL     1       8.013  -4.092  -4.819  0.00  0.00    -0.153 OA
BRANCH  12  15
ATOM     15  N   UNL     1       8.299  -6.263  -3.674  0.00  0.00    -0.204 NA
ATOM     16  H   UNL     1       9.220  -6.515  -4.220  0.00  0.00    +0.144 HD
ATOM     17  H   UNL     1       7.766  -7.188  -3.408  0.00  0.00    +0.144 HD
ENDBRANCH  12  15
ENDBRANCH   9  12
ENDBRANCH   4   6
ENDBRANCH   1   4
BRANCH   1  18
ATOM     18  C   UNL     1       1.119  -2.262  -0.419  0.00  0.00    +0.019 C 
BRANCH  18  20
ATOM     19  N   UNL     1       0.235  -0.220   0.662  0.00  0.00    -0.310 N 
ATOM     20  C   UNL     1       1.129  -0.774  -0.181  0.00  0.00    +0.197 C 
ATOM     21  O   UNL     1       1.941  -0.074  -0.749  0.00  0.00    -0.278 OA
ATOM     22  H   UNL     1      -0.501  -0.854   1.177  0.00  0.00    +0.149 HD
BRANCH  19  23
ATOM     23  C   UNL     1       0.245   1.227   0.894  0.00  0.00    +0.100 C 
ATOM     24  C   UNL     1      -0.573   1.923  -0.196  0.00  0.00    +0.033 C 
BRANCH  23  29
ATOM     25  C   UNL     1      -2.069   2.366   6.065  0.00  0.00    +0.044 C 
ATOM     26  C   UNL     1      -1.466   2.069   4.716  0.00  0.00    -0.048 A 
ATOM     27  C   UNL     1      -2.021   1.093   3.910  0.00  0.00    +0.004 A 
ATOM     28  C   UNL     1      -1.468   0.820   2.673  0.00  0.00    +0.006 A 
ATOM     29  C   UNL     1      -0.359   1.524   2.242  0.00  0.00    -0.027 A 
ATOM     30  C   UNL     1       0.200   2.496   3.050  0.00  0.00    +0.009 A 
ATOM     31  C   UNL     1      -0.357   2.772   4.285  0.00  0.00    -0.047 A 
ATOM     32  C   UNL     1       0.248   3.837   5.163  0.00  0.00    +0.044 C 
ENDBRANCH  23  29
ENDBRANCH  19  23
ENDBRANCH  18  20
ENDBRANCH   1  18
TORSDOF 8
