REMARK  Name = ZINC63830755
REMARK  9 active torsions:
REMARK  status: ('A' for Active; 'I' for Inactive)
REMARK    1  A    between atoms: C_1  and  C_2
REMARK    2  A    between atoms: N_11  and  C_15
REMARK    3  A    between atoms: C_15  and  C_16
REMARK    4  A    between atoms: N_18  and  C_19
REMARK    5  A    between atoms: C_19  and  C_20
REMARK    6  A    between atoms: C_20  and  C_22
REMARK    7  A    between atoms: C_20  and  C_30
REMARK    8  A    between atoms: C_25  and  O_28
REMARK    9  A    between atoms: O_28  and  C_29
REMARK                            x       y       z     vdW  Elec       q    Type
REMARK                         _______ _______ _______ _____ _____    ______ ____
ROOT
ATOM      1  C   UNL     1       1.399   0.067   7.914  0.00  0.00    +0.116 C 
ENDROOT
BRANCH   1   4
ATOM      2  C   UNL     1       1.154   0.526   5.534  0.00  0.00    +0.231 C 
ATOM      3  O   UNL     1       1.567  -0.591   5.305  0.00  0.00    -0.274 OA
ATOM      4  N   UNL     1       1.032   0.953   6.806  0.00  0.00    -0.313 N 
ATOM      5  H   UNL     1       0.701   1.846   6.989  0.00  0.00    +0.149 HD
BRANCH   2   6
ATOM      6  C   UNL     1       0.777   1.438   4.394  0.00  0.00    +0.213 C 
BRANCH   6  16
ATOM      7  C   UNL     1      -0.019   1.526   0.010  0.00  0.00    +0.010 C 
ATOM      8  C   UNL     1       0.002  -0.004   0.002  0.00  0.00    +0.018 C 
ATOM      9  C   UNL     1       0.718  -0.498  -1.258  0.00  0.00    +0.006 C 
ATOM     10  C   UNL     1       0.756  -2.027  -1.255  0.00  0.00    +0.000 C 
ATOM     11  C   UNL     1       1.516  -2.519  -0.021  0.00  0.00    +0.003 C 
ATOM     12  C   UNL     1       0.803  -2.032   1.243  0.00  0.00    +0.035 C 
ATOM     13  C   UNL     1       0.739  -0.509   1.238  0.00  0.00    +0.115 C 
ATOM     14  C   UNL     1       0.069  -0.004   2.495  0.00  0.00    +0.247 C 
ATOM     15  O   UNL     1      -1.064  -0.228   2.863  0.00  0.00    -0.273 OA
ATOM     16  N   UNL     1       0.998   0.746   3.122  0.00  0.00    -0.215 N 
ATOM     17  C   UNL     1       2.148   0.781   2.437  0.00  0.00    +0.310 C 
ATOM     18  O   UNL     1       3.133   1.393   2.801  0.00  0.00    -0.252 OA
ATOM     19  N   UNL     1       2.091   0.063   1.300  0.00  0.00    -0.285 N 
ATOM     20  H   UNL     1       2.801  -0.054   0.650  0.00  0.00    +0.151 HD
ENDBRANCH   6  16
ENDBRANCH   2   6
ENDBRANCH   1   4
BRANCH   1  21
ATOM     21  C   UNL     1       1.167   0.789   9.243  0.00  0.00    +0.064 C 
BRANCH  21  22
ATOM     22  C   UNL     1       2.104   1.964   9.346  0.00  0.00    -0.033 C 
ATOM     23  C   UNL     1       1.764   3.266   9.483  0.00  0.00    -0.000 A 
ATOM     24  C   UNL     1       0.468   3.951   9.573  0.00  0.00    +0.010 A 
ATOM     25  C   UNL     1       0.446   5.296   9.708  0.00  0.00    +0.001 A 
ATOM     26  C   UNL     1       1.625   6.052   9.764  0.00  0.00    +0.002 A 
ATOM     27  C   UNL     1       2.852   5.494   9.688  0.00  0.00    +0.026 A 
ATOM     28  C   UNL     1       2.994   4.086   9.545  0.00  0.00    +0.043 A 
ATOM     29  N   UNL     1       4.055   3.321   9.450  0.00  0.00    -0.380 N 
ATOM     30  C   UNL     1       3.616   1.927   9.323  0.00  0.00    +0.145 C 
ATOM     31  H   UNL     1       4.976   3.626   9.466  0.00  0.00    +0.160 HD
ENDBRANCH  21  22
BRANCH  21  32
ATOM     32  C   UNL     1       1.427  -0.162  10.383  0.00  0.00    -0.038 A 
ATOM     33  C   UNL     1       2.676  -0.735  10.532  0.00  0.00    +0.008 A 
ATOM     34  C   UNL     1       2.917  -1.607  11.576  0.00  0.00    +0.046 A 
ATOM     35  C   UNL     1       1.904  -1.907  12.476  0.00  0.00    +0.120 A 
ATOM     36  C   UNL     1       0.651  -1.330  12.324  0.00  0.00    +0.046 A 
ATOM     37  C   UNL     1       0.417  -0.455  11.281  0.00  0.00    +0.008 A 
BRANCH  35  38
ATOM     38  O   UNL     1       2.138  -2.765  13.503  0.00  0.00    -0.495 OA
ATOM     39  C   UNL     1       1.049  -3.027  14.390  0.00  0.00    +0.277 C 
ENDBRANCH  35  38
ENDBRANCH  21  32
ENDBRANCH   1  21
TORSDOF 7
