REMARK  Name = ZINC43687529
REMARK  4 active torsions:
REMARK  status: ('A' for Active; 'I' for Inactive)
REMARK    1  A    between atoms: C_4  and  O_10
REMARK    2  A    between atoms: C_5  and  C_7
REMARK    3  A    between atoms: O_10  and  C_11
REMARK    4  A    between atoms: C_11  and  C_12
REMARK                            x       y       z     vdW  Elec       q    Type
REMARK                         _______ _______ _______ _____ _____    ______ ____
ROOT
ATOM      1  C   UNL     1      -0.463   1.169  -0.296  0.00  0.00    +0.001 A 
ATOM      2  C   UNL     1       0.621   2.031  -0.342  0.00  0.00    +0.004 A 
ATOM      3  C   UNL     1       1.908   1.536  -0.285  0.00  0.00    +0.046 A 
ATOM      4  C   UNL     1       2.124   0.170  -0.181  0.00  0.00    +0.131 A 
ATOM      5  C   UNL     1       1.031  -0.704  -0.133  0.00  0.00    +0.054 A 
ATOM      6  C   UNL     1      -0.266  -0.191  -0.192  0.00  0.00    +0.015 A 
ENDROOT
BRANCH   5   7
ATOM      7  C   UNL     1       1.249  -2.160  -0.023  0.00  0.00    +0.098 C 
ATOM      8  N   UNL     1       0.693  -2.843   0.978  0.00  0.00    -0.387 N 
ATOM      9  N   UNL     1       2.001  -2.792  -0.924  0.00  0.00    -0.344 N 
ATOM     10  H   UNL     1       0.209  -2.374   1.675  0.00  0.00    +0.157 HD
ATOM     11  H   UNL     1       2.405  -2.295  -1.652  0.00  0.00    +0.144 HD
ATOM     12  H   UNL     1       2.144  -3.749  -0.851  0.00  0.00    +0.144 HD
ATOM     13  H   UNL     1       0.774  -3.809   1.009  0.00  0.00    +0.157 HD
ENDBRANCH   5   7
BRANCH   4  14
ATOM     14  O   UNL     1       3.389  -0.318  -0.126  0.00  0.00    -0.486 OA
BRANCH  14  15
ATOM     15  C   UNL     1       4.454   0.634  -0.180  0.00  0.00    +0.271 C 
BRANCH  15  16
ATOM     16  C   UNL     1       5.776  -0.087  -0.107  0.00  0.00    +0.028 A 
ATOM     17  C   UNL     1       6.543  -0.568  -1.116  0.00  0.00    +0.029 A 
ATOM     18  C   UNL     1       7.732  -1.202  -0.810  0.00  0.00    +0.025 A 
ATOM     19  C   UNL     1       8.096  -1.324   0.490  0.00  0.00    +0.060 A 
ATOM     20  S   UNL     1       6.741  -0.522   1.330  0.00  0.00    -0.097 S 
ATOM     21 BR   UNL     1       8.835  -1.890  -2.184  0.00  0.00    -0.050 Br
ENDBRANCH  15  16
ENDBRANCH  14  15
ENDBRANCH   4  14
TORSDOF 4
