REMARK  Name = ZINC43401772
REMARK  8 active torsions:
REMARK  status: ('A' for Active; 'I' for Inactive)
REMARK    1  A    between atoms: C_1  and  C_2
REMARK    2  A    between atoms: C_5  and  C_19
REMARK    3  A    between atoms: C_6  and  S_8
REMARK    4  A    between atoms: S_8  and  C_9
REMARK    5  A    between atoms: C_12  and  C_15
REMARK    6  A    between atoms: C_15  and  C_16
REMARK    7  A    between atoms: C_15  and  C_17
REMARK    8  A    between atoms: C_15  and  C_18
REMARK                            x       y       z     vdW  Elec       q    Type
REMARK                         _______ _______ _______ _____ _____    ______ ____
ROOT
ATOM      1  C   UNL     1       4.792  -1.685   3.821  0.00  0.00    +0.065 C 
ATOM      2  C   UNL     1       3.843  -2.534   3.016  0.00  0.00    +0.040 A 
ATOM      3  C   UNL     1       4.339  -3.328   1.996  0.00  0.00    +0.024 A 
ATOM      4  C   UNL     1       3.469  -4.108   1.256  0.00  0.00    +0.015 A 
ATOM      5  C   UNL     1       2.107  -4.065   1.568  0.00  0.00    +0.044 A 
ATOM      6  C   UNL     1       1.679  -3.234   2.617  0.00  0.00    +0.112 A 
ATOM      7  N   UNL     1       2.555  -2.511   3.298  0.00  0.00    -0.245 NA
ENDROOT
BRANCH   5   8
ATOM      8  C   UNL     1       1.136  -4.877   0.809  0.00  0.00    +0.097 C 
ATOM      9  N   UNL     1       0.103  -4.289   0.205  0.00  0.00    -0.387 N 
ATOM     10  N   UNL     1       1.291  -6.199   0.728  0.00  0.00    -0.344 N 
ATOM     11  H   UNL     1      -0.022  -3.330   0.281  0.00  0.00    +0.157 HD
ATOM     12  H   UNL     1       2.042  -6.626   1.168  0.00  0.00    +0.144 HD
ATOM     13  H   UNL     1       0.653  -6.732   0.230  0.00  0.00    +0.144 HD
ATOM     14  H   UNL     1      -0.523  -4.820  -0.311  0.00  0.00    +0.157 HD
ENDBRANCH   5   8
BRANCH   6  15
ATOM     15  S   UNL     1      -0.032  -3.158   3.034  0.00  0.00    -0.069 S 
BRANCH  15  16
ATOM     16  C   UNL     1      -0.116  -1.898   4.262  0.00  0.00    +0.014 A 
ATOM     17  C   UNL     1      -0.394  -0.587   3.897  0.00  0.00    +0.015 A 
ATOM     18  C   UNL     1      -0.459   0.398   4.863  0.00  0.00    +0.005 A 
ATOM     19  C   UNL     1      -0.248   0.081   6.192  0.00  0.00    -0.042 A 
ATOM     20  C   UNL     1       0.029  -1.224   6.559  0.00  0.00    +0.005 A 
ATOM     21  C   UNL     1       0.090  -2.215   5.599  0.00  0.00    +0.015 A 
BRANCH  19  22
ATOM     22  C   UNL     1      -0.320   1.158   7.243  0.00  0.00    -0.013 C 
ATOM     23  C   UNL     1      -1.712   1.792   7.230  0.00  0.00    +0.015 C 
ATOM     24  C   UNL     1      -0.050   0.547   8.620  0.00  0.00    +0.015 C 
ATOM     25  C   UNL     1       0.731   2.230   6.947  0.00  0.00    +0.015 C 
ENDBRANCH  19  22
ENDBRANCH  15  16
ENDBRANCH   6  15
TORSDOF 4
