REMARK  Name = ZINC52861225
REMARK  13 active torsions:
REMARK  status: ('A' for Active; 'I' for Inactive)
REMARK    1  A    between atoms: C_1  and  C_2
REMARK    2  A    between atoms: C_2  and  C_3
REMARK    3  A    between atoms: C_2  and  C_4
REMARK    4  A    between atoms: C_2  and  C_5
REMARK    5  A    between atoms: C_5  and  C_7
REMARK    6  A    between atoms: C_5  and  N_12
REMARK    7  A    between atoms: N_12  and  C_13
REMARK    8  A    between atoms: C_13  and  C_14
REMARK    9  A    between atoms: N_16  and  C_17
REMARK   10  A    between atoms: C_17  and  C_18
REMARK   11  A    between atoms: C_21  and  N_24
REMARK   12  A    between atoms: C_25  and  O_27
REMARK   13  A    between atoms: O_27  and  C_28
REMARK                            x       y       z     vdW  Elec       q    Type
REMARK                         _______ _______ _______ _____ _____    ______ ____
ROOT
ATOM      1  C   UNL     1      -1.778  -0.165  -3.673  0.00  0.00    +0.196 C 
ATOM      2  O   UNL     1      -1.208   0.549  -4.470  0.00  0.00    -0.278 OA
ATOM      3  N   UNL     1      -3.058  -0.528  -3.888  0.00  0.00    -0.313 N 
ATOM      4  H   UNL     1      -3.514  -1.100  -3.251  0.00  0.00    +0.149 HD
ENDROOT
BRANCH   1   5
ATOM      5  C   UNL     1      -1.054  -0.648  -2.442  0.00  0.00    +0.016 C 
BRANCH   5   6
ATOM      6  N   UNL     1       0.316  -0.118  -2.441  0.00  0.00    +0.390 N 
ATOM      7  H   UNL     1       0.288   0.887  -2.522  0.00  0.00    -0.084 HD
ATOM      8  H   UNL     1       0.827  -0.505  -3.220  0.00  0.00    -0.084 HD
BRANCH   6   9
ATOM      9  C   UNL     1       0.982  -0.489  -1.185  0.00  0.00    -0.028 C 
BRANCH   9  10
ATOM     10  C   UNL     1       1.153  -1.985  -1.129  0.00  0.00    -0.024 A 
ATOM     11  C   UNL     1       0.997  -2.823  -0.075  0.00  0.00    +0.009 A 
ATOM     12  C   UNL     1       1.208  -4.177  -0.259  0.00  0.00    +0.008 A 
ATOM     13  C   UNL     1       1.564  -4.626  -1.487  0.00  0.00    +0.045 A 
ATOM     14  S   UNL     1       1.604  -3.114  -2.436  0.00  0.00    -0.103 S 
ENDBRANCH   9  10
BRANCH   9  16
ATOM     15  C   UNL     1       3.161  -0.177  -2.368  0.00  0.00    +0.009 C 
ATOM     16  C   UNL     1       2.355   0.184  -1.119  0.00  0.00    -0.046 C 
ATOM     17  C   UNL     1       3.100  -0.301   0.127  0.00  0.00    +0.009 C 
ATOM     18  C   UNL     1       2.176   1.702  -1.048  0.00  0.00    +0.009 C 
ENDBRANCH   9  16
ENDBRANCH   6   9
ENDBRANCH   5   6
ENDBRANCH   1   5
BRANCH   3  19
ATOM     19  C   UNL     1      -3.761  -0.059  -5.085  0.00  0.00    +0.139 C 
BRANCH  19  20
ATOM     20  C   UNL     1      -5.167  -0.602  -5.087  0.00  0.00    -0.030 A 
ATOM     21  C   UNL     1      -5.434  -1.821  -5.682  0.00  0.00    +0.007 A 
ATOM     22  C   UNL     1      -6.722  -2.322  -5.686  0.00  0.00    +0.024 A 
ATOM     23  C   UNL     1      -7.748  -1.600  -5.090  0.00  0.00    +0.036 A 
ATOM     24  C   UNL     1      -7.476  -0.376  -4.493  0.00  0.00    +0.024 A 
ATOM     25  C   UNL     1      -6.185   0.116  -4.488  0.00  0.00    +0.007 A 
BRANCH  23  26
ATOM     26  N   UNL     1      -9.053  -2.104  -5.093  0.00  0.00    -0.251 N 
ATOM     27  C   UNL     1      -9.263  -3.432  -4.998  0.00  0.00    +0.404 C 
ATOM     28  O   UNL     1      -8.326  -4.184  -4.816  0.00  0.00    -0.226 OA
ATOM     29  H   UNL     1      -9.807  -1.498  -5.163  0.00  0.00    +0.158 HD
BRANCH  27  30
ATOM     30  O   UNL     1     -10.511  -3.926  -5.106  0.00  0.00    -0.453 OA
ATOM     31  C   UNL     1     -10.660  -5.343  -4.996  0.00  0.00    +0.282 C 
ENDBRANCH  27  30
ENDBRANCH  23  26
ENDBRANCH  19  20
ENDBRANCH   3  19
TORSDOF 9
