REMARK  Name = ZINC13816237
REMARK  9 active torsions:
REMARK  status: ('A' for Active; 'I' for Inactive)
REMARK    1  A    between atoms: C_5  and  C_7
REMARK    2  A    between atoms: C_7  and  C_9
REMARK    3  A    between atoms: C_7  and  C_24
REMARK    4  A    between atoms: C_9  and  C_10
REMARK    5  A    between atoms: C_10  and  N_11
REMARK    6  A    between atoms: N_13  and  C_14
REMARK    7  A    between atoms: C_14  and  C_15
REMARK    8  A    between atoms: C_15  and  C_16
REMARK    9  A    between atoms: C_16  and  C_17
REMARK                            x       y       z     vdW  Elec       q    Type
REMARK                         _______ _______ _______ _____ _____    ______ ____
ROOT
ATOM      1  N   UNL     1       0.909  -4.681  -2.840  0.00  0.00    -0.358 N 
ATOM      2  C   UNL     1       0.994  -6.025  -3.116  0.00  0.00    +0.169 C 
ATOM      3  N   UNL     1       0.777  -6.456  -4.327  0.00  0.00    -0.358 N 
ATOM      4  N   UNL     1       1.306  -6.914  -2.115  0.00  0.00    -0.371 N 
ATOM      5  H   UNL     1       0.689  -4.053  -3.546  0.00  0.00    +0.162 HD
ATOM      6  H   UNL     1       1.467  -6.593  -1.214  0.00  0.00    +0.159 HD
ATOM      7  H   UNL     1       1.366  -7.862  -2.310  0.00  0.00    +0.159 HD
ATOM      8  H   UNL     1       0.557  -5.829  -5.033  0.00  0.00    +0.162 HD
ENDROOT
BRANCH   1   9
ATOM      9  C   UNL     1       1.152  -4.196  -1.479  0.00  0.00    +0.116 C 
BRANCH   9  10
ATOM     10  C   UNL     1       0.997  -2.674  -1.444  0.00  0.00    +0.036 C 
BRANCH  10  11
ATOM     11  C   UNL     1       1.250  -2.168  -0.023  0.00  0.00    +0.076 C 
BRANCH  11  16
ATOM     12  C   UNL     1       0.312   1.395  -0.820  0.00  0.00    +0.003 A 
ATOM     13  C   UNL     1       1.186   2.058   0.027  0.00  0.00    +0.020 A 
ATOM     14  C   UNL     1       2.043   1.321   0.822  0.00  0.00    +0.111 A 
ATOM     15  N   UNL     1       2.036   0.003   0.780  0.00  0.00    -0.259 NA
ATOM     16  C   UNL     1       1.218  -0.661  -0.013  0.00  0.00    +0.049 A 
ATOM     17  C   UNL     1       0.333   0.009  -0.836  0.00  0.00    +0.024 A 
ENDBRANCH  11  16
BRANCH  11  18
ATOM     18  C   UNL     1       0.182  -2.699   0.898  0.00  0.00    -0.001 A 
ATOM     19  C   UNL     1       0.320  -3.403   2.048  0.00  0.00    +0.012 A 
ATOM     20  C   UNL     1      -0.815  -3.790   2.736  0.00  0.00    +0.008 A 
ATOM     21  C   UNL     1      -2.031  -3.454   2.241  0.00  0.00    +0.045 A 
ATOM     22  S   UNL     1      -1.592  -2.558   0.761  0.00  0.00    -0.101 S 
ENDBRANCH  11  18
ENDBRANCH  10  11
ENDBRANCH   9  10
ENDBRANCH   1   9
BRANCH   3  23
ATOM     23  C   UNL     1       0.867  -7.888  -4.621  0.00  0.00    +0.116 C 
BRANCH  23  24
ATOM     24  C   UNL     1       0.571  -8.124  -6.104  0.00  0.00    +0.027 C 
BRANCH  24  25
ATOM     25  C   UNL     1       0.665  -9.620  -6.411  0.00  0.00    +0.058 C 
BRANCH  25  26
ATOM     26  C   UNL     1       0.373  -9.852  -7.872  0.00  0.00    +0.059 A 
ATOM     27  C   UNL     1       1.169 -10.499  -8.744  0.00  0.00    +0.107 A 
ATOM     28  N   UNL     1       0.527 -10.482  -9.953  0.00  0.00    -0.351 N 
ATOM     29  C   UNL     1      -0.639  -9.824  -9.777  0.00  0.00    +0.196 A 
ATOM     30  N   UNL     1      -0.727  -9.454  -8.528  0.00  0.00    -0.241 NA
ATOM     31  H   UNL     1       0.849 -10.870 -10.781  0.00  0.00    +0.166 HD
ENDBRANCH  25  26
ENDBRANCH  24  25
ENDBRANCH  23  24
ENDBRANCH   3  23
TORSDOF 9
