REMARK  Name = ZINC14461701
REMARK  10 active torsions:
REMARK  status: ('A' for Active; 'I' for Inactive)
REMARK    1  A    between atoms: C_1  and  C_2
REMARK    2  A    between atoms: C_2  and  N_3
REMARK    3  A    between atoms: N_3  and  C_4
REMARK    4  A    between atoms: N_3  and  C_6
REMARK    5  A    between atoms: C_4  and  C_5
REMARK    6  A    between atoms: C_9  and  C_12
REMARK    7  A    between atoms: C_23  and  S_28
REMARK    8  A    between atoms: S_28  and  N_31
REMARK    9  A    between atoms: N_31  and  C_32
REMARK   10  A    between atoms: N_31  and  C_33
REMARK                            x       y       z     vdW  Elec       q    Type
REMARK                         _______ _______ _______ _____ _____    ______ ____
ROOT
ATOM      1  C   UNL     1       0.856  -0.379  -4.231  0.00  0.00    +0.105 C 
ATOM      2  C   UNL     1       1.543   0.084  -2.943  0.00  0.00    +0.029 C 
ATOM      3  C   UNL     1       2.952   0.618  -3.336  0.00  0.00    +0.033 C 
ATOM      4  C   UNL     1       3.788  -0.643  -3.437  0.00  0.00    -0.030 C 
ATOM      5  C   UNL     1       3.238  -1.615  -2.750  0.00  0.00    -0.023 C 
ATOM      6  C   UNL     1       1.960  -1.138  -2.103  0.00  0.00    +0.049 C 
ATOM      7  C   UNL     1       0.921  -2.214  -2.083  0.00  0.00    -0.018 A 
ATOM      8  C   UNL     1       1.050  -3.249  -1.167  0.00  0.00    +0.034 A 
ATOM      9  C   UNL     1       0.111  -4.259  -1.113  0.00  0.00    +0.109 A 
ATOM     10  C   UNL     1      -0.972  -4.252  -1.973  0.00  0.00    +0.030 A 
ATOM     11  C   UNL     1      -1.110  -3.229  -2.890  0.00  0.00    +0.025 A 
ATOM     12  C   UNL     1      -0.165  -2.212  -2.945  0.00  0.00    +0.031 A 
ATOM     13  N   UNL     1      -0.319  -1.184  -3.881  0.00  0.00    -0.336 N 
ATOM     14  H   UNL     1      -1.181  -1.010  -4.290  0.00  0.00    +0.147 HD
ENDROOT
BRANCH   1  18
ATOM     15  C   UNL     1      -0.370   3.027  -6.504  0.00  0.00    +0.030 A 
ATOM     16  C   UNL     1       0.790   2.342  -6.846  0.00  0.00    +0.023 A 
ATOM     17  C   UNL     1       1.183   1.242  -6.109  0.00  0.00    +0.007 A 
ATOM     18  C   UNL     1       0.424   0.822  -5.033  0.00  0.00    -0.027 A 
ATOM     19  C   UNL     1      -0.734   1.498  -4.693  0.00  0.00    +0.007 A 
ATOM     20  C   UNL     1      -1.130   2.602  -5.422  0.00  0.00    +0.023 A 
BRANCH  15  21
ATOM     21  N   UNL     1      -0.770   4.140  -7.247  0.00  0.00    -0.330 N 
BRANCH  21  23
ATOM     22  C   UNL     1      -1.655   5.969  -5.887  0.00  0.00    +0.024 C 
ATOM     23  C   UNL     1      -1.993   4.861  -6.885  0.00  0.00    +0.102 C 
ENDBRANCH  21  23
BRANCH  21  24
ATOM     24  C   UNL     1       0.033   4.586  -8.389  0.00  0.00    +0.102 C 
ATOM     25  C   UNL     1      -0.452   3.884  -9.659  0.00  0.00    +0.024 C 
ENDBRANCH  21  24
ENDBRANCH  15  21
ENDBRANCH   1  18
BRANCH   9  26
ATOM     26  S   UNL     1       0.292  -5.563   0.058  0.00  0.00    +0.074 S 
ATOM     27  O   UNL     1      -0.530  -6.631  -0.392  0.00  0.00    -0.150 OA
ATOM     28  O   UNL     1       1.687  -5.718   0.281  0.00  0.00    -0.150 OA
BRANCH  26  29
ATOM     29  N   UNL     1      -0.359  -5.034   1.486  0.00  0.00    -0.206 N 
ATOM     30  C   UNL     1       0.451  -4.233   2.407  0.00  0.00    +0.157 C 
BRANCH  29  31
ATOM     31  C   UNL     1      -1.679  -5.352   1.812  0.00  0.00    +0.051 A 
ATOM     32  C   UNL     1      -2.724  -4.864   1.036  0.00  0.00    +0.025 A 
ATOM     33  C   UNL     1      -4.028  -5.184   1.359  0.00  0.00    +0.002 A 
ATOM     34  C   UNL     1      -4.295  -5.980   2.457  0.00  0.00    +0.000 A 
ATOM     35  C   UNL     1      -3.258  -6.463   3.234  0.00  0.00    +0.002 A 
ATOM     36  C   UNL     1      -1.951  -6.151   2.915  0.00  0.00    +0.025 A 
ENDBRANCH  29  31
ENDBRANCH  26  29
ENDBRANCH   9  26
TORSDOF 7
