REMARK  Name = ZINC63135137
REMARK  11 active torsions:
REMARK  status: ('A' for Active; 'I' for Inactive)
REMARK    1  A    between atoms: C_1  and  C_2
REMARK    2  A    between atoms: C_2  and  C_3
REMARK    3  A    between atoms: C_2  and  N_4
REMARK    4  A    between atoms: C_8  and  C_10
REMARK    5  A    between atoms: C_10  and  O_11
REMARK    6  A    between atoms: O_11  and  C_12
REMARK    7  A    between atoms: C_12  and  C_14
REMARK    8  A    between atoms: C_14  and  C_16
REMARK    9  A    between atoms: C_14  and  N_26
REMARK   10  A    between atoms: C_16  and  C_17
REMARK   11  A    between atoms: C_27  and  C_29
REMARK                            x       y       z     vdW  Elec       q    Type
REMARK                         _______ _______ _______ _____ _____    ______ ____
ROOT
ATOM      1  C   UNL     1      -5.925  -7.243  -2.199  0.00  0.00    +0.186 C 
ENDROOT
BRANCH   1   2
ATOM      2  N   UNL     1      -7.312  -7.495  -2.596  0.00  0.00    -0.298 N 
ATOM      3  C   UNL     1      -8.295  -7.459  -1.674  0.00  0.00    +0.251 C 
ATOM      4  O   UNL     1      -8.029  -7.218  -0.511  0.00  0.00    -0.270 OA
ATOM      5  H   UNL     1      -7.524  -7.688  -3.523  0.00  0.00    +0.150 HD
BRANCH   3   6
ATOM      6  C   UNL     1      -9.683  -7.711  -2.072  0.00  0.00    +0.074 A 
ATOM      7  C   UNL     1     -10.829  -7.716  -1.291  0.00  0.00    +0.021 A 
ATOM      8  C   UNL     1     -12.001  -7.989  -1.953  0.00  0.00    +0.008 A 
ATOM      9  C   UNL     1     -11.964  -8.229  -3.287  0.00  0.00    +0.046 A 
ATOM     10  S   UNL     1     -10.339  -8.084  -3.687  0.00  0.00    -0.092 S 
ENDBRANCH   3   6
ENDBRANCH   1   2
BRANCH   1  11
ATOM     11  C   UNL     1      -5.816  -5.862  -1.604  0.00  0.00    +0.328 C 
ATOM     12  O   UNL     1      -6.803  -5.305  -1.187  0.00  0.00    -0.249 OA
BRANCH  11  13
ATOM     13  O   UNL     1      -4.622  -5.253  -1.538  0.00  0.00    -0.454 OA
BRANCH  13  14
ATOM     14  C   UNL     1      -4.592  -3.945  -0.962  0.00  0.00    +0.328 C 
BRANCH  14  19
ATOM     15  N   UNL     1      -1.372  -0.511   0.012  0.00  0.00    -0.297 N 
ATOM     16  C   UNL     1      -1.643  -1.734  -0.485  0.00  0.00    +0.306 C 
ATOM     17  O   UNL     1      -0.747  -2.416  -0.942  0.00  0.00    -0.252 OA
ATOM     18  N   UNL     1      -2.908  -2.201  -0.475  0.00  0.00    -0.237 N 
ATOM     19  C   UNL     1      -3.178  -3.424  -0.973  0.00  0.00    +0.258 C 
ATOM     20  O   UNL     1      -2.285  -4.104  -1.429  0.00  0.00    -0.272 OA
ATOM     21  H   UNL     1      -2.087   0.033   0.377  0.00  0.00    +0.151 HD
ATOM     22  H   UNL     1      -3.623  -1.656  -0.111  0.00  0.00    +0.159 HD
BRANCH  15  24
ATOM     23  C   UNL     1      -0.019   1.526   0.010  0.00  0.00    +0.027 C 
ATOM     24  C   UNL     1       0.002  -0.004   0.002  0.00  0.00    +0.068 C 
ATOM     25  C   UNL     1       0.742  -0.511   1.242  0.00  0.00    +0.027 C 
ENDBRANCH  15  24
ENDBRANCH  14  19
ENDBRANCH  13  14
ENDBRANCH  11  13
ENDBRANCH   1  11
BRANCH   1  26
ATOM     26  C   UNL     1      -5.495  -8.281  -1.161  0.00  0.00    +0.067 C 
BRANCH  26  27
ATOM     27  C   UNL     1      -5.487  -9.649  -1.793  0.00  0.00    -0.039 C 
ATOM     28  C   UNL     1      -4.425 -10.289  -2.334  0.00  0.00    -0.001 A 
ATOM     29  C   UNL     1      -3.014  -9.915  -2.491  0.00  0.00    +0.010 A 
ATOM     30  C   UNL     1      -2.168 -10.785  -3.089  0.00  0.00    +0.001 A 
ATOM     31  C   UNL     1      -2.604 -12.031  -3.561  0.00  0.00    +0.002 A 
ATOM     32  C   UNL     1      -3.884 -12.444  -3.452  0.00  0.00    +0.026 A 
ATOM     33  C   UNL     1      -4.859 -11.610  -2.840  0.00  0.00    +0.043 A 
ATOM     34  N   UNL     1      -6.141 -11.781  -2.620  0.00  0.00    -0.380 N 
ATOM     35  C   UNL     1      -6.663 -10.588  -1.944  0.00  0.00    +0.144 C 
ATOM     36  H   UNL     1      -6.656 -12.566  -2.862  0.00  0.00    +0.160 HD
ENDBRANCH  26  27
ENDBRANCH   1  26
TORSDOF 9
