REMARK  Name = ZINC14999637
REMARK  9 active torsions:
REMARK  status: ('A' for Active; 'I' for Inactive)
REMARK    1  A    between atoms: C_1  and  C_2
REMARK    2  A    between atoms: C_5  and  C_7
REMARK    3  A    between atoms: C_11  and  O_13
REMARK    4  A    between atoms: O_13  and  C_14
REMARK    5  A    between atoms: C_14  and  C_15
REMARK    6  A    between atoms: C_21  and  N_69
REMARK    7  A    between atoms: C_27  and  C_29
REMARK    8  A    between atoms: C_29  and  S_30
REMARK    9  A    between atoms: S_30  and  C_31
REMARK                            x       y       z     vdW  Elec       q    Type
REMARK                         _______ _______ _______ _____ _____    ______ ____
ROOT
ATOM      1  C   UNL     1       2.214   4.138   0.002  0.00  0.00    -0.007 A 
ATOM      2  C   UNL     1       1.938   5.508   0.006  0.00  0.00    +0.018 A 
ATOM      3  C   UNL     1       2.975   6.411  -0.002  0.00  0.00    +0.016 A 
ATOM      4  C   UNL     1       4.294   5.982   0.009  0.00  0.00    +0.167 A 
ATOM      5  C   UNL     1       4.573   4.617  -0.002  0.00  0.00    +0.163 A 
ATOM      6  C   UNL     1       3.539   3.700  -0.013  0.00  0.00    +0.058 A 
ATOM      7  O   UNL     1       5.307   6.882   0.077  0.00  0.00    -0.486 OA
ATOM      8  C   UNL     1       5.455   7.562   1.329  0.00  0.00    +0.248 C 
ATOM      9  C   UNL     1       4.612   8.829   1.340  0.00  0.00    +0.149 C 
ATOM     10  N   UNL     1       3.190   8.520   1.176  0.00  0.00    -0.293 N 
ATOM     11  C   UNL     1       2.701   7.902  -0.060  0.00  0.00    +0.146 C 
ATOM     12  C   UNL     1       2.325   8.806   2.169  0.00  0.00    +0.226 C 
ATOM     13  O   UNL     1       1.146   8.551   2.038  0.00  0.00    -0.275 OA
ENDROOT
BRANCH   1  18
ATOM     14  C   UNL     1      -2.595   1.197   0.021  0.00  0.00    +0.051 C 
ATOM     15  C   UNL     1      -1.192   1.747   0.017  0.00  0.00    -0.013 A 
ATOM     16  C   UNL     1      -0.013   1.076   0.008  0.00  0.00    +0.011 A 
ATOM     17  C   UNL     1       1.166   1.790   0.001  0.00  0.00    +0.016 A 
ATOM     18  C   UNL     1       1.107   3.158   0.008  0.00  0.00    +0.020 A 
ATOM     19  S   UNL     1      -0.654   3.449   0.026  0.00  0.00    -0.093 S 
ENDBRANCH   1  18
BRANCH   5  20
ATOM     20  O   UNL     1       5.864   4.186  -0.003  0.00  0.00    -0.488 OA
BRANCH  20  21
ATOM     21  C   UNL     1       6.076   2.773  -0.015  0.00  0.00    +0.231 C 
BRANCH  21  22
ATOM     22  C   UNL     1       7.579   2.484  -0.013  0.00  0.00    +0.010 C 
ATOM     23  C   UNL     1       7.808   0.974   0.095  0.00  0.00    +0.003 C 
ATOM     24  C   UNL     1       9.311   0.688   0.035  0.00  0.00    -0.018 C 
ATOM     25  C   UNL     1       9.881   1.254  -1.268  0.00  0.00    -0.079 C 
ATOM     26  C   UNL     1       8.199   2.997  -1.315  0.00  0.00    -0.072 C 
ATOM     27  C   UNL     1      10.291   3.300  -2.494  0.00  0.00    -0.096 C 
ATOM     28  N   UNL     1       9.650   2.713  -1.299  0.00  0.00    +0.378 N 
ATOM     29  H   UNL     1      10.062   3.134  -0.458  0.00  0.00    -0.082 HD
ENDBRANCH  21  22
ENDBRANCH  20  21
ENDBRANCH   5  20
BRANCH  12  30
ATOM     30  C   UNL     1       2.821   9.441   3.442  0.00  0.00    +0.171 C 
BRANCH  30  31
ATOM     31  S   UNL     1       1.427   9.699   4.574  0.00  0.00    -0.097 S 
BRANCH  31  32
ATOM     32  C   UNL     1       2.162  10.438   5.994  0.00  0.00    +0.097 A 
ATOM     33  C   UNL     1       1.366  10.778   7.084  0.00  0.00    +0.035 A 
ATOM     34  C   UNL     1       1.956  11.358   8.192  0.00  0.00    +0.004 A 
ATOM     35  C   UNL     1       3.327  11.580   8.174  0.00  0.00    +0.020 A 
ATOM     36  C   UNL     1       4.056  11.218   7.059  0.00  0.00    +0.112 A 
ATOM     37  N   UNL     1       3.467  10.661   6.017  0.00  0.00    -0.249 NA
ENDBRANCH  31  32
ENDBRANCH  30  31
ENDBRANCH  12  30
TORSDOF 7
