REMARK  Name = ZINC35255365
REMARK  4 active torsions:
REMARK  status: ('A' for Active; 'I' for Inactive)
REMARK    1  A    between atoms: C_5  and  C_6
REMARK    2  A    between atoms: C_6  and  N_7
REMARK    3  A    between atoms: N_7  and  C_8
REMARK    4  A    between atoms: C_11  and  C_14
REMARK                            x       y       z     vdW  Elec       q    Type
REMARK                         _______ _______ _______ _____ _____    ______ ____
ROOT
ATOM      1  C   UNL     1      -2.675  -2.215  -1.368  0.00  0.00    -0.071 C 
ATOM      2  C   UNL     1      -2.223  -3.549  -0.770  0.00  0.00    -0.015 C 
ATOM      3  C   UNL     1      -3.399  -4.529  -0.763  0.00  0.00    +0.011 C 
ATOM      4  C   UNL     1      -3.886  -4.751  -2.196  0.00  0.00    +0.075 C 
ATOM      5  C   UNL     1      -4.337  -3.417  -2.794  0.00  0.00    +0.011 C 
ATOM      6  C   UNL     1      -3.161  -2.437  -2.801  0.00  0.00    -0.015 C 
ENDROOT
BRANCH   4   7
ATOM      7  C   UNL     1      -2.763  -5.319  -3.026  0.00  0.00    +0.214 C 
ATOM      8  O   UNL     1      -1.680  -5.526  -2.520  0.00  0.00    -0.276 OA
ATOM      9  N   UNL     1      -2.962  -5.597  -4.330  0.00  0.00    -0.329 N 
ATOM     10  H   UNL     1      -3.829  -5.432  -4.734  0.00  0.00    +0.145 HD
ATOM     11  H   UNL     1      -2.240  -5.963  -4.863  0.00  0.00    +0.145 HD
ENDBRANCH   4   7
BRANCH   1  12
ATOM     12  N   UNL     1      -1.546  -1.275  -1.374  0.00  0.00    +0.384 N 
ATOM     13  H   UNL     1      -1.820  -0.424  -1.843  0.00  0.00    -0.085 HD
ATOM     14  H   UNL     1      -0.765  -1.690  -1.860  0.00  0.00    -0.085 HD
BRANCH  12  15
ATOM     15  C   UNL     1      -1.156  -0.969   0.009  0.00  0.00    -0.039 C 
BRANCH  15  20
ATOM     16  C   UNL     1      -0.016   1.351   0.009  0.00  0.00    +0.010 A 
ATOM     17  C   UNL     1       1.183   2.038   0.002  0.00  0.00    +0.023 A 
ATOM     18  C   UNL     1       2.343   1.335  -0.013  0.00  0.00    +0.055 A 
ATOM     19  S   UNL     1       1.753  -0.350  -0.017  0.00  0.00    -0.088 S 
ATOM     20  C   UNL     1       0.002  -0.004   0.002  0.00  0.00    -0.026 A 
ATOM     21 BR   UNL     1       4.123   1.974  -0.027  0.00  0.00    -0.043 Br
ENDBRANCH  15  20
ENDBRANCH  12  15
ENDBRANCH   1  12
TORSDOF 4
