REMARK  Name = ZINC22505637
REMARK  6 active torsions:
REMARK  status: ('A' for Active; 'I' for Inactive)
REMARK    1  A    between atoms: C_4  and  N_10
REMARK    2  A    between atoms: C_5  and  C_7
REMARK    3  A    between atoms: C_11  and  C_13
REMARK    4  A    between atoms: C_13  and  C_14
REMARK    5  A    between atoms: C_19  and  N_21
REMARK    6  A    between atoms: N_21  and  N_22
REMARK                            x       y       z     vdW  Elec       q    Type
REMARK                         _______ _______ _______ _____ _____    ______ ____
ROOT
ATOM      1  C   UNL     1       7.047   0.613  -0.495  0.00  0.00    +0.150 C 
ATOM      2  C   UNL     1       8.425  -0.017  -0.661  0.00  0.00    +0.252 C 
ATOM      3  O   UNL     1       8.705  -0.728  -1.606  0.00  0.00    -0.272 OA
ATOM      4  N   UNL     1       9.283   0.262   0.281  0.00  0.00    -0.155 NA
ATOM      5  C   UNL     1       9.024   1.033   1.329  0.00  0.00    +0.191 C 
ATOM      6  S   UNL     1       7.320   1.522   1.084  0.00  0.00    -0.076 S 
ENDROOT
BRANCH   1   7
ATOM      7  C   UNL     1       5.960  -0.453  -0.344  0.00  0.00    +0.120 C 
BRANCH   7   9
ATOM      8  N   UNL     1       3.505  -0.531  -0.054  0.00  0.00    -0.285 N 
ATOM      9  C   UNL     1       4.617   0.215  -0.201  0.00  0.00    +0.219 C 
ATOM     10  O   UNL     1       4.537   1.425  -0.217  0.00  0.00    -0.275 OA
ATOM     11  H   UNL     1       3.576  -1.494   0.040  0.00  0.00    +0.155 HD
BRANCH   8  15
ATOM     12  C   UNL     1      -0.243   1.298  -0.009  0.00  0.00    +0.001 A 
ATOM     13  C   UNL     1       0.825   1.905  -0.651  0.00  0.00    +0.002 A 
ATOM     14  C   UNL     1       2.066   1.302  -0.667  0.00  0.00    +0.024 A 
ATOM     15  C   UNL     1       2.254   0.079  -0.038  0.00  0.00    +0.048 A 
ATOM     16  C   UNL     1       1.175  -0.540   0.614  0.00  0.00    +0.084 A 
ATOM     17  C   UNL     1      -0.077   0.084   0.621  0.00  0.00    +0.017 A 
BRANCH  16  18
ATOM     18  C   UNL     1       1.360  -1.837   1.284  0.00  0.00    +0.388 C 
ATOM     19  O   UNL     1       0.398  -2.418   1.767  0.00  0.00    -0.241 OA
ATOM     20  O   UNL     1       2.475  -2.334   1.358  0.00  0.00    -0.241 OA
ENDBRANCH  16  18
ENDBRANCH   8  15
ENDBRANCH   7   9
ENDBRANCH   1   7
BRANCH   5  21
ATOM     21  N   UNL     1       9.860   1.373   2.354  0.00  0.00    -0.094 NA
BRANCH  21  22
ATOM     22  N   UNL     1      11.174   0.888   2.376  0.00  0.00    -0.167 NA
ATOM     23  C   UNL     1      11.958   1.207   3.336  0.00  0.00    +0.039 C 
ATOM     24  C   UNL     1      11.465   2.098   4.447  0.00  0.00    +0.052 C 
ATOM     25  C   UNL     1      10.163   1.531   5.016  0.00  0.00    +0.006 C 
ATOM     26  C   UNL     1      10.348   1.221   6.503  0.00  0.00    +0.000 C 
ATOM     27  C   UNL     1       9.892  -0.211   6.786  0.00  0.00    +0.000 C 
ATOM     28  C   UNL     1      11.003  -0.965   7.519  0.00  0.00    +0.000 C 
ATOM     29  C   UNL     1      11.329  -2.255   6.764  0.00  0.00    +0.000 C 
ATOM     30  C   UNL     1      12.834  -2.323   6.497  0.00  0.00    +0.000 C 
ATOM     31  C   UNL     1      13.077  -2.556   5.004  0.00  0.00    +0.000 C 
ATOM     32  C   UNL     1      13.997  -1.462   4.460  0.00  0.00    +0.000 C 
ATOM     33  C   UNL     1      13.363  -0.833   3.218  0.00  0.00    +0.006 C 
ATOM     34  C   UNL     1      13.372   0.686   3.359  0.00  0.00    +0.052 C 
ENDBRANCH  21  22
ENDBRANCH   5  21
TORSDOF 6
