REMARK  Name = ZINC40704882
REMARK  6 active torsions:
REMARK  status: ('A' for Active; 'I' for Inactive)
REMARK    1  A    between atoms: C_1  and  C_2
REMARK    2  A    between atoms: C_7  and  N_8
REMARK    3  A    between atoms: C_10  and  N_23
REMARK    4  A    between atoms: C_11  and  N_15
REMARK    5  A    between atoms: N_15  and  C_16
REMARK    6  A    between atoms: N_15  and  C_17
REMARK                            x       y       z     vdW  Elec       q    Type
REMARK                         _______ _______ _______ _____ _____    ______ ____
ROOT
ATOM      1  N   UNL     1       0.088   0.045   2.425  0.00  0.00    -0.299 N 
ATOM      2  C   UNL     1      -0.022  -0.671   3.611  0.00  0.00    +0.126 A 
ATOM      3  C   UNL     1      -0.141  -0.006   4.833  0.00  0.00    +0.104 A 
ATOM      4  C   UNL     1      -0.249  -0.773   5.994  0.00  0.00    +0.151 A 
ATOM      5  N   UNL     1      -0.234  -2.101   5.893  0.00  0.00    -0.220 NA
ATOM      6  C   UNL     1      -0.121  -2.689   4.720  0.00  0.00    +0.200 A 
ATOM      7  N   UNL     1      -0.022  -2.002   3.599  0.00  0.00    -0.333 N 
ATOM      8  H   UNL     1       0.155   1.013   2.447  0.00  0.00    +0.154 HD
ATOM      9  H   UNL     1       0.056  -2.473   2.755  0.00  0.00    +0.168 HD
ENDROOT
BRANCH   1  16
ATOM     10  C   UNL     1      -2.361  -1.028   1.453  0.00  0.00    +0.045 C 
ATOM     11  C   UNL     1      -1.069  -1.169   0.688  0.00  0.00    -0.029 A 
ATOM     12  C   UNL     1      -1.052  -1.829  -0.525  0.00  0.00    +0.006 A 
ATOM     13  C   UNL     1       0.131  -1.958  -1.227  0.00  0.00    +0.020 A 
ATOM     14  C   UNL     1       1.303  -1.426  -0.718  0.00  0.00    +0.043 A 
ATOM     15  C   UNL     1       1.293  -0.764   0.495  0.00  0.00    +0.043 A 
ATOM     16  C   UNL     1       0.104  -0.629   1.200  0.00  0.00    +0.037 A 
ATOM     17 CL   UNL     1       2.788  -1.591  -1.603  0.00  0.00    -0.083 Cl
ENDBRANCH   1  16
BRANCH   3  18
ATOM     18  N   UNL     1      -0.151   1.397   4.892  0.00  0.00    -0.353 N 
ATOM     19  H   UNL     1      -0.152   1.917   4.073  0.00  0.00    +0.143 HD
ATOM     20  H   UNL     1      -0.158   1.846   5.752  0.00  0.00    +0.143 HD
ENDBRANCH   3  18
BRANCH   4  21
ATOM     21  N   UNL     1      -0.369  -0.161   7.237  0.00  0.00    -0.287 N 
ATOM     22  C   UNL     1       0.823   0.078   8.053  0.00  0.00    +0.137 C 
BRANCH  21  23
ATOM     23  C   UNL     1      -1.627   0.226   7.706  0.00  0.00    +0.035 A 
ATOM     24  C   UNL     1      -2.770  -0.112   6.993  0.00  0.00    +0.023 A 
ATOM     25  C   UNL     1      -4.012   0.271   7.460  0.00  0.00    +0.002 A 
ATOM     26  C   UNL     1      -4.118   0.991   8.636  0.00  0.00    +0.000 A 
ATOM     27  C   UNL     1      -2.982   1.329   9.349  0.00  0.00    +0.002 A 
ATOM     28  C   UNL     1      -1.737   0.944   8.890  0.00  0.00    +0.023 A 
ENDBRANCH  21  23
ENDBRANCH   4  21
TORSDOF 4
