REMARK  Name = ZINC20968598
REMARK  12 active torsions:
REMARK  status: ('A' for Active; 'I' for Inactive)
REMARK    1  A    between atoms: C_1  and  C_2
REMARK    2  A    between atoms: C_2  and  C_3
REMARK    3  A    between atoms: C_3  and  O_4
REMARK    4  A    between atoms: O_4  and  C_5
REMARK    5  A    between atoms: C_6  and  O_22
REMARK    6  A    between atoms: C_8  and  C_12
REMARK    7  A    between atoms: C_12  and  N_13
REMARK    8  A    between atoms: N_13  and  C_14
REMARK    9  A    between atoms: C_14  and  C_15
REMARK   10  A    between atoms: C_15  and  N_16
REMARK   11  A    between atoms: O_22  and  C_23
REMARK   12  A    between atoms: C_23  and  C_24
REMARK                            x       y       z     vdW  Elec       q    Type
REMARK                         _______ _______ _______ _____ _____    ______ ____
ROOT
ATOM      1  C   UNL     1      -2.017   2.461   3.527  0.00  0.00    +0.176 A 
ATOM      2  C   UNL     1      -1.009   3.230   2.955  0.00  0.00    +0.163 A 
ATOM      3  C   UNL     1      -0.358   2.779   1.817  0.00  0.00    +0.051 A 
ATOM      4  C   UNL     1      -0.718   1.572   1.248  0.00  0.00    -0.060 A 
ATOM      5  C   UNL     1      -1.719   0.807   1.816  0.00  0.00    +0.021 A 
ATOM      6  C   UNL     1      -2.369   1.249   2.955  0.00  0.00    +0.063 A 
ATOM      7 BR   UNL     1      -3.738   0.199   3.730  0.00  0.00    -0.046 Br
ENDROOT
BRANCH   1   8
ATOM      8  O   UNL     1      -2.655   2.897   4.647  0.00  0.00    -0.487 OA
BRANCH   8   9
ATOM      9  C   UNL     1      -2.096   2.512   5.904  0.00  0.00    +0.229 C 
BRANCH   9  11
ATOM     10  C   UNL     1      -2.345   2.680   8.384  0.00  0.00    +0.007 C 
ATOM     11  C   UNL     1      -2.944   3.092   7.038  0.00  0.00    +0.038 C 
ENDBRANCH   9  11
ENDBRANCH   8   9
ENDBRANCH   1   8
BRANCH   4  12
ATOM     12  C   UNL     1      -0.013   1.086   0.008  0.00  0.00    -0.047 C 
BRANCH  12  13
ATOM     13  N   UNL     1      -0.723   1.572  -1.182  0.00  0.00    +0.383 N 
ATOM     14  H   UNL     1      -1.755   1.192  -1.174  0.00  0.00    -0.085 HD
ATOM     15  H   UNL     1      -0.738   2.672  -1.176  0.00  0.00    -0.085 HD
BRANCH  13  16
ATOM     16  C   UNL     1      -0.062   1.117  -2.413  0.00  0.00    -0.067 C 
BRANCH  16  17
ATOM     17  C   UNL     1      -0.829   1.643  -3.628  0.00  0.00    +0.065 C 
BRANCH  17  18
ATOM     18  N   UNL     1      -0.169   1.187  -4.858  0.00  0.00    -0.308 NA
ATOM     19  C   UNL     1       0.163  -0.242  -4.780  0.00  0.00    +0.065 C 
ATOM     20  C   UNL     1       0.919  -0.658  -6.044  0.00  0.00    -0.067 C 
ATOM     21  N   UNL     1       0.088  -0.377  -7.223  0.00  0.00    +0.381 N 
ATOM     22  C   UNL     1      -0.244   1.052  -7.301  0.00  0.00    -0.067 C 
ATOM     23  C   UNL     1      -1.000   1.468  -6.037  0.00  0.00    +0.065 C 
ATOM     24  H   UNL     1       0.634  -0.664  -8.133  0.00  0.00    -0.086 HD
ATOM     25  H   UNL     1      -0.846  -0.955  -7.159  0.00  0.00    -0.086 HD
ENDBRANCH  17  18
ENDBRANCH  16  17
ENDBRANCH  13  16
ENDBRANCH  12  13
ENDBRANCH   4  12
BRANCH   2  26
ATOM     26  O   UNL     1      -0.660   4.420   3.513  0.00  0.00    -0.489 OA
BRANCH  26  27
ATOM     27  C   UNL     1       0.383   5.157   2.871  0.00  0.00    +0.226 C 
ATOM     28  C   UNL     1       0.635   6.457   3.636  0.00  0.00    +0.048 C 
ENDBRANCH  26  27
ENDBRANCH   2  26
TORSDOF 10
