REMARK  Name = ZINC36581410
REMARK  18 active torsions:
REMARK  status: ('A' for Active; 'I' for Inactive)
REMARK    1  A    between atoms: C_1  and  C_2
REMARK    2  A    between atoms: C_2  and  C_3
REMARK    3  A    between atoms: C_3  and  C_4
REMARK    4  A    between atoms: C_4  and  N_5
REMARK    5  A    between atoms: C_6  and  C_8
REMARK    6  A    between atoms: C_8  and  C_10
REMARK    7  A    between atoms: C_8  and  N_19
REMARK    8  A    between atoms: C_11  and  O_18
REMARK    9  A    between atoms: C_13  and  O_17
REMARK   10  A    between atoms: C_15  and  O_16
REMARK   11  A    between atoms: N_19  and  C_36
REMARK   12  A    between atoms: C_20  and  C_22
REMARK   13  A    between atoms: C_30  and  C_32
REMARK   14  A    between atoms: C_33  and  C_34
REMARK   15  A    between atoms: C_33  and  C_35
REMARK   16  A    between atoms: C_36  and  C_37
REMARK   17  A    between atoms: C_36  and  C_38
REMARK   18  A    between atoms: C_36  and  C_39
REMARK                            x       y       z     vdW  Elec       q    Type
REMARK                         _______ _______ _______ _____ _____    ______ ____
ROOT
ATOM      1  C   UNL     1      -4.776  -6.152  -1.270  0.00  0.00    +0.200 C 
ENDROOT
BRANCH   1   2
ATOM      2  C   UNL     1      -5.203  -5.605  -2.607  0.00  0.00    +0.065 A 
ATOM      3  C   UNL     1      -5.636  -6.468  -3.603  0.00  0.00    +0.129 A 
ATOM      4  C   UNL     1      -6.029  -5.965  -4.834  0.00  0.00    +0.091 A 
ATOM      5  C   UNL     1      -5.990  -4.598  -5.069  0.00  0.00    +0.124 A 
ATOM      6  C   UNL     1      -5.559  -3.736  -4.073  0.00  0.00    +0.091 A 
ATOM      7  C   UNL     1      -5.169  -4.239  -2.840  0.00  0.00    +0.129 A 
BRANCH   7   8
ATOM      8  O   UNL     1      -4.751  -3.393  -1.863  0.00  0.00    -0.506 OA
ATOM      9  H   UNL     1      -3.800  -3.219  -1.874  0.00  0.00    +0.292 HD
ENDBRANCH   7   8
BRANCH   5  10
ATOM     10  O   UNL     1      -6.375  -4.105  -6.275  0.00  0.00    -0.507 OA
ATOM     11  H   UNL     1      -7.316  -3.888  -6.330  0.00  0.00    +0.292 HD
ENDBRANCH   5  10
BRANCH   3  12
ATOM     12  O   UNL     1      -5.674  -7.807  -3.373  0.00  0.00    -0.506 OA
ATOM     13  H   UNL     1      -6.507  -8.117  -2.991  0.00  0.00    +0.292 HD
ENDBRANCH   3  12
ENDBRANCH   1   2
BRANCH   1  15
ATOM     14  N   UNL     1      -6.378  -7.985  -0.834  0.00  0.00    -0.313 N 
ATOM     15  C   UNL     1      -5.132  -7.614  -1.188  0.00  0.00    +0.238 C 
ATOM     16  O   UNL     1      -4.297  -8.457  -1.440  0.00  0.00    -0.273 OA
ATOM     17  H   UNL     1      -7.046  -7.311  -0.632  0.00  0.00    +0.149 HD
BRANCH  14  18
ATOM     18  C   UNL     1      -6.725  -9.407  -0.755  0.00  0.00    +0.104 C 
BRANCH  18  19
ATOM     19  C   UNL     1      -8.189  -9.552  -0.335  0.00  0.00    +0.018 C 
BRANCH  19  21
ATOM     20  C   UNL     1     -10.015 -11.182   0.168  0.00  0.00    +0.004 C 
ATOM     21  C   UNL     1      -8.550 -11.037  -0.252  0.00  0.00    -0.002 C 
ENDBRANCH  19  21
ENDBRANCH  18  19
ENDBRANCH  14  18
ENDBRANCH   1  15
BRANCH   1  22
ATOM     22  N   UNL     1      -3.328  -5.993  -1.117  0.00  0.00    -0.280 N 
ATOM     23  C   UNL     1      -2.519  -6.122  -2.188  0.00  0.00    +0.220 C 
ATOM     24  O   UNL     1      -2.994  -6.315  -3.287  0.00  0.00    -0.275 OA
BRANCH  23  25
ATOM     25  C   UNL     1      -1.013  -6.027  -2.018  0.00  0.00    +0.079 C 
ATOM     26  C   UNL     1      -0.647  -4.576  -1.722  0.00  0.00    +0.017 C 
ATOM     27  C   UNL     1       0.670  -4.155  -2.373  0.00  0.00    -0.004 C 
ATOM     28  C   UNL     1       0.608  -4.315  -3.908  0.00  0.00    +0.008 C 
ATOM     29  C   UNL     1       0.944  -5.798  -3.611  0.00  0.00    -0.001 C 
ATOM     30  C   UNL     1      -0.343  -6.552  -3.280  0.00  0.00    +0.001 C 
ATOM     31  C   UNL     1      -0.077  -8.056  -3.165  0.00  0.00    +0.008 C 
ATOM     32  C   UNL     1       1.731  -5.263  -2.413  0.00  0.00    -0.029 C 
ATOM     33  C   UNL     1       1.803  -6.152  -1.176  0.00  0.00    +0.011 C 
ATOM     34  C   UNL     1       3.131  -4.740  -2.793  0.00  0.00    +0.011 C 
ENDBRANCH  23  25
BRANCH  22  35
ATOM     35  C   UNL     1      -2.758  -5.694   0.199  0.00  0.00    +0.030 C 
ATOM     36  C   UNL     1      -3.801  -5.975   1.282  0.00  0.00    +0.031 C 
ATOM     37  C   UNL     1      -1.528  -6.572   0.434  0.00  0.00    +0.031 C 
ATOM     38  C   UNL     1      -2.350  -4.220   0.255  0.00  0.00    +0.031 C 
ENDBRANCH  22  35
ENDBRANCH   1  22
TORSDOF 11
