REMARK  Name = ZINC16958068
REMARK  19 active torsions:
REMARK  status: ('A' for Active; 'I' for Inactive)
REMARK    1  A    between atoms: C_1  and  C_2
REMARK    2  A    between atoms: C_5  and  N_9
REMARK    3  A    between atoms: C_6  and  C_8
REMARK    4  A    between atoms: C_10  and  C_12
REMARK    5  A    between atoms: C_12  and  C_14
REMARK    6  A    between atoms: C_12  and  C_23
REMARK    7  A    between atoms: C_14  and  N_66
REMARK    8  A    between atoms: C_15  and  C_16
REMARK    9  A    between atoms: C_15  and  N_66
REMARK   10  A    between atoms: C_16  and  C_17
REMARK   11  A    between atoms: C_16  and  C_18
REMARK   12  A    between atoms: C_19  and  C_20
REMARK   13  A    between atoms: C_19  and  N_66
REMARK   14  A    between atoms: C_20  and  C_21
REMARK   15  A    between atoms: C_20  and  C_22
REMARK   16  A    between atoms: C_23  and  C_29
REMARK   17  A    between atoms: N_24  and  N_25
REMARK   18  A    between atoms: N_25  and  C_26
REMARK   19  A    between atoms: C_26  and  N_28
REMARK                            x       y       z     vdW  Elec       q    Type
REMARK                         _______ _______ _______ _____ _____    ______ ____
ROOT
ATOM      1  C   UNL     1      -3.401   1.013  -0.208  0.00  0.00    +0.104 C 
ENDROOT
BRANCH   1   3
ATOM      2  N   UNL     1      -5.127   1.509  -1.909  0.00  0.00    -0.285 N 
ATOM      3  C   UNL     1      -4.012   0.831  -1.574  0.00  0.00    +0.224 C 
ATOM      4  O   UNL     1      -3.501   0.072  -2.370  0.00  0.00    -0.275 OA
ATOM      5  H   UNL     1      -5.492   2.173  -1.303  0.00  0.00    +0.155 HD
BRANCH   2  10
ATOM      6  C   UNL     1      -7.685   0.488  -6.869  0.00  0.00    +0.044 C 
ATOM      7  C   UNL     1      -7.005   0.759  -5.552  0.00  0.00    -0.050 A 
ATOM      8  C   UNL     1      -5.642   0.560  -5.424  0.00  0.00    +0.005 A 
ATOM      9  C   UNL     1      -5.017   0.808  -4.218  0.00  0.00    +0.024 A 
ATOM     10  C   UNL     1      -5.758   1.257  -3.133  0.00  0.00    +0.036 A 
ATOM     11  C   UNL     1      -7.127   1.450  -3.262  0.00  0.00    -0.029 A 
ATOM     12  C   UNL     1      -7.745   1.206  -4.473  0.00  0.00    +0.008 A 
ATOM     13  C   UNL     1      -7.935   1.931  -2.085  0.00  0.00    +0.045 C 
ENDBRANCH   2  10
ENDBRANCH   1   3
BRANCH   1  14
ATOM     14  C   UNL     1      -2.310  -0.007  -0.005  0.00  0.00    +0.044 C 
ATOM     15  N   UNL     1      -1.094   0.373   0.123  0.00  0.00    -0.190 NA
ATOM     16  C   UNL     1      -2.651  -1.474   0.047  0.00  0.00    +0.063 C 
BRANCH  15  17
ATOM     17  N   UNL     1      -0.080  -0.575   0.311  0.00  0.00    -0.219 N 
ATOM     18  H   UNL     1      -0.300  -1.519   0.345  0.00  0.00    +0.176 HD
BRANCH  17  19
ATOM     19  C   UNL     1       1.200  -0.176   0.440  0.00  0.00    +0.147 C 
ATOM     20  S   UNL     1       2.440  -1.335   0.664  0.00  0.00    -0.017 S 
BRANCH  19  21
ATOM     21  N   UNL     1       1.505   1.137   0.394  0.00  0.00    -0.339 N 
ATOM     22  H   UNL     1       0.802   1.793   0.267  0.00  0.00    +0.144 HD
ATOM     23  H   UNL     1       2.427   1.424   0.487  0.00  0.00    +0.144 HD
ENDBRANCH  19  21
ENDBRANCH  17  19
ENDBRANCH  15  17
ENDBRANCH   1  14
BRANCH   1  24
ATOM     24  C   UNL     1      -2.810   2.420  -0.098  0.00  0.00    -0.060 C 
BRANCH  24  25
ATOM     25  N   UNL     1      -3.920   3.397  -0.115  0.00  0.00    +0.381 N 
ATOM     26  H   UNL     1      -4.750   2.952  -0.524  0.00  0.00    -0.082 HD
BRANCH  25  27
ATOM     27  C   UNL     1      -4.235   3.826   1.264  0.00  0.00    -0.076 C 
BRANCH  27  28
ATOM     28  C   UNL     1      -4.874   2.654   2.011  0.00  0.00    -0.034 C 
ATOM     29  C   UNL     1      -5.104   3.045   3.472  0.00  0.00    +0.005 C 
ATOM     30  C   UNL     1      -6.214   2.304   1.360  0.00  0.00    +0.005 C 
ENDBRANCH  27  28
ENDBRANCH  25  27
BRANCH  25  31
ATOM     31  C   UNL     1      -3.549   4.568  -0.937  0.00  0.00    -0.076 C 
BRANCH  31  32
ATOM     32  C   UNL     1      -4.784   5.452  -1.121  0.00  0.00    -0.034 C 
ATOM     33  C   UNL     1      -4.402   6.704  -1.913  0.00  0.00    +0.005 C 
ATOM     34  C   UNL     1      -5.859   4.675  -1.883  0.00  0.00    +0.005 C 
ENDBRANCH  31  32
ENDBRANCH  25  31
ENDBRANCH  24  25
ENDBRANCH   1  24
TORSDOF 12
