REMARK  Name = ZINC42374009
REMARK  3 active torsions:
REMARK  status: ('A' for Active; 'I' for Inactive)
REMARK    1  A    between atoms: C_5  and  C_6
REMARK    2  A    between atoms: C_6  and  C_8
REMARK    3  A    between atoms: C_6  and  N_11
REMARK                            x       y       z     vdW  Elec       q    Type
REMARK                         _______ _______ _______ _____ _____    ______ ____
ROOT
ATOM      1  C   UNL     1      -1.156  -0.969   0.009  0.00  0.00    +0.180 C 
ENDROOT
BRANCH   1   2
ATOM      2  N   UNL     1      -1.634  -1.932  -0.992  0.00  0.00    -0.289 NA
ATOM      3  C   UNL     1      -1.186  -1.550  -2.353  0.00  0.00    +0.083 C 
ATOM      4  C   UNL     1      -1.161  -2.788  -3.213  0.00  0.00    -0.004 C 
ATOM      5  C   UNL     1      -2.478  -3.007  -3.975  0.00  0.00    -0.081 C 
ATOM      6  N   UNL     1      -3.671  -2.732  -3.142  0.00  0.00    +0.380 N 
ATOM      7  C   UNL     1      -3.530  -3.248  -1.799  0.00  0.00    -0.067 C 
ATOM      8  C   UNL     1      -3.017  -2.114  -0.892  0.00  0.00    +0.066 C 
ATOM      9  H   UNL     1      -3.816  -1.735  -3.096  0.00  0.00    -0.086 HD
ATOM     10  H   UNL     1      -4.476  -3.160  -3.574  0.00  0.00    -0.086 HD
ENDBRANCH   1   2
BRANCH   1  15
ATOM     11  C   UNL     1       1.068   0.347  -0.049  0.00  0.00    +0.014 A 
ATOM     12  C   UNL     1       2.438   0.275  -0.222  0.00  0.00    +0.023 A 
ATOM     13  C   UNL     1       3.005  -0.930  -0.477  0.00  0.00    +0.055 A 
ATOM     14  S   UNL     1       1.586  -2.014  -0.479  0.00  0.00    -0.084 S 
ATOM     15  C   UNL     1       0.333  -0.788  -0.140  0.00  0.00    +0.017 A 
ATOM     16 BR   UNL     1       4.827  -1.353  -0.758  0.00  0.00    -0.043 Br
ENDBRANCH   1  15
BRANCH   1  17
ATOM     17  C   UNL     1      -1.464  -1.486   1.390  0.00  0.00    +0.233 C 
ATOM     18  O   UNL     1      -1.547  -2.680   1.586  0.00  0.00    -0.274 OA
ATOM     19  N   UNL     1      -1.647  -0.621   2.408  0.00  0.00    -0.328 N 
ATOM     20  H   UNL     1      -1.580   0.334   2.251  0.00  0.00    +0.145 HD
ATOM     21  H   UNL     1      -1.845  -0.954   3.297  0.00  0.00    +0.145 HD
ENDBRANCH   1  17
TORSDOF 3
