REMARK  Name = ZINC64612350
REMARK  6 active torsions:
REMARK  status: ('A' for Active; 'I' for Inactive)
REMARK    1  A    between atoms: C_1  and  C_2
REMARK    2  A    between atoms: C_7  and  N_8
REMARK    3  A    between atoms: C_9  and  C_11
REMARK    4  A    between atoms: N_14  and  C_17
REMARK    5  A    between atoms: C_18  and  C_27
REMARK    6  A    between atoms: C_23  and  C_26
REMARK                            x       y       z     vdW  Elec       q    Type
REMARK                         _______ _______ _______ _____ _____    ______ ____
ROOT
ATOM      1  C   UNL     1       0.306  -1.526   5.464  0.00  0.00    +0.078 C 
ATOM      2  C   UNL     1       1.372  -0.428   5.424  0.00  0.00    +0.031 C 
ATOM      3  C   UNL     1       1.096   0.587   6.537  0.00  0.00    +0.106 C 
ATOM      4  N   UNL     1       1.013  -0.127   7.819  0.00  0.00    -0.329 N 
ATOM      5  C   UNL     1       0.084  -1.259   7.938  0.00  0.00    +0.106 C 
ATOM      6  C   UNL     1       0.371  -2.253   6.809  0.00  0.00    +0.031 C 
ENDROOT
BRANCH   4   7
ATOM      7  C   UNL     1       1.793   0.258   8.889  0.00  0.00    +0.055 A 
ATOM      8  C   UNL     1       3.129  -0.157   8.990  0.00  0.00    +0.074 A 
ATOM      9  C   UNL     1       3.905   0.244  10.085  0.00  0.00    +0.098 A 
ATOM     10  N   UNL     1       3.390   1.009  11.024  0.00  0.00    -0.353 N 
ATOM     11  C   UNL     1       2.141   1.422  10.972  0.00  0.00    +0.107 A 
ATOM     12  C   UNL     1       1.265   1.087   9.913  0.00  0.00    +0.050 A 
ATOM     13  C   UNL     1      -0.016   1.646  10.066  0.00  0.00    +0.058 A 
ATOM     14  N   UNL     1      -0.297   2.388  11.092  0.00  0.00    -0.213 NA
ATOM     15  S   UNL     1       1.108   2.429  12.006  0.00  0.00    +0.030 S 
ATOM     16  C   UNL     1      -1.073   1.381   9.025  0.00  0.00    +0.067 C 
ATOM     17  H   UNL     1       3.945   1.274  11.774  0.00  0.00    +0.166 HD
BRANCH   8  18
ATOM     18  C   UNL     1       3.715  -1.014   7.946  0.00  0.00    +0.250 C 
ATOM     19  O   UNL     1       3.139  -2.026   7.595  0.00  0.00    -0.270 OA
ATOM     20  N   UNL     1       4.890  -0.676   7.379  0.00  0.00    -0.297 N 
ATOM     21  C   UNL     1       5.742   0.454   7.779  0.00  0.00    +0.108 C 
ATOM     22  C   UNL     1       6.963   0.463   6.836  0.00  0.00    +0.020 C 
ATOM     23  C   UNL     1       6.452  -0.319   5.598  0.00  0.00    +0.020 C 
ATOM     24  C   UNL     1       5.538  -1.383   6.259  0.00  0.00    +0.108 C 
ENDBRANCH   8  18
ENDBRANCH   4   7
BRANCH   1  26
ATOM     25  N   UNL     1       0.544  -2.090   3.067  0.00  0.00    -0.285 N 
ATOM     26  C   UNL     1       0.554  -2.508   4.349  0.00  0.00    +0.220 C 
ATOM     27  O   UNL     1       0.762  -3.675   4.604  0.00  0.00    -0.275 OA
ATOM     28  H   UNL     1       0.433  -1.147   2.866  0.00  0.00    +0.155 HD
BRANCH  25  35
ATOM     29  C   UNL     1      -0.772  -1.566   0.600  0.00  0.00    +0.046 C 
ATOM     30  C   UNL     1       0.070  -2.798   0.808  0.00  0.00    -0.028 A 
ATOM     31  C   UNL     1       0.225  -3.710  -0.218  0.00  0.00    +0.025 A 
ATOM     32  C   UNL     1       0.999  -4.841  -0.029  0.00  0.00    +0.041 A 
ATOM     33  C   UNL     1       1.619  -5.063   1.189  0.00  0.00    +0.022 A 
ATOM     34  C   UNL     1       1.467  -4.154   2.218  0.00  0.00    +0.025 A 
ATOM     35  C   UNL     1       0.696  -3.015   2.028  0.00  0.00    +0.036 A 
ATOM     36 CL   UNL     1       1.190  -5.986  -1.319  0.00  0.00    -0.084 Cl
ENDBRANCH  25  35
ENDBRANCH   1  26
TORSDOF 4
