REMARK  Name = ZINC09580329
REMARK  4 active torsions:
REMARK  status: ('A' for Active; 'I' for Inactive)
REMARK    1  A    between atoms: C_8  and  C_12
REMARK    2  A    between atoms: N_14  and  C_15
REMARK    3  A    between atoms: C_19  and  S_21
REMARK    4  A    between atoms: S_21  and  N_24
REMARK                            x       y       z     vdW  Elec       q    Type
REMARK                         _______ _______ _______ _____ _____    ______ ____
ROOT
ATOM      1  C   UNL     1      -0.021   1.394   0.004  0.00  0.00    +0.036 A 
ATOM      2  C   UNL     1       1.169   2.110  -0.002  0.00  0.00    +0.023 A 
ATOM      3  C   UNL     1       1.143   3.491  -0.000  0.00  0.00    +0.004 A 
ATOM      4  C   UNL     1      -0.067   4.161   0.006  0.00  0.00    +0.029 A 
ATOM      5  C   UNL     1      -1.254   3.451   0.011  0.00  0.00    +0.110 A 
ATOM      6  C   UNL     1      -1.234   2.070   0.005  0.00  0.00    +0.052 A 
ENDROOT
BRANCH   1   9
ATOM      7  C   UNL     1      -0.938  -0.695   0.677  0.00  0.00    +0.255 C 
ATOM      8  O   UNL     1      -1.855  -0.105   1.217  0.00  0.00    -0.270 OA
ATOM      9  N   UNL     1       0.002  -0.004   0.002  0.00  0.00    -0.281 N 
ATOM     10  H   UNL     1       0.695  -0.477  -0.485  0.00  0.00    +0.155 HD
BRANCH   7  18
ATOM     11  C   UNL     1       1.294  -6.343  -0.241  0.00  0.00    +0.001 A 
ATOM     12  C   UNL     1       0.305  -7.018   0.462  0.00  0.00    +0.004 A 
ATOM     13  C   UNL     1      -0.724  -6.327   1.065  0.00  0.00    +0.047 A 
ATOM     14  C   UNL     1      -0.779  -4.940   0.971  0.00  0.00    +0.139 A 
ATOM     15  C   UNL     1       0.223  -4.259   0.258  0.00  0.00    +0.018 A 
ATOM     16  C   UNL     1       1.261  -4.983  -0.348  0.00  0.00    +0.011 A 
ATOM     17  C   UNL     1       0.179  -2.846   0.146  0.00  0.00    +0.031 A 
ATOM     18  C   UNL     1      -0.856  -2.162   0.761  0.00  0.00    +0.122 A 
ATOM     19  C   UNL     1      -1.873  -2.927   1.492  0.00  0.00    +0.350 A 
ATOM     20  O   UNL     1      -2.794  -2.347   2.035  0.00  0.00    -0.244 OA
ATOM     21  O   UNL     1      -1.788  -4.266   1.563  0.00  0.00    -0.422 OA
ENDBRANCH   7  18
ENDBRANCH   1   9
BRANCH   5  22
ATOM     22  S   UNL     1      -2.793   4.309   0.019  0.00  0.00    +0.073 S 
ATOM     23  O   UNL     1      -3.752   3.420   0.573  0.00  0.00    -0.150 OA
ATOM     24  O   UNL     1      -2.538   5.595   0.569  0.00  0.00    -0.150 OA
BRANCH  22  25
ATOM     25  N   UNL     1      -3.227   4.549  -1.561  0.00  0.00    -0.205 N 
ATOM     26  C   UNL     1      -3.513   3.475  -2.363  0.00  0.00    +0.088 C 
ATOM     27  C   UNL     1      -3.749   1.126  -2.732  0.00  0.00    +0.113 C 
ATOM     28  C   UNL     1      -2.604   0.924  -3.726  0.00  0.00    +0.021 C 
ATOM     29  C   UNL     1      -2.819   1.767  -4.972  0.00  0.00    +0.002 C 
ATOM     30  C   UNL     1      -2.751   3.262  -4.705  0.00  0.00    +0.007 C 
ATOM     31  C   UNL     1      -3.916   3.700  -3.804  0.00  0.00    +0.070 C 
ATOM     32  H   UNL     1      -3.279   5.449  -1.919  0.00  0.00    +0.175 HD
ATOM     33  N   UNL     1      -3.423   2.284  -1.816  0.00  0.00    -0.375 N 
ATOM     34  H   UNL     1      -3.151   2.149  -0.836  0.00  0.00    +0.161 HD
ENDBRANCH  22  25
ENDBRANCH   5  22
TORSDOF 4
