REMARK  Name = ZINC59436909
REMARK  9 active torsions:
REMARK  status: ('A' for Active; 'I' for Inactive)
REMARK    1  A    between atoms: C_1  and  C_2
REMARK    2  A    between atoms: C_5  and  S_8
REMARK    3  A    between atoms: S_8  and  N_11
REMARK    4  A    between atoms: N_11  and  C_12
REMARK    5  A    between atoms: N_11  and  C_26
REMARK    6  A    between atoms: C_12  and  C_13
REMARK    7  A    between atoms: N_15  and  N_16
REMARK    8  A    between atoms: C_17  and  C_18
REMARK    9  A    between atoms: C_17  and  C_19
REMARK                            x       y       z     vdW  Elec       q    Type
REMARK                         _______ _______ _______ _____ _____    ______ ____
ROOT
ATOM      1  N   UNL     1       1.651  -4.999  -0.034  0.00  0.00    -0.194 N 
ENDROOT
BRANCH   1   2
ATOM      2  C   UNL     1       2.284  -5.292  -1.245  0.00  0.00    +0.052 A 
ATOM      3  C   UNL     1       3.515  -4.721  -1.542  0.00  0.00    +0.026 A 
ATOM      4  C   UNL     1       4.139  -5.012  -2.739  0.00  0.00    +0.017 A 
ATOM      5  C   UNL     1       3.539  -5.871  -3.643  0.00  0.00    +0.018 A 
ATOM      6  C   UNL     1       2.312  -6.441  -3.350  0.00  0.00    +0.017 A 
ATOM      7  C   UNL     1       1.687  -6.159  -2.151  0.00  0.00    +0.026 A 
ATOM      8 BR   UNL     1       4.395  -6.266  -5.282  0.00  0.00    -0.050 Br
ENDBRANCH   1   2
BRANCH   1   9
ATOM      9  S   UNL     1       0.149  -4.301  -0.033  0.00  0.00    +0.075 S 
ATOM     10  O   UNL     1      -0.501  -4.738   1.152  0.00  0.00    -0.150 OA
ATOM     11  O   UNL     1      -0.399  -4.515  -1.326  0.00  0.00    -0.150 OA
BRANCH   9  16
ATOM     12  C   UNL     1       0.949   1.653   0.535  0.00  0.00    +0.044 C 
ATOM     13  C   UNL     1       0.749   0.166   0.393  0.00  0.00    -0.050 A 
ATOM     14  C   UNL     1       0.708  -0.409  -0.863  0.00  0.00    +0.005 A 
ATOM     15  C   UNL     1       0.525  -1.773  -0.993  0.00  0.00    +0.029 A 
ATOM     16  C   UNL     1       0.384  -2.562   0.133  0.00  0.00    +0.109 A 
ATOM     17  C   UNL     1       0.426  -1.988   1.389  0.00  0.00    +0.029 A 
ATOM     18  C   UNL     1       0.614  -0.624   1.520  0.00  0.00    +0.005 A 
ENDBRANCH   9  16
ENDBRANCH   1   9
BRANCH   1  19
ATOM     19  C   UNL     1       2.315  -5.311   1.234  0.00  0.00    +0.228 C 
BRANCH  19  20
ATOM     20  C   UNL     1       2.043  -6.746   1.604  0.00  0.00    +0.251 C 
ATOM     21  O   UNL     1       1.361  -7.441   0.880  0.00  0.00    -0.272 OA
ATOM     22  N   UNL     1       2.557  -7.258   2.740  0.00  0.00    -0.205 N 
ATOM     23  H   UNL     1       3.102  -6.702   3.319  0.00  0.00    +0.177 HD
BRANCH  22  24
ATOM     24  N   UNL     1       2.304  -8.592   3.085  0.00  0.00    -0.185 NA
ATOM     25  C   UNL     1       2.799  -9.085   4.178  0.00  0.00    +0.063 C 
ATOM     26  C   UNL     1       3.646  -8.222   5.078  0.00  0.00    +0.068 C 
BRANCH  25  27
ATOM     27  C   UNL     1       2.533 -10.489   4.541  0.00  0.00    -0.002 A 
ATOM     28  C   UNL     1       3.059 -11.021   5.721  0.00  0.00    +0.012 A 
ATOM     29  C   UNL     1       2.807 -12.335   6.054  0.00  0.00    +0.039 A 
ATOM     30  C   UNL     1       2.032 -13.127   5.222  0.00  0.00    +0.123 A 
ATOM     31  C   UNL     1       1.507 -12.605   4.050  0.00  0.00    +0.039 A 
ATOM     32  C   UNL     1       1.748 -11.291   3.709  0.00  0.00    +0.012 A 
ATOM     33  F   UNL     1       1.789 -14.414   5.554  0.00  0.00    -0.205 F 
ENDBRANCH  25  27
ENDBRANCH  22  24
ENDBRANCH  19  20
ENDBRANCH   1  19
TORSDOF 7
