REMARK  Name = ZINC53255735
REMARK  8 active torsions:
REMARK  status: ('A' for Active; 'I' for Inactive)
REMARK    1  A    between atoms: C_1  and  O_2
REMARK    2  A    between atoms: O_2  and  C_3
REMARK    3  A    between atoms: C_3  and  C_4
REMARK    4  A    between atoms: C_4  and  N_5
REMARK    5  A    between atoms: N_5  and  C_6
REMARK    6  A    between atoms: C_6  and  C_8
REMARK    7  A    between atoms: C_6  and  C_10
REMARK    8  A    between atoms: C_8  and  N_9
REMARK                            x       y       z     vdW  Elec       q    Type
REMARK                         _______ _______ _______ _____ _____    ______ ____
ROOT
ATOM      1  C   UNL     1      -0.449  -4.272   1.279  0.00  0.00    +0.103 C 
ENDROOT
BRANCH   1   2
ATOM      2  C   UNL     1      -0.563  -4.805   2.684  0.00  0.00    +0.123 A 
ATOM      3  C   UNL     1      -1.051  -6.010   3.030  0.00  0.00    +0.062 A 
ATOM      4  C   UNL     1      -0.973  -6.093   4.440  0.00  0.00    +0.070 A 
ATOM      5  C   UNL     1      -0.441  -4.934   4.871  0.00  0.00    +0.184 A 
ATOM      6  O   UNL     1      -0.191  -4.160   3.801  0.00  0.00    -0.450 OA
ATOM      7 BR   UNL     1      -0.098  -4.475   6.673  0.00  0.00    -0.007 Br
ATOM      8 BR   UNL     1      -1.512  -7.554   5.514  0.00  0.00    -0.046 Br
ENDBRANCH   1   2
BRANCH   1   9
ATOM      9  N   UNL     1      -0.805  -2.847   1.265  0.00  0.00    -0.306 NA
ATOM     10  H   UNL     1      -0.309  -2.358   0.535  0.00  0.00    +0.123 HD
BRANCH   9  11
ATOM     11  C   UNL     1      -2.256  -2.669   1.127  0.00  0.00    +0.109 C 
BRANCH  11  12
ATOM     12  C   UNL     1      -2.602  -1.183   1.249  0.00  0.00    +0.174 C 
BRANCH  12  14
ATOM     13  C   UNL     1      -2.291   0.936   0.173  0.00  0.00    +0.194 C 
ATOM     14  O   UNL     1      -2.027  -0.469   0.153  0.00  0.00    -0.382 OA
ENDBRANCH  12  14
ENDBRANCH  11  12
ENDBRANCH   9  11
ENDBRANCH   1   9
BRANCH   1  15
ATOM     15  C   UNL     1       0.989  -4.444   0.784  0.00  0.00    -0.060 C 
BRANCH  15  16
ATOM     16  N   UNL     1       1.113  -3.880  -0.567  0.00  0.00    +0.379 N 
ATOM     17  H   UNL     1       2.028  -4.091  -0.937  0.00  0.00    -0.090 HD
ATOM     18  H   UNL     1       0.407  -4.284  -1.165  0.00  0.00    -0.090 HD
ATOM     19  H   UNL     1       0.988  -2.880  -0.527  0.00  0.00    -0.090 HD
ENDBRANCH  15  16
ENDBRANCH   1  15
TORSDOF 7
