REMARK  Name = ZINC37261790
REMARK  10 active torsions:
REMARK  status: ('A' for Active; 'I' for Inactive)
REMARK    1  A    between atoms: C_1  and  C_2
REMARK    2  A    between atoms: C_2  and  C_3
REMARK    3  A    between atoms: C_3  and  O_4
REMARK    4  A    between atoms: O_4  and  C_5
REMARK    5  A    between atoms: C_10  and  C_11
REMARK    6  A    between atoms: C_11  and  N_12
REMARK    7  A    between atoms: N_12  and  C_13
REMARK    8  A    between atoms: C_13  and  C_14
REMARK    9  A    between atoms: C_14  and  S_15
REMARK   10  A    between atoms: S_15  and  N_18
REMARK                            x       y       z     vdW  Elec       q    Type
REMARK                         _______ _______ _______ _____ _____    ______ ____
ROOT
ATOM      1  C   UNL     1       0.787  -4.750  -1.299  0.00  0.00    -0.043 C 
ENDROOT
BRANCH   1   7
ATOM      2  C   UNL     1       1.341  -2.529  -2.322  0.00  0.00    +0.122 A 
ATOM      3  C   UNL     1       1.909  -1.761  -3.329  0.00  0.00    +0.047 A 
ATOM      4  C   UNL     1       2.522  -2.376  -4.403  0.00  0.00    +0.019 A 
ATOM      5  C   UNL     1       2.570  -3.757  -4.476  0.00  0.00    +0.018 A 
ATOM      6  C   UNL     1       2.005  -4.525  -3.474  0.00  0.00    +0.020 A 
ATOM      7  C   UNL     1       1.396  -3.913  -2.394  0.00  0.00    -0.022 A 
ATOM      8 BR   UNL     1       3.410  -4.596  -5.948  0.00  0.00    -0.050 Br
BRANCH   2   9
ATOM      9  O   UNL     1       0.738  -1.926  -1.265  0.00  0.00    -0.492 OA
BRANCH   9  10
ATOM     10  C   UNL     1       0.718  -0.497  -1.257  0.00  0.00    +0.229 C 
BRANCH  10  12
ATOM     11  C   UNL     1      -0.019   1.526   0.010  0.00  0.00    +0.007 C 
ATOM     12  C   UNL     1       0.002  -0.004   0.002  0.00  0.00    +0.038 C 
ENDBRANCH  10  12
ENDBRANCH   9  10
ENDBRANCH   2   9
ENDBRANCH   1   7
BRANCH   1  13
ATOM     13  N   UNL     1      -0.666  -4.835  -1.498  0.00  0.00    +0.383 N 
ATOM     14  H   UNL     1      -1.063  -3.907  -1.473  0.00  0.00    -0.085 HD
ATOM     15  H   UNL     1      -0.859  -5.259  -2.392  0.00  0.00    -0.085 HD
BRANCH  13  16
ATOM     16  C   UNL     1      -1.260  -5.650  -0.430  0.00  0.00    -0.058 C 
BRANCH  16  17
ATOM     17  C   UNL     1      -2.773  -5.738  -0.637  0.00  0.00    +0.166 C 
BRANCH  17  18
ATOM     18  S   UNL     1      -3.506  -6.745   0.681  0.00  0.00    +0.025 S 
ATOM     19  O   UNL     1      -3.093  -8.098   0.551  0.00  0.00    -0.158 OA
ATOM     20  O   UNL     1      -3.400  -6.072   1.928  0.00  0.00    -0.158 OA
BRANCH  18  21
ATOM     21  N   UNL     1      -5.129  -6.764   0.350  0.00  0.00    -0.208 NA
ATOM     22  H   UNL     1      -5.667  -7.530   0.604  0.00  0.00    +0.144 HD
ATOM     23  H   UNL     1      -5.541  -6.010  -0.099  0.00  0.00    +0.144 HD
ENDBRANCH  18  21
ENDBRANCH  17  18
ENDBRANCH  16  17
ENDBRANCH  13  16
ENDBRANCH   1  13
TORSDOF 9
