REMARK  Name = ZINC20832807
REMARK  15 active torsions:
REMARK  status: ('A' for Active; 'I' for Inactive)
REMARK    1  A    between atoms: C_1  and  C_2
REMARK    2  A    between atoms: C_2  and  N_3
REMARK    3  A    between atoms: N_3  and  C_4
REMARK    4  A    between atoms: N_3  and  C_6
REMARK    5  A    between atoms: C_4  and  C_5
REMARK    6  A    between atoms: C_9  and  C_12
REMARK    7  A    between atoms: N_13  and  N_14
REMARK    8  A    between atoms: C_17  and  S_20
REMARK    9  A    between atoms: S_20  and  C_21
REMARK   10  A    between atoms: C_21  and  C_22
REMARK   11  A    between atoms: N_24  and  C_25
REMARK   12  A    between atoms: C_27  and  C_33
REMARK   13  A    between atoms: C_27  and  C_34
REMARK   14  A    between atoms: C_29  and  C_31
REMARK   15  A    between atoms: C_29  and  C_32
REMARK                            x       y       z     vdW  Elec       q    Type
REMARK                         _______ _______ _______ _____ _____    ______ ____
ROOT
ATOM      1  N   UNL     1      -4.837   0.930   0.030  0.00  0.00    -0.205 N 
ATOM      2  C   UNL     1      -6.046   1.610   0.040  0.00  0.00    +0.232 A 
ATOM      3  N   UNL     1      -7.289   1.040   0.042  0.00  0.00    -0.186 NA
ATOM      4  C   UNL     1      -8.215   2.044   0.053  0.00  0.00    +0.211 A 
ATOM      5  N   UNL     1      -7.572   3.188   0.056  0.00  0.00    -0.144 NA
ATOM      6  N   UNL     1      -6.198   2.912   0.053  0.00  0.00    -0.245 N 
ATOM      7  H   UNL     1      -4.825  -0.170   0.024  0.00  0.00    +0.177 HD
ATOM      8  H   UNL     1      -5.316   3.568   0.060  0.00  0.00    +0.192 HD
ENDROOT
BRANCH   1  10
ATOM      9  C   UNL     1      -2.500   1.008   0.019  0.00  0.00    +0.138 C 
ATOM     10  N   UNL     1      -3.632   1.644   0.028  0.00  0.00    -0.188 NA
BRANCH   9  14
ATOM     11  C   UNL     1       1.153   3.172   0.008  0.00  0.00    +0.030 A 
ATOM     12  C   UNL     1       1.171   1.782   0.001  0.00  0.00    +0.024 A 
ATOM     13  C   UNL     1      -0.013   1.076   0.008  0.00  0.00    +0.011 A 
ATOM     14  C   UNL     1      -1.232   1.759   0.017  0.00  0.00    -0.005 A 
ATOM     15  C   UNL     1      -1.246   3.157   0.031  0.00  0.00    +0.011 A 
ATOM     16  C   UNL     1      -0.059   3.856   0.023  0.00  0.00    +0.024 A 
BRANCH  11  17
ATOM     17  N   UNL     1       2.353   3.884  -0.001  0.00  0.00    -0.330 N 
BRANCH  17  19
ATOM     18  C   UNL     1       2.345   5.851   1.452  0.00  0.00    +0.024 C 
ATOM     19  C   UNL     1       2.337   5.349   0.007  0.00  0.00    +0.102 C 
ENDBRANCH  17  19
BRANCH  17  20
ATOM     20  C   UNL     1       3.630   3.166  -0.018  0.00  0.00    +0.102 C 
ATOM     21  C   UNL     1       4.060   2.923  -1.466  0.00  0.00    +0.024 C 
ENDBRANCH  17  20
ENDBRANCH  11  17
ENDBRANCH   9  14
ENDBRANCH   1  10
BRANCH   4  22
ATOM     22  S   UNL     1      -9.965   1.840   0.060  0.00  0.00    -0.075 S 
BRANCH  22  23
ATOM     23  C   UNL     1     -10.604   3.537   0.073  0.00  0.00    +0.173 C 
BRANCH  23  24
ATOM     24  C   UNL     1     -12.111   3.506   0.081  0.00  0.00    +0.224 C 
ATOM     25  O   UNL     1     -12.696   2.443   0.078  0.00  0.00    -0.275 OA
ATOM     26  N   UNL     1     -12.809   4.659   0.091  0.00  0.00    -0.312 N 
ATOM     27  H   UNL     1     -12.279   5.623   0.093  0.00  0.00    +0.149 HD
BRANCH  26  28
ATOM     28  C   UNL     1     -14.277   4.629   0.098  0.00  0.00    +0.070 C 
ATOM     29  C   UNL     1     -14.786   4.537  -1.340  0.00  0.00    +0.009 C 
ATOM     30  C   UNL     1     -16.312   4.526  -1.365  0.00  0.00    -0.072 C 
ATOM     31  N   UNL     1     -16.898   5.584  -0.568  0.00  0.00    +0.386 N 
ATOM     32  C   UNL     1     -16.331   5.927   0.720  0.00  0.00    -0.072 C 
ATOM     33  C   UNL     1     -14.804   5.923   0.718  0.00  0.00    +0.009 C 
ATOM     34  C   UNL     1     -16.845   4.991   1.819  0.00  0.00    -0.010 C 
ATOM     35  C   UNL     1     -16.791   7.356   1.084  0.00  0.00    -0.010 C 
ATOM     36  C   UNL     1     -16.823   3.150  -0.920  0.00  0.00    -0.010 C 
ATOM     37  C   UNL     1     -16.755   4.726  -2.831  0.00  0.00    -0.010 C 
ATOM     38  H   UNL     1     -16.864   6.529  -1.131  0.00  0.00    -0.084 HD
ATOM     39  H   UNL     1     -17.944   5.332  -0.336  0.00  0.00    -0.084 HD
ENDBRANCH  26  28
ENDBRANCH  23  24
ENDBRANCH  22  23
ENDBRANCH   4  22
TORSDOF 9
