REMARK  Name = ZINC19847949
REMARK  4 active torsions:
REMARK  status: ('A' for Active; 'I' for Inactive)
REMARK    1  A    between atoms: C_4  and  C_18
REMARK    2  A    between atoms: C_5  and  C_7
REMARK    3  A    between atoms: C_7  and  S_8
REMARK    4  A    between atoms: S_8  and  C_9
REMARK                            x       y       z     vdW  Elec       q    Type
REMARK                         _______ _______ _______ _____ _____    ______ ____
ROOT
ATOM      1  C   UNL     1      -5.070  10.659   1.304  0.00  0.00    +0.000 A 
ATOM      2  C   UNL     1      -5.042  11.420   0.149  0.00  0.00    +0.001 A 
ATOM      3  C   UNL     1      -4.691  10.841  -1.053  0.00  0.00    +0.011 A 
ATOM      4  C   UNL     1      -4.365   9.486  -1.103  0.00  0.00    +0.016 A 
ATOM      5  C   UNL     1      -4.396   8.724   0.064  0.00  0.00    -0.027 A 
ATOM      6  C   UNL     1      -4.753   9.313   1.260  0.00  0.00    +0.005 A 
ENDROOT
BRANCH   4   7
ATOM      7  C   UNL     1      -3.989   8.859  -2.391  0.00  0.00    +0.095 C 
ATOM      8  N   UNL     1      -3.574   7.625  -2.417  0.00  0.00    -0.387 N 
ATOM      9  N   UNL     1      -4.078   9.581  -3.561  0.00  0.00    -0.345 N 
ATOM     10  H   UNL     1      -3.295   7.159  -3.374  0.00  0.00    +0.157 HD
ATOM     11  H   UNL     1      -3.799   9.115  -4.517  0.00  0.00    +0.144 HD
ATOM     12  H   UNL     1      -4.428  10.623  -3.538  0.00  0.00    +0.144 HD
ATOM     13  H   UNL     1      -3.503   7.048  -1.483  0.00  0.00    +0.157 HD
ENDBRANCH   4   7
BRANCH   5  14
ATOM     14  C   UNL     1      -4.045   7.259   0.019  0.00  0.00    +0.112 C 
BRANCH  14  15
ATOM     15  S   UNL     1      -2.246   7.067   0.079  0.00  0.00    -0.094 S 
BRANCH  15  16
ATOM     16  C   UNL     1      -2.124   5.310   0.014  0.00  0.00    +0.136 A 
ATOM     17  N   UNL     1      -1.046   4.558   0.024  0.00  0.00    -0.233 NA
ATOM     18  C   UNL     1      -1.103   3.209  -0.032  0.00  0.00    +0.079 A 
ATOM     19  C   UNL     1      -0.029   2.290  -0.028  0.00  0.00    +0.029 A 
ATOM     20  C   UNL     1      -0.262   0.941  -0.089  0.00  0.00    +0.002 A 
ATOM     21  C   UNL     1      -1.550   0.430  -0.159  0.00  0.00    +0.001 A 
ATOM     22  C   UNL     1      -2.624   1.301  -0.171  0.00  0.00    +0.017 A 
ATOM     23  C   UNL     1      -2.400   2.653  -0.103  0.00  0.00    +0.040 A 
ATOM     24  S   UNL     1      -3.434   4.098  -0.084  0.00  0.00    -0.061 S 
ENDBRANCH  15  16
ENDBRANCH  14  15
ENDBRANCH   5  14
TORSDOF 4
