REMARK  Name = ZINC63195391
REMARK  7 active torsions:
REMARK  status: ('A' for Active; 'I' for Inactive)
REMARK    1  A    between atoms: C_1  and  C_2
REMARK    2  A    between atoms: C_2  and  C_4
REMARK    3  A    between atoms: C_2  and  N_21
REMARK    4  A    between atoms: N_10  and  C_11
REMARK    5  A    between atoms: C_11  and  C_12
REMARK    6  A    between atoms: N_17  and  C_18
REMARK    7  A    between atoms: C_18  and  C_19
REMARK                            x       y       z     vdW  Elec       q    Type
REMARK                         _______ _______ _______ _____ _____    ______ ____
ROOT
ATOM      1  C   UNL     1       0.715  -0.404   1.277  0.00  0.00    +0.042 C 
ATOM      2  C   UNL     1       0.853  -1.927   1.338  0.00  0.00    +0.017 C 
ATOM      3  C   UNL     1       1.564  -2.319   2.636  0.00  0.00    +0.003 C 
ATOM      4  C   UNL     1       2.929  -1.626   2.690  0.00  0.00    +0.015 C 
ATOM      5  C   UNL     1       2.731  -0.112   2.590  0.00  0.00    +0.085 C 
ATOM      6  N   UNL     1       2.047   0.211   1.331  0.00  0.00    -0.293 NA
ENDROOT
BRANCH   1   8
ATOM      7  C   UNL     1      -1.345  -0.688  -0.108  0.00  0.00    -0.013 C 
ATOM      8  C   UNL     1       0.022  -0.007  -0.029  0.00  0.00    -0.061 C 
BRANCH   8   9
ATOM      9  N   UNL     1       0.847  -0.429  -1.169  0.00  0.00    +0.381 N 
ATOM     10  H   UNL     1       0.390  -0.168  -2.029  0.00  0.00    -0.090 HD
ATOM     11  H   UNL     1       1.749   0.020  -1.116  0.00  0.00    -0.090 HD
ATOM     12  H   UNL     1       0.968  -1.431  -1.143  0.00  0.00    -0.090 HD
ENDBRANCH   8   9
ENDBRANCH   1   8
BRANCH   6  13
ATOM     13  C   UNL     1       1.964   1.665   1.136  0.00  0.00    +0.181 C 
BRANCH  13  14
ATOM     14  C   UNL     1       3.331   2.207   0.809  0.00  0.00    +0.234 C 
ATOM     15  O   UNL     1       4.281   1.457   0.746  0.00  0.00    -0.274 OA
ATOM     16  N   UNL     1       3.498   3.526   0.588  0.00  0.00    -0.239 N 
ATOM     17  C   UNL     1       4.721   4.012   0.296  0.00  0.00    +0.306 C 
ATOM     18  O   UNL     1       5.673   3.260   0.233  0.00  0.00    -0.252 OA
ATOM     19  N   UNL     1       4.887   5.331   0.075  0.00  0.00    -0.296 N 
ATOM     20  H   UNL     1       2.737   4.127   0.639  0.00  0.00    +0.159 HD
ATOM     21  H   UNL     1       4.127   5.931   0.126  0.00  0.00    +0.151 HD
BRANCH  19  22
ATOM     22  C   UNL     1       6.217   5.858  -0.242  0.00  0.00    +0.132 C 
BRANCH  22  23
ATOM     23  C   UNL     1       6.131   7.349  -0.442  0.00  0.00    -0.016 C 
ATOM     24  C   UNL     1       6.897   8.149   0.257  0.00  0.00    +0.005 C 
ENDBRANCH  22  23
ENDBRANCH  19  22
ENDBRANCH  13  14
ENDBRANCH   6  13
TORSDOF 6
