REMARK  Name = ZINC35697633
REMARK  12 active torsions:
REMARK  status: ('A' for Active; 'I' for Inactive)
REMARK    1  A    between atoms: C_1  and  C_2
REMARK    2  A    between atoms: C_3  and  C_33
REMARK    3  A    between atoms: C_4  and  C_23
REMARK    4  A    between atoms: C_7  and  C_12
REMARK    5  A    between atoms: C_13  and  N_15
REMARK    6  A    between atoms: N_15  and  C_16
REMARK    7  A    between atoms: C_25  and  O_31
REMARK    8  A    between atoms: C_27  and  O_29
REMARK    9  A    between atoms: O_29  and  C_30
REMARK   10  A    between atoms: O_31  and  C_32
REMARK   11  A    between atoms: C_33  and  O_35
REMARK   12  A    between atoms: O_35  and  C_36
REMARK                            x       y       z     vdW  Elec       q    Type
REMARK                         _______ _______ _______ _____ _____    ______ ____
ROOT
ATOM      1  C   UNL     1       0.763   1.107  -0.978  0.00  0.00    +0.066 C 
ATOM      2  C   UNL     1       0.344  -0.338  -1.054  0.00  0.00    +0.053 C 
ATOM      3  C   UNL     1      -0.709  -0.788  -0.281  0.00  0.00    +0.082 C 
ATOM      4  C   UNL     1      -1.093  -2.247  -0.393  0.00  0.00    +0.150 C 
ATOM      5  N   UNL     1      -0.301  -3.085  -1.333  0.00  0.00    -0.267 N 
ATOM      6  C   UNL     1      -0.473  -4.429  -1.594  0.00  0.00    +0.048 C 
ATOM      7  C   UNL     1       0.359  -5.005  -2.490  0.00  0.00    +0.072 C 
ATOM      8  S   UNL     1       1.393  -3.635  -2.967  0.00  0.00    -0.060 S 
ATOM      9  C   UNL     1       0.702  -2.445  -2.006  0.00  0.00    +0.166 C 
ATOM     10  N   UNL     1       0.982  -1.165  -1.866  0.00  0.00    -0.230 NA
ENDROOT
BRANCH   4  11
ATOM     11  C   UNL     1      -0.985  -2.862   0.979  0.00  0.00    -0.015 A 
ATOM     12  C   UNL     1       0.257  -3.047   1.556  0.00  0.00    +0.051 A 
ATOM     13  C   UNL     1       0.359  -3.613   2.818  0.00  0.00    +0.124 A 
ATOM     14  C   UNL     1      -0.786  -3.993   3.501  0.00  0.00    +0.091 A 
ATOM     15  C   UNL     1      -2.031  -3.805   2.921  0.00  0.00    +0.124 A 
ATOM     16  C   UNL     1      -2.128  -3.234   1.660  0.00  0.00    +0.051 A 
BRANCH  15  17
ATOM     17  O   UNL     1      -3.155  -4.177   3.587  0.00  0.00    -0.495 OA
ATOM     18  C   UNL     1      -2.981  -4.754   4.883  0.00  0.00    +0.277 C 
ENDBRANCH  15  17
BRANCH  13  19
ATOM     19  O   UNL     1       1.581  -3.796   3.385  0.00  0.00    -0.495 OA
ATOM     20  C   UNL     1       1.611  -4.384   4.687  0.00  0.00    +0.277 C 
ENDBRANCH  13  19
ENDBRANCH   4  11
BRANCH   6  21
ATOM     21  C   UNL     1      -1.524  -5.207  -0.922  0.00  0.00    +0.091 C 
ATOM     22  C   UNL     1      -1.472  -6.553  -0.925  0.00  0.00    +0.243 C 
ATOM     23  O   UNL     1      -0.359  -7.187  -1.369  0.00  0.00    -0.270 OA
BRANCH  22  24
ATOM     24  N   UNL     1      -2.556  -7.289  -0.476  0.00  0.00    -0.282 N 
ATOM     25  H   UNL     1      -3.310  -6.839  -0.065  0.00  0.00    +0.155 HD
BRANCH  24  26
ATOM     26  C   UNL     1      -2.562  -8.681  -0.615  0.00  0.00    +0.034 A 
ATOM     27  C   UNL     1      -1.377  -9.396  -0.506  0.00  0.00    +0.026 A 
ATOM     28  C   UNL     1      -1.385 -10.770  -0.643  0.00  0.00    +0.040 A 
ATOM     29  C   UNL     1      -2.575 -11.435  -0.890  0.00  0.00    +0.124 A 
ATOM     30  C   UNL     1      -3.758 -10.724  -1.000  0.00  0.00    +0.040 A 
ATOM     31  C   UNL     1      -3.755  -9.350  -0.857  0.00  0.00    +0.026 A 
ATOM     32  F   UNL     1      -2.581 -12.779  -1.024  0.00  0.00    -0.205 F 
ENDBRANCH  24  26
ENDBRANCH  22  24
ENDBRANCH   6  21
BRANCH   3  33
ATOM     33  C   UNL     1      -1.397   0.077   0.579  0.00  0.00    +0.339 C 
ATOM     34  O   UNL     1      -1.070   1.248   0.654  0.00  0.00    -0.245 OA
BRANCH  33  35
ATOM     35  O   UNL     1      -2.423  -0.388   1.325  0.00  0.00    -0.465 OA
ATOM     36  C   UNL     1      -3.080   0.550   2.180  0.00  0.00    +0.280 C 
ENDBRANCH  33  35
ENDBRANCH   3  33
TORSDOF 8
