REMARK  Name = ZINC09445789
REMARK  9 active torsions:
REMARK  status: ('A' for Active; 'I' for Inactive)
REMARK    1  A    between atoms: N_14  and  C_15
REMARK    2  A    between atoms: C_15  and  C_16
REMARK    3  A    between atoms: C_16  and  C_18
REMARK    4  A    between atoms: C_16  and  O_23
REMARK    5  A    between atoms: C_18  and  N_43
REMARK    6  A    between atoms: C_19  and  C_20
REMARK    7  A    between atoms: C_19  and  N_43
REMARK    8  A    between atoms: C_20  and  C_21
REMARK    9  A    between atoms: C_21  and  O_22
REMARK                            x       y       z     vdW  Elec       q    Type
REMARK                         _______ _______ _______ _____ _____    ______ ____
ROOT
ATOM      1  C   UNL     1      -1.236   3.138   0.030  0.00  0.00    +0.017 A 
ATOM      2  C   UNL     1      -0.061   3.857   0.023  0.00  0.00    +0.027 A 
ATOM      3  C   UNL     1       1.162   3.193   0.008  0.00  0.00    +0.050 A 
ATOM      4  C   UNL     1       1.183   1.791   0.000  0.00  0.00    +0.009 A 
ATOM      5  C   UNL     1      -0.013   1.076   0.008  0.00  0.00    +0.026 A 
ATOM      6  C   UNL     1      -1.215   1.751   0.017  0.00  0.00    +0.019 A 
ATOM      7 BR   UNL     1      -2.839   0.783   0.020  0.00  0.00    -0.050 Br
ATOM      8  C   UNL     1       2.603   1.393  -0.016  0.00  0.00    +0.009 A 
ATOM      9  C   UNL     1       3.253   0.162  -0.029  0.00  0.00    +0.026 A 
ATOM     10  C   UNL     1       4.631   0.115  -0.043  0.00  0.00    +0.019 A 
ATOM     11  C   UNL     1       5.370   1.289  -0.044  0.00  0.00    +0.017 A 
ATOM     12  C   UNL     1       4.738   2.514  -0.031  0.00  0.00    +0.027 A 
ATOM     13  C   UNL     1       3.349   2.581  -0.017  0.00  0.00    +0.050 A 
ATOM     14  N   UNL     1       2.469   3.649  -0.002  0.00  0.00    -0.337 N 
ATOM     15 BR   UNL     1       5.517  -1.556  -0.062  0.00  0.00    -0.050 Br
ENDROOT
BRANCH  14  16
ATOM     16  C   UNL     1       2.864   5.060   0.002  0.00  0.00    +0.151 C 
BRANCH  16  17
ATOM     17  C   UNL     1       2.987   5.559  -1.439  0.00  0.00    +0.117 C 
BRANCH  17  18
ATOM     18  O   UNL     1       4.055   4.870  -2.092  0.00  0.00    -0.392 OA
ATOM     19  H   UNL     1       4.917   4.993  -1.673  0.00  0.00    +0.210 HD
ENDBRANCH  17  18
BRANCH  17  20
ATOM     20  C   UNL     1       3.277   7.061  -1.435  0.00  0.00    -0.049 C 
BRANCH  20  21
ATOM     21  N   UNL     1       3.276   7.558  -2.824  0.00  0.00    +0.381 N 
ATOM     22  H   UNL     1       2.356   7.381  -3.246  0.00  0.00    -0.086 HD
ATOM     23  H   UNL     1       3.999   7.064  -3.361  0.00  0.00    -0.086 HD
BRANCH  21  24
ATOM     24  C   UNL     1       3.553   9.006  -2.851  0.00  0.00    -0.080 C 
BRANCH  24  25
ATOM     25  C   UNL     1       3.545   9.492  -4.302  0.00  0.00    +0.009 C 
BRANCH  25  26
ATOM     26  C   UNL     1       3.832  10.994  -4.339  0.00  0.00    +0.154 C 
BRANCH  26  27
ATOM     27  O   UNL     1       3.825  11.447  -5.694  0.00  0.00    -0.395 OA
ATOM     28  H   UNL     1       4.000  12.393  -5.793  0.00  0.00    +0.209 HD
ENDBRANCH  26  27
ENDBRANCH  25  26
ENDBRANCH  24  25
ENDBRANCH  21  24
ENDBRANCH  20  21
ENDBRANCH  17  20
ENDBRANCH  16  17
ENDBRANCH  14  16
TORSDOF 9
