REMARK  Name = ZINC63912338
REMARK  10 active torsions:
REMARK  status: ('A' for Active; 'I' for Inactive)
REMARK    1  A    between atoms: C_4  and  C_7
REMARK    2  A    between atoms: C_7  and  O_8
REMARK    3  A    between atoms: O_8  and  C_9
REMARK    4  A    between atoms: N_11  and  C_12
REMARK    5  A    between atoms: C_12  and  C_14
REMARK    6  A    between atoms: C_12  and  C_24
REMARK    7  A    between atoms: C_14  and  C_15
REMARK    8  A    between atoms: N_26  and  C_27
REMARK    9  A    between atoms: C_27  and  C_28
REMARK   10  A    between atoms: C_28  and  C_29
REMARK                            x       y       z     vdW  Elec       q    Type
REMARK                         _______ _______ _______ _____ _____    ______ ____
ROOT
ATOM      1  C   UNL     1       6.935  -2.559   2.784  0.00  0.00    +0.166 C 
ENDROOT
BRANCH   1   4
ATOM      2  C   UNL     1       5.254  -1.862   1.164  0.00  0.00    +0.401 C 
ATOM      3  O   UNL     1       5.983  -2.261   0.279  0.00  0.00    -0.226 OA
ATOM      4  N   UNL     1       5.638  -1.965   2.452  0.00  0.00    -0.270 N 
ATOM      5  H   UNL     1       5.055  -1.646   3.159  0.00  0.00    +0.153 HD
BRANCH   2   6
ATOM      6  O   UNL     1       4.061  -1.316   0.859  0.00  0.00    -0.446 OA
BRANCH   6   7
ATOM      7  C   UNL     1       3.719  -1.238  -0.526  0.00  0.00    +0.269 C 
BRANCH   7  11
ATOM      8  C   UNL     1      -0.133   0.560  -0.945  0.00  0.00    +0.000 A 
ATOM      9  C   UNL     1       1.002   1.349  -0.942  0.00  0.00    +0.000 A 
ATOM     10  C   UNL     1       2.248   0.767  -0.806  0.00  0.00    +0.007 A 
ATOM     11  C   UNL     1       2.360  -0.604  -0.673  0.00  0.00    -0.010 A 
ATOM     12  C   UNL     1       1.225  -1.393  -0.675  0.00  0.00    +0.007 A 
ATOM     13  C   UNL     1      -0.021  -0.811  -0.812  0.00  0.00    +0.000 A 
ENDBRANCH   7  11
ENDBRANCH   6   7
ENDBRANCH   2   6
ENDBRANCH   1   4
BRANCH   1  14
ATOM     14  C   UNL     1       7.441  -1.970   4.076  0.00  0.00    +0.234 C 
ATOM     15  O   UNL     1       6.783  -1.136   4.661  0.00  0.00    -0.274 OA
ATOM     16  N   UNL     1       8.625  -2.369   4.580  0.00  0.00    -0.313 N 
ATOM     17  H   UNL     1       9.152  -3.036   4.112  0.00  0.00    +0.149 HD
BRANCH  16  18
ATOM     18  C   UNL     1       9.117  -1.797   5.836  0.00  0.00    +0.108 C 
BRANCH  18  19
ATOM     19  C   UNL     1      10.472  -2.417   6.183  0.00  0.00    +0.052 C 
BRANCH  19  20
ATOM     20  C   UNL     1      10.979  -1.828   7.474  0.00  0.00    -0.040 C 
ATOM     21  C   UNL     1      10.836  -2.346   8.715  0.00  0.00    -0.001 A 
ATOM     22  C   UNL     1      10.190  -3.565   9.216  0.00  0.00    +0.010 A 
ATOM     23  C   UNL     1      10.210  -3.821  10.543  0.00  0.00    +0.001 A 
ATOM     24  C   UNL     1      10.830  -2.951  11.452  0.00  0.00    +0.002 A 
ATOM     25  C   UNL     1      11.444  -1.812  11.068  0.00  0.00    +0.026 A 
ATOM     26  C   UNL     1      11.484  -1.445   9.695  0.00  0.00    +0.043 A 
ATOM     27  N   UNL     1      12.008  -0.410   9.083  0.00  0.00    -0.380 N 
ATOM     28  C   UNL     1      11.755  -0.541   7.644  0.00  0.00    +0.144 C 
ATOM     29  H   UNL     1      12.485   0.318   9.510  0.00  0.00    +0.160 HD
ENDBRANCH  19  20
ENDBRANCH  18  19
ENDBRANCH  16  18
ENDBRANCH   1  14
BRANCH   1  30
ATOM     30  C   UNL     1       6.777  -4.072   2.942  0.00  0.00    +0.065 C 
BRANCH  30  31
ATOM     31  C   UNL     1       5.772  -4.363   4.026  0.00  0.00    -0.039 C 
ATOM     32  C   UNL     1       4.450  -4.600   3.867  0.00  0.00    -0.001 A 
ATOM     33  C   UNL     1       3.585  -4.654   2.682  0.00  0.00    +0.010 A 
ATOM     34  C   UNL     1       2.268  -4.918   2.842  0.00  0.00    +0.001 A 
ATOM     35  C   UNL     1       1.710  -5.141   4.109  0.00  0.00    +0.002 A 
ATOM     36  C   UNL     1       2.441  -5.107   5.243  0.00  0.00    +0.026 A 
ATOM     37  C   UNL     1       3.836  -4.838   5.192  0.00  0.00    +0.043 A 
ATOM     38  N   UNL     1       4.744  -4.753   6.135  0.00  0.00    -0.380 N 
ATOM     39  C   UNL     1       6.038  -4.456   5.512  0.00  0.00    +0.144 C 
ATOM     40  H   UNL     1       4.586  -4.870   7.085  0.00  0.00    +0.160 HD
ENDBRANCH  30  31
ENDBRANCH   1  30
TORSDOF 10
