REMARK  Name = ZINC19314457
REMARK  8 active torsions:
REMARK  status: ('A' for Active; 'I' for Inactive)
REMARK    1  A    between atoms: C_1  and  C_2
REMARK    2  A    between atoms: C_2  and  C_24
REMARK    3  A    between atoms: N_5  and  C_9
REMARK    4  A    between atoms: C_9  and  C_10
REMARK    5  A    between atoms: N_12  and  C_13
REMARK    6  A    between atoms: C_13  and  C_14
REMARK    7  A    between atoms: N_16  and  C_17
REMARK    8  A    between atoms: C_27  and  C_30
REMARK                            x       y       z     vdW  Elec       q    Type
REMARK                         _______ _______ _______ _____ _____    ______ ____
ROOT
ATOM      1  C   UNL     1       1.018   1.825   7.955  0.00  0.00    +0.047 C 
ATOM      2  C   UNL     1       1.234   1.087   6.632  0.00  0.00    +0.135 C 
ATOM      3  C   UNL     1       0.804   1.951   5.463  0.00  0.00    +0.251 C 
ATOM      4  O   UNL     1       1.262   3.025   5.139  0.00  0.00    -0.272 OA
ATOM      5  N   UNL     1      -0.193   1.275   4.858  0.00  0.00    -0.215 N 
ATOM      6  C   UNL     1      -0.454   0.119   5.479  0.00  0.00    +0.310 C 
ATOM      7  O   UNL     1      -1.314  -0.661   5.121  0.00  0.00    -0.252 OA
ATOM      8  N   UNL     1       0.345  -0.085   6.541  0.00  0.00    -0.281 N 
ATOM      9  H   UNL     1       0.433  -0.899   7.276  0.00  0.00    +0.152 HD
ENDROOT
BRANCH   2  10
ATOM     10  C   UNL     1       2.675   0.673   6.483  0.00  0.00    -0.015 A 
ATOM     11  C   UNL     1       3.563   1.497   5.815  0.00  0.00    +0.007 A 
ATOM     12  C   UNL     1       4.885   1.126   5.680  0.00  0.00    +0.019 A 
ATOM     13  C   UNL     1       5.323  -0.089   6.209  0.00  0.00    +0.052 A 
ATOM     14  C   UNL     1       4.420  -0.918   6.878  0.00  0.00    +0.019 A 
ATOM     15  C   UNL     1       3.103  -0.533   7.011  0.00  0.00    +0.007 A 
BRANCH  13  16
ATOM     16  C   UNL     1       6.692  -0.483   6.067  0.00  0.00    +0.099 C 
ATOM     17  N   UNL     1       7.779  -0.796   5.954  0.00  0.00    -0.191 NA
ENDBRANCH  13  16
ENDBRANCH   2  10
BRANCH   5  18
ATOM     18  C   UNL     1      -0.908   1.751   3.671  0.00  0.00    +0.213 C 
BRANCH  18  19
ATOM     19  C   UNL     1      -0.205   1.260   2.431  0.00  0.00    +0.231 C 
ATOM     20  O   UNL     1       0.795   0.581   2.530  0.00  0.00    -0.274 OA
ATOM     21  N   UNL     1      -0.687   1.578   1.213  0.00  0.00    -0.305 N 
ATOM     22  H   UNL     1      -1.593   2.194   1.124  0.00  0.00    +0.149 HD
BRANCH  21  23
ATOM     23  C   UNL     1      -0.004   1.101   0.008  0.00  0.00    +0.200 C 
BRANCH  23  24
ATOM     24  C   UNL     1      -0.739   1.590  -1.213  0.00  0.00    +0.234 C 
ATOM     25  O   UNL     1      -1.735   2.270  -1.089  0.00  0.00    -0.274 OA
ATOM     26  N   UNL     1      -0.288   1.272  -2.443  0.00  0.00    -0.283 N 
ATOM     27  H   UNL     1       0.655   0.719  -2.557  0.00  0.00    +0.155 HD
BRANCH  26  28
ATOM     28  C   UNL     1      -1.022   1.647  -3.575  0.00  0.00    +0.047 A 
ATOM     29  C   UNL     1      -1.723   2.845  -3.585  0.00  0.00    +0.024 A 
ATOM     30  C   UNL     1      -2.442   3.213  -4.705  0.00  0.00    +0.002 A 
ATOM     31  C   UNL     1      -2.473   2.386  -5.812  0.00  0.00    +0.001 A 
ATOM     32  C   UNL     1      -1.780   1.189  -5.805  0.00  0.00    +0.017 A 
ATOM     33  C   UNL     1      -1.055   0.817  -4.689  0.00  0.00    +0.039 A 
ATOM     34 BR   UNL     1      -0.108  -0.821  -4.678  0.00  0.00    -0.048 Br
ENDBRANCH  26  28
ENDBRANCH  23  24
ENDBRANCH  21  23
ENDBRANCH  18  19
ENDBRANCH   5  18
TORSDOF 7
