REMARK  Name = ZINC35355703
REMARK  9 active torsions:
REMARK  status: ('A' for Active; 'I' for Inactive)
REMARK    1  A    between atoms: C_3  and  N_10
REMARK    2  A    between atoms: C_5  and  N_7
REMARK    3  A    between atoms: C_11  and  C_13
REMARK    4  A    between atoms: C_13  and  C_14
REMARK    5  A    between atoms: C_14  and  C_16
REMARK    6  A    between atoms: C_14  and  N_19
REMARK    7  A    between atoms: N_19  and  C_20
REMARK    8  A    between atoms: C_20  and  C_21
REMARK    9  A    between atoms: C_21  and  N_22
REMARK                            x       y       z     vdW  Elec       q    Type
REMARK                         _______ _______ _______ _____ _____    ______ ____
ROOT
ATOM      1  C   UNK A   1       4.567   5.728  -0.329  0.00  0.00    +0.052 C 
ENDROOT
BRANCH   1   2
ATOM      2  C   UNK A   1       5.850   6.479  -0.575  0.00  0.00    +0.343 C 
ATOM      3  O   UNK A   1       6.223   6.691  -1.716  0.00  0.00    -0.248 OA
ATOM      4  O   UNK A   1       6.514   6.875   0.368  0.00  0.00    -0.248 OA
ENDBRANCH   1   2
BRANCH   1   5
ATOM      5  N   UNK A   1       3.965   6.185   0.930  0.00  0.00    +0.389 N 
ATOM      6  H   UNK A   1       3.150   5.626   1.136  0.00  0.00    -0.085 HD
ATOM      7  H   UNK A   1       4.636   6.090   1.678  0.00  0.00    -0.085 HD
BRANCH   5   8
ATOM      8  C   UNK A   0       3.571   7.594   0.801  0.00  0.00    -0.066 C 
BRANCH   8   9
ATOM      9  C   UNK A   0       2.943   8.071   2.112  0.00  0.00    +0.065 C 
BRANCH   9  10
ATOM     10  N   UNK A   0       2.549   9.480   1.983  0.00  0.00    -0.308 NA
ATOM     11  C   UNK A   0       1.463   9.636   1.006  0.00  0.00    +0.065 C 
ATOM     12  C   UNK A   0       1.124  11.120   0.857  0.00  0.00    -0.067 C 
ATOM     13  N   UNK A   0       0.714  11.662   2.159  0.00  0.00    +0.381 N 
ATOM     14  C   UNK A   0       1.818  11.522   3.119  0.00  0.00    -0.067 C 
ATOM     15  C   UNK A   0       2.163  10.040   3.286  0.00  0.00    +0.065 C 
ATOM     16  H   UNK A   0       0.479  12.638   2.059  0.00  0.00    -0.086 HD
ATOM     17  H   UNK A   0      -0.090  11.155   2.496  0.00  0.00    -0.086 HD
ENDBRANCH   9  10
ENDBRANCH   8   9
ENDBRANCH   5   8
ENDBRANCH   1   5
BRANCH   1  18
ATOM     18  C   UNK A   1       4.863   4.229  -0.238  0.00  0.00    +0.091 C 
BRANCH  18  20
ATOM     19  N   UNK A   1       3.584   2.123  -0.021  0.00  0.00    -0.285 N 
ATOM     20  C   UNK A   1       3.569   3.468  -0.116  0.00  0.00    +0.216 C 
ATOM     21  O   UNK A   1       2.513   4.065  -0.103  0.00  0.00    -0.276 OA
ATOM     22  H   UNK A   1       4.429   1.652   0.045  0.00  0.00    +0.155 HD
BRANCH  19  25
ATOM     23  C   UNK A   1       0.112   1.159  -0.752  0.00  0.00    +0.004 A 
ATOM     24  C   UNK A   1       1.298   1.867  -0.756  0.00  0.00    +0.023 A 
ATOM     25  C   UNK A   1       2.381   1.409  -0.019  0.00  0.00    +0.036 A 
ATOM     26  C   UNK A   1       2.269   0.238   0.720  0.00  0.00    +0.056 A 
ATOM     27  C   UNK A   1       1.081  -0.466   0.720  0.00  0.00    +0.128 A 
ATOM     28  C   UNK A   1       0.003  -0.006  -0.015  0.00  0.00    +0.033 A 
BRANCH  27  29
ATOM     29  N   UNK A   1       0.960  -1.713   1.507  0.00  0.00    +0.056 N 
ATOM     30  O   UNK A   1       1.901  -2.116   2.150  0.00  0.00    -0.126 OA
ATOM     31  O   UNK A   1      -0.080  -2.330   1.508  0.00  0.00    -0.126 OA
ENDBRANCH  27  29
ENDBRANCH  19  25
ENDBRANCH  18  20
ENDBRANCH   1  18
TORSDOF 9
