REMARK  Name = ZINC45195580
REMARK  10 active torsions:
REMARK  status: ('A' for Active; 'I' for Inactive)
REMARK    1  A    between atoms: C_4  and  N_7
REMARK    2  A    between atoms: C_8  and  N_29
REMARK    3  A    between atoms: C_9  and  C_27
REMARK    4  A    between atoms: C_10  and  C_12
REMARK    5  A    between atoms: C_12  and  C_13
REMARK    6  A    between atoms: C_13  and  C_14
REMARK    7  A    between atoms: C_14  and  N_15
REMARK    8  A    between atoms: N_18  and  C_19
REMARK    9  A    between atoms: C_19  and  C_20
REMARK   10  A    between atoms: C_20  and  N_21
REMARK                            x       y       z     vdW  Elec       q    Type
REMARK                         _______ _______ _______ _____ _____    ______ ____
ROOT
ATOM      1  C   UNL     1       7.135  -1.030  -1.033  0.00  0.00    +0.060 C 
ENDROOT
BRANCH   1   5
ATOM      2  N   UNL     1       3.623  -0.652  -0.037  0.00  0.00    -0.217 N 
ATOM      3  C   UNL     1       3.881  -1.828   0.579  0.00  0.00    +0.138 A 
ATOM      4  C   UNL     1       5.208  -2.149   0.309  0.00  0.00    +0.114 A 
ATOM      5  C   UNL     1       5.730  -1.109  -0.496  0.00  0.00    +0.083 A 
ATOM      6  N   UNL     1       4.784  -0.235  -0.697  0.00  0.00    -0.168 NA
BRANCH   2  10
ATOM      7  C   UNL     1      -0.017   1.379   0.010  0.00  0.00    +0.000 A 
ATOM      8  C   UNL     1       1.170   2.089   0.002  0.00  0.00    +0.002 A 
ATOM      9  C   UNL     1       2.377   1.419  -0.013  0.00  0.00    +0.028 A 
ATOM     10  C   UNL     1       2.400   0.031  -0.021  0.00  0.00    +0.067 A 
ATOM     11  C   UNL     1       1.207  -0.680  -0.013  0.00  0.00    +0.028 A 
ATOM     12  C   UNL     1       0.002  -0.004   0.002  0.00  0.00    +0.002 A 
ENDBRANCH   2  10
BRANCH   3  13
ATOM     13  N   UNL     1       2.994  -2.571   1.334  0.00  0.00    -0.342 N 
ATOM     14  H   UNL     1       2.085  -2.257   1.462  0.00  0.00    +0.144 HD
ATOM     15  H   UNL     1       3.279  -3.406   1.736  0.00  0.00    +0.144 HD
ENDBRANCH   3  13
BRANCH   4  16
ATOM     16  C   UNL     1       5.912  -3.311   0.762  0.00  0.00    +0.104 C 
ATOM     17  N   UNL     1       6.471  -4.232   1.121  0.00  0.00    -0.191 NA
ENDBRANCH   4  16
ENDBRANCH   1   5
BRANCH   1  18
ATOM     18  C   UNL     1       7.198  -1.714  -2.400  0.00  0.00    +0.025 C 
BRANCH  18  19
ATOM     19  C   UNL     1       8.625  -1.632  -2.946  0.00  0.00    +0.106 C 
BRANCH  19  20
ATOM     20  N   UNL     1       8.685  -2.287  -4.255  0.00  0.00    -0.299 N 
ATOM     21  C   UNL     1       9.851  -2.338  -4.930  0.00  0.00    +0.300 C 
ATOM     22  O   UNL     1      10.852  -1.841  -4.453  0.00  0.00    -0.253 OA
ATOM     23  N   UNL     1       9.906  -2.941  -6.135  0.00  0.00    -0.301 N 
ATOM     24  H   UNL     1       7.887  -2.684  -4.636  0.00  0.00    +0.150 HD
ATOM     25  H   UNL     1       9.107  -3.338  -6.516  0.00  0.00    +0.150 HD
BRANCH  23  26
ATOM     26  C   UNL     1      11.173  -2.997  -6.868  0.00  0.00    +0.087 C 
BRANCH  26  27
ATOM     27  C   UNL     1      10.962  -3.729  -8.195  0.00  0.00    -0.060 C 
BRANCH  27  28
ATOM     28  N   UNL     1      12.233  -3.785  -8.931  0.00  0.00    +0.381 N 
ATOM     29  C   UNL     1      12.648  -2.424  -9.291  0.00  0.00    -0.079 C 
ATOM     30  C   UNL     1      14.010  -2.469  -9.986  0.00  0.00    -0.019 C 
ATOM     31  C   UNL     1      13.903  -3.323 -11.252  0.00  0.00    -0.004 C 
ATOM     32  C   UNL     1      13.398  -4.719 -10.874  0.00  0.00    -0.019 C 
ATOM     33  C   UNL     1      12.058  -4.590 -10.146  0.00  0.00    -0.079 C 
ATOM     34  H   UNL     1      12.940  -4.207  -8.348  0.00  0.00    -0.082 HD
ENDBRANCH  27  28
ENDBRANCH  26  27
ENDBRANCH  23  26
ENDBRANCH  19  20
ENDBRANCH  18  19
ENDBRANCH   1  18
TORSDOF 10
