REMARK  Name = ZINC59170549
REMARK  7 active torsions:
REMARK  status: ('A' for Active; 'I' for Inactive)
REMARK    1  A    between atoms: C_1  and  O_2
REMARK    2  A    between atoms: O_2  and  C_3
REMARK    3  A    between atoms: C_8  and  C_24
REMARK    4  A    between atoms: N_10  and  C_11
REMARK    5  A    between atoms: C_14  and  S_17
REMARK    6  A    between atoms: S_17  and  N_20
REMARK    7  A    between atoms: N_26  and  C_27
REMARK                            x       y       z     vdW  Elec       q    Type
REMARK                         _______ _______ _______ _____ _____    ______ ____
ROOT
ATOM      1  C   UNL     1       0.412  -0.824  -0.878  0.00  0.00    +0.124 A 
ATOM      2  C   UNL     1       1.581  -0.188  -1.294  0.00  0.00    +0.046 A 
ATOM      3  C   UNL     1       2.472  -0.835  -2.097  0.00  0.00    +0.015 A 
ATOM      4  C   UNL     1       2.209  -2.147  -2.519  0.00  0.00    +0.018 A 
ATOM      5  C   UNL     1       3.111  -2.817  -3.384  0.00  0.00    +0.030 A 
ATOM      6  C   UNL     1       2.715  -4.029  -3.933  0.00  0.00    +0.098 A 
ATOM      7  C   UNL     1       1.363  -4.515  -3.597  0.00  0.00    +0.212 A 
ATOM      8  N   UNL     1       0.714  -5.332  -4.399  0.00  0.00    -0.325 N 
ATOM      9  O   UNL     1       0.812  -4.091  -2.430  0.00  0.00    -0.438 OA
ATOM     10  C   UNL     1       1.044  -2.803  -2.076  0.00  0.00    +0.141 A 
ATOM     11  C   UNL     1       0.149  -2.130  -1.262  0.00  0.00    +0.092 A 
ATOM     12  H   UNL     1       1.079  -5.546  -5.272  0.00  0.00    +0.169 HD
ENDROOT
BRANCH   8  13
ATOM     13  C   UNL     1      -0.476  -5.878  -4.003  0.00  0.00    +0.042 A 
ATOM     14  C   UNL     1      -0.612  -6.402  -2.715  0.00  0.00    +0.027 A 
ATOM     15  C   UNL     1      -1.815  -6.951  -2.321  0.00  0.00    +0.030 A 
ATOM     16  C   UNL     1      -2.885  -6.984  -3.199  0.00  0.00    +0.105 A 
ATOM     17  C   UNL     1      -2.756  -6.467  -4.476  0.00  0.00    +0.030 A 
ATOM     18  C   UNL     1      -1.561  -5.909  -4.881  0.00  0.00    +0.027 A 
BRANCH  16  19
ATOM     19  S   UNL     1      -4.417  -7.688  -2.688  0.00  0.00    +0.056 S 
ATOM     20  O   UNL     1      -5.093  -8.091  -3.871  0.00  0.00    -0.153 OA
ATOM     21  O   UNL     1      -4.117  -8.594  -1.635  0.00  0.00    -0.153 OA
BRANCH  19  22
ATOM     22  N   UNL     1      -5.317  -6.468  -2.021  0.00  0.00    -0.204 NA
ATOM     23  H   UNL     1      -4.957  -5.569  -1.975  0.00  0.00    +0.144 HD
ATOM     24  H   UNL     1      -6.204  -6.654  -1.675  0.00  0.00    +0.144 HD
ENDBRANCH  19  22
ENDBRANCH  16  19
ENDBRANCH   8  13
BRANCH   6  25
ATOM     25  C   UNL     1       3.608  -4.798  -4.815  0.00  0.00    +0.253 C 
ATOM     26  O   UNL     1       4.659  -4.313  -5.188  0.00  0.00    -0.270 OA
ATOM     27  N   UNL     1       3.260  -6.039  -5.209  0.00  0.00    -0.281 N 
ATOM     28  H   UNL     1       2.395  -6.401  -4.963  0.00  0.00    +0.155 HD
BRANCH  27  29
ATOM     29  C   UNL     1       4.147  -6.804  -5.973  0.00  0.00    +0.035 A 
ATOM     30  C   UNL     1       5.006  -6.183  -6.872  0.00  0.00    +0.023 A 
ATOM     31  C   UNL     1       5.880  -6.941  -7.625  0.00  0.00    +0.003 A 
ATOM     32  C   UNL     1       5.903  -8.316  -7.486  0.00  0.00    +0.020 A 
ATOM     33  C   UNL     1       5.049  -8.938  -6.593  0.00  0.00    +0.043 A 
ATOM     34  C   UNL     1       4.175  -8.185  -5.831  0.00  0.00    +0.043 A 
ATOM     35 CL   UNL     1       5.079 -10.666  -6.423  0.00  0.00    -0.083 Cl
ENDBRANCH  27  29
ENDBRANCH   6  25
BRANCH   1  37
ATOM     36  C   UNL     1      -0.141   1.181   0.270  0.00  0.00    +0.277 C 
ATOM     37  O   UNL     1      -0.472  -0.163  -0.089  0.00  0.00    -0.495 OA
ENDBRANCH   1  37
TORSDOF 6
