REMARK  Name = ZINC63547137
REMARK  10 active torsions:
REMARK  status: ('A' for Active; 'I' for Inactive)
REMARK    1  A    between atoms: C_1  and  O_2
REMARK    2  A    between atoms: O_2  and  C_3
REMARK    3  A    between atoms: C_9  and  C_12
REMARK    4  A    between atoms: C_12  and  C_13
REMARK    5  A    between atoms: C_13  and  N_14
REMARK    6  A    between atoms: C_15  and  C_17
REMARK    7  A    between atoms: C_23  and  C_29
REMARK    8  A    between atoms: C_25  and  C_26
REMARK    9  A    between atoms: C_34  and  O_35
REMARK   10  A    between atoms: O_35  and  C_36
REMARK                            x       y       z     vdW  Elec       q    Type
REMARK                         _______ _______ _______ _____ _____    ______ ____
ROOT
ATOM      1  C   UNL     1       0.509  -8.532   2.584  0.00  0.00    +0.100 A 
ATOM      2  C   UNL     1       1.106  -9.118   1.454  0.00  0.00    +0.150 A 
ATOM      3  N   UNL     1       1.859 -10.112   1.844  0.00  0.00    -0.172 NA
ATOM      4  N   UNL     1       1.795 -10.229   3.237  0.00  0.00    -0.212 N 
ATOM      5  C   UNL     1       0.965  -9.250   3.708  0.00  0.00    +0.169 A 
ATOM      6  N   UNL     1       0.726  -9.124   5.012  0.00  0.00    -0.227 NA
ATOM      7  C   UNL     1       1.290  -9.943   5.886  0.00  0.00    +0.079 A 
ATOM      8  C   UNL     1       2.155 -10.963   5.437  0.00  0.00    +0.057 A 
ATOM      9  C   UNL     1       2.390 -11.095   4.110  0.00  0.00    +0.112 A 
ENDROOT
BRANCH   7  10
ATOM     10  C   UNL     1       1.014  -9.789   7.332  0.00  0.00    +0.042 A 
ATOM     11  C   UNL     1       1.611 -10.647   8.255  0.00  0.00    +0.013 A 
ATOM     12  C   UNL     1       1.350 -10.498   9.601  0.00  0.00    +0.001 A 
ATOM     13  C   UNL     1       0.496  -9.501  10.040  0.00  0.00    +0.004 A 
ATOM     14  C   UNL     1      -0.102  -8.645   9.136  0.00  0.00    +0.046 A 
ATOM     15  C   UNL     1       0.156  -8.777   7.780  0.00  0.00    +0.129 A 
BRANCH  15  16
ATOM     16  O   UNL     1      -0.426  -7.933   6.890  0.00  0.00    -0.494 OA
ATOM     17  C   UNL     1      -1.289  -6.925   7.421  0.00  0.00    +0.277 C 
ENDBRANCH  15  16
ENDBRANCH   7  10
BRANCH   1  19
ATOM     18  N   UNL     1      -0.759  -6.798   1.434  0.00  0.00    -0.311 N 
ATOM     19  C   UNL     1      -0.408  -7.389   2.593  0.00  0.00    +0.249 C 
ATOM     20  O   UNL     1      -0.853  -6.973   3.647  0.00  0.00    -0.270 OA
ATOM     21  H   UNL     1      -0.405  -7.128   0.594  0.00  0.00    +0.149 HD
BRANCH  18  22
ATOM     22  C   UNL     1      -1.676  -5.655   1.443  0.00  0.00    +0.109 C 
BRANCH  22  23
ATOM     23  C   UNL     1      -1.908  -5.176   0.009  0.00  0.00    +0.052 C 
BRANCH  23  30
ATOM     24  C   UNL     1      -1.200  -0.637   0.010  0.00  0.00    +0.121 A 
ATOM     25  C   UNL     1      -2.375   0.135   0.020  0.00  0.00    +0.047 A 
ATOM     26  C   UNL     1      -3.607  -0.415   0.028  0.00  0.00    +0.029 A 
ATOM     27  C   UNL     1      -3.753  -1.875   0.027  0.00  0.00    +0.043 A 
ATOM     28  N   UNL     1      -4.809  -2.650   0.034  0.00  0.00    -0.380 N 
ATOM     29  C   UNL     1      -4.362  -4.047   0.029  0.00  0.00    +0.144 C 
ATOM     30  C   UNL     1      -2.851  -4.000   0.018  0.00  0.00    -0.040 C 
ATOM     31  C   UNL     1      -2.516  -2.690   0.016  0.00  0.00    +0.002 A 
ATOM     32  C   UNL     1      -1.226  -1.992   0.003  0.00  0.00    +0.055 A 
ATOM     33  H   UNL     1      -5.731  -2.350   0.042  0.00  0.00    +0.160 HD
BRANCH  24  35
ATOM     34  C   UNL     1      -0.017   1.425   0.010  0.00  0.00    +0.277 C 
ATOM     35  O   UNL     1       0.002  -0.004   0.002  0.00  0.00    -0.495 OA
ENDBRANCH  24  35
ENDBRANCH  23  30
ENDBRANCH  22  23
ENDBRANCH  18  22
ENDBRANCH   1  19
BRANCH   9  36
ATOM     36  C   UNL     1       3.311 -12.174   3.603  0.00  0.00    +0.390 C 
ATOM     37  F   UNL     1       3.790 -12.924   4.682  0.00  0.00    -0.202 F 
ATOM     38  F   UNL     1       2.611 -13.011   2.727  0.00  0.00    -0.202 F 
ENDBRANCH   9  36
TORSDOF 8
