REMARK  Name = ZINC03339462
REMARK  5 active torsions:
REMARK  status: ('A' for Active; 'I' for Inactive)
REMARK    1  A    between atoms: C_1  and  C_2
REMARK    2  A    between atoms: C_5  and  N_8
REMARK    3  A    between atoms: N_10  and  N_25
REMARK    4  A    between atoms: C_11  and  C_14
REMARK    5  A    between atoms: N_25  and  C_26
REMARK                            x       y       z     vdW  Elec       q    Type
REMARK                         _______ _______ _______ _____ _____    ______ ____
ROOT
ATOM      1  N   UNL     1       8.342   1.934  -1.533  0.00  0.00    -0.334 N 
ATOM      2  C   UNL     1       7.189   1.359  -1.245  0.00  0.00    +0.169 A 
ATOM      3  N   UNL     1       6.025   1.929  -0.787  0.00  0.00    -0.239 N 
ATOM      4  C   UNL     1       4.947   1.120  -0.552  0.00  0.00    +0.078 A 
ATOM      5  C   UNL     1       5.044  -0.205  -0.782  0.00  0.00    +0.076 A 
ATOM      6  S   UNL     1       6.728  -0.363  -1.353  0.00  0.00    -0.058 S 
ATOM      7  H   UNL     1       8.487   3.006  -1.333  0.00  0.00    +0.168 HD
ENDROOT
BRANCH   4   8
ATOM      8  C   UNL     1       3.679   1.697  -0.054  0.00  0.00    +0.003 A 
ATOM      9  C   UNL     1       3.314   2.996  -0.411  0.00  0.00    +0.014 A 
ATOM     10  C   UNL     1       2.131   3.535   0.052  0.00  0.00    +0.048 A 
ATOM     11  C   UNL     1       1.302   2.788   0.874  0.00  0.00    +0.142 A 
ATOM     12  C   UNL     1       1.662   1.490   1.236  0.00  0.00    +0.076 A 
ATOM     13  C   UNL     1       2.846   0.944   0.775  0.00  0.00    +0.037 A 
ATOM     14  N   UNL     1       0.812   0.750   2.070  0.00  0.00    -0.280 N 
ATOM     15  C   UNL     1      -0.462   1.166   2.242  0.00  0.00    +0.255 C 
ATOM     16  O   UNL     1      -1.208   0.556   2.978  0.00  0.00    -0.272 OA
ATOM     17  C   UNL     1      -0.950   2.396   1.519  0.00  0.00    +0.325 C 
ATOM     18  O   UNL     1       0.133   3.310   1.335  0.00  0.00    -0.481 OA
ATOM     19  H   UNL     1       1.185  -0.155   2.573  0.00  0.00    +0.155 HD
ENDBRANCH   4   8
BRANCH   1  24
ATOM     20  C   UNL     1      12.527  -1.107  -3.790  0.00  0.00    +0.044 C 
ATOM     21  C   UNL     1      11.409  -0.296  -3.187  0.00  0.00    -0.050 A 
ATOM     22  C   UNL     1      10.554   0.416  -4.010  0.00  0.00    +0.005 A 
ATOM     23  C   UNL     1       9.529   1.161  -3.466  0.00  0.00    +0.026 A 
ATOM     24  C   UNL     1       9.355   1.197  -2.080  0.00  0.00    +0.041 A 
ATOM     25  C   UNL     1      10.226   0.480  -1.255  0.00  0.00    +0.026 A 
ATOM     26  C   UNL     1      11.243  -0.265  -1.814  0.00  0.00    +0.005 A 
ENDBRANCH   1  24
BRANCH   3  27
ATOM     27  N   UNL     1       5.946   3.309  -0.561  0.00  0.00    -0.255 N 
ATOM     28  H   UNL     1       5.520   3.689   0.380  0.00  0.00    +0.173 HD
BRANCH  27  29
ATOM     29  C   UNL     1       6.409   4.207  -1.533  0.00  0.00    +0.031 C 
ATOM     30  C   UNL     1       6.804   3.760  -2.714  0.00  0.00    +0.060 C 
ATOM     31  S   UNL     1       7.288   5.204  -3.644  0.00  0.00    -0.131 S 
ATOM     32  C   UNL     1       6.559   6.494  -2.549  0.00  0.00    +0.080 C 
ATOM     33  C   UNL     1       6.463   5.671  -1.238  0.00  0.00    +0.064 C 
ENDBRANCH  27  29
ENDBRANCH   3  27
TORSDOF 4
