REMARK  Name = ZINC12601508
REMARK  8 active torsions:
REMARK  status: ('A' for Active; 'I' for Inactive)
REMARK    1  A    between atoms: C_1  and  C_2
REMARK    2  A    between atoms: C_2  and  C_4
REMARK    3  A    between atoms: C_2  and  N_18
REMARK    4  A    between atoms: C_4  and  C_6
REMARK    5  A    between atoms: C_4  and  N_12
REMARK    6  A    between atoms: C_19  and  C_21
REMARK    7  A    between atoms: C_21  and  N_22
REMARK    8  A    between atoms: C_31  and  C_34
REMARK                            x       y       z     vdW  Elec       q    Type
REMARK                         _______ _______ _______ _____ _____    ______ ____
ROOT
ATOM      1  N   UNL     1       5.128   3.620   1.324  0.00  0.00    -0.312 N 
ATOM      2  C   UNL     1       5.230   4.635   2.205  0.00  0.00    +0.197 C 
ATOM      3  O   UNL     1       4.372   4.795   3.048  0.00  0.00    -0.278 OA
ATOM      4  H   UNL     1       5.906   3.475   0.560  0.00  0.00    +0.149 HD
ENDROOT
BRANCH   1   6
ATOM      5  C   UNL     1       4.242   1.629   2.434  0.00  0.00    +0.030 C 
ATOM      6  C   UNL     1       3.981   2.710   1.384  0.00  0.00    +0.091 C 
BRANCH   6   7
ATOM      7  C   UNL     1       3.779   2.055   0.016  0.00  0.00    +0.107 C 
BRANCH   7   8
ATOM      8  C   UNL     1       2.580   1.143   0.069  0.00  0.00    -0.028 A 
ATOM      9  C   UNL     1       1.307   1.667  -0.057  0.00  0.00    +0.005 A 
ATOM     10  C   UNL     1       0.207   0.831  -0.010  0.00  0.00    +0.000 A 
ATOM     11  C   UNL     1       0.380  -0.529   0.166  0.00  0.00    +0.000 A 
ATOM     12  C   UNL     1       1.653  -1.053   0.294  0.00  0.00    +0.000 A 
ATOM     13  C   UNL     1       2.753  -0.217   0.245  0.00  0.00    +0.005 A 
ENDBRANCH   7   8
BRANCH   7  14
ATOM     14  N   UNL     1       3.559   3.095  -0.998  0.00  0.00    -0.289 NA
ATOM     15  C   UNL     1       4.813   3.434  -1.685  0.00  0.00    +0.113 C 
ATOM     16  C   UNL     1       4.528   4.475  -2.771  0.00  0.00    +0.175 C 
ATOM     17  O   UNL     1       3.910   5.620  -2.176  0.00  0.00    -0.377 OA
ATOM     18  C   UNL     1       2.686   5.326  -1.498  0.00  0.00    +0.175 C 
ATOM     19  C   UNL     1       2.952   4.293  -0.400  0.00  0.00    +0.113 C 
ENDBRANCH   7  14
ENDBRANCH   6   7
ENDBRANCH   1   6
BRANCH   2  20
ATOM     20  C   UNL     1       6.410   5.571   2.144  0.00  0.00    +0.019 C 
BRANCH  20  21
ATOM     21  N   UNL     1       6.288   6.582   3.202  0.00  0.00    +0.387 N 
ATOM     22  C   UNL     1       5.135   7.461   2.961  0.00  0.00    -0.059 C 
ATOM     23  C   UNL     1       4.996   8.447   4.123  0.00  0.00    +0.088 C 
ATOM     24  N   UNL     1       6.234   9.229   4.249  0.00  0.00    -0.319 N 
ATOM     25  C   UNL     1       7.387   8.350   4.491  0.00  0.00    +0.088 C 
ATOM     26  C   UNL     1       7.526   7.364   3.328  0.00  0.00    -0.059 C 
ATOM     27  C   UNL     1       6.119  10.186   5.250  0.00  0.00    +0.121 A 
ATOM     28  C   UNL     1       5.088  11.120   5.197  0.00  0.00    +0.044 A 
ATOM     29  C   UNL     1       4.982  12.062   6.203  0.00  0.00    +0.017 A 
ATOM     30  C   UNL     1       5.920  12.048   7.227  0.00  0.00    +0.073 A 
ATOM     31  C   UNL     1       6.920  11.097   7.214  0.00  0.00    +0.125 A 
ATOM     32  N   UNL     1       6.994  10.205   6.244  0.00  0.00    -0.240 NA
ATOM     33  H   UNL     1       6.120   6.056   4.154  0.00  0.00    -0.081 HD
BRANCH  30  34
ATOM     34  C   UNL     1       5.847  13.060   8.341  0.00  0.00    +0.419 C 
ATOM     35  F   UNL     1       6.894  12.838   9.242  0.00  0.00    -0.166 F 
ATOM     36  F   UNL     1       5.955  14.349   7.808  0.00  0.00    -0.166 F 
ATOM     37  F   UNL     1       4.623  12.932   9.007  0.00  0.00    -0.166 F 
ENDBRANCH  30  34
ENDBRANCH  20  21
ENDBRANCH   2  20
TORSDOF 7
