REMARK  Name = ZINC50441509
REMARK  6 active torsions:
REMARK  status: ('A' for Active; 'I' for Inactive)
REMARK    1  A    between atoms: C_2  and  N_17
REMARK    2  A    between atoms: C_5  and  O_8
REMARK    3  A    between atoms: O_8  and  C_9
REMARK    4  A    between atoms: C_9  and  C_10
REMARK    5  A    between atoms: C_10  and  C_12
REMARK    6  A    between atoms: C_10  and  N_15
REMARK                            x       y       z     vdW  Elec       q    Type
REMARK                         _______ _______ _______ _____ _____    ______ ____
ROOT
ATOM      1  O   UNL     1       1.235  -2.039  -0.022  0.00  0.00    -0.491 OA
ENDROOT
BRANCH   1   6
ATOM      2  C   UNL     1      -0.017   1.378   0.010  0.00  0.00    +0.051 A 
ATOM      3  C   UNL     1       1.170   2.087   0.002  0.00  0.00    +0.129 A 
ATOM      4  C   UNL     1       2.379   1.416  -0.013  0.00  0.00    +0.051 A 
ATOM      5  C   UNL     1       2.404   0.034  -0.021  0.00  0.00    +0.063 A 
ATOM      6  C   UNL     1       1.214  -0.680  -0.013  0.00  0.00    +0.148 A 
ATOM      7  C   UNL     1       0.002  -0.004   0.002  0.00  0.00    +0.063 A 
ATOM      8 BR   UNL     1      -1.622  -0.973   0.013  0.00  0.00    -0.046 Br
ATOM      9 BR   UNL     1       4.058  -0.883  -0.044  0.00  0.00    -0.046 Br
BRANCH   3  10
ATOM     10  N   UNL     1       1.147   3.567   0.010  0.00  0.00    +0.056 N 
ATOM     11  O   UNL     1       0.091   4.155   0.023  0.00  0.00    -0.126 OA
ATOM     12  O   UNL     1       2.184   4.188   0.004  0.00  0.00    -0.126 OA
ENDBRANCH   3  10
ENDBRANCH   1   6
BRANCH   1  13
ATOM     13  C   UNL     1       1.259  -2.696   1.247  0.00  0.00    +0.222 C 
BRANCH  13  14
ATOM     14  C   UNL     1       1.280  -4.211   1.038  0.00  0.00    +0.050 C 
BRANCH  14  15
ATOM     15  C   UNL     1       1.429  -4.900   2.369  0.00  0.00    +0.199 C 
ATOM     16  O   UNL     1       0.456  -5.369   2.921  0.00  0.00    -0.278 OA
ATOM     17  N   UNL     1       2.643  -4.997   2.947  0.00  0.00    -0.331 N 
ATOM     18  H   UNL     1       3.421  -4.622   2.505  0.00  0.00    +0.145 HD
ATOM     19  H   UNL     1       2.738  -5.441   3.804  0.00  0.00    +0.145 HD
ENDBRANCH  14  15
BRANCH  14  20
ATOM     20  N   UNL     1       0.025  -4.636   0.403  0.00  0.00    +0.388 N 
ATOM     21  H   UNL     1      -0.752  -4.390   0.998  0.00  0.00    -0.089 HD
ATOM     22  H   UNL     1      -0.074  -4.174  -0.488  0.00  0.00    -0.089 HD
ATOM     23  H   UNL     1       0.040  -5.635   0.265  0.00  0.00    -0.089 HD
ENDBRANCH  14  20
ENDBRANCH  13  14
ENDBRANCH   1  13
TORSDOF 6
