REMARK  Name = ZINC45666598
REMARK  11 active torsions:
REMARK  status: ('A' for Active; 'I' for Inactive)
REMARK    1  A    between atoms: C_1  and  C_2
REMARK    2  A    between atoms: C_2  and  N_3
REMARK    3  A    between atoms: N_3  and  C_4
REMARK    4  A    between atoms: N_3  and  C_6
REMARK    5  A    between atoms: C_4  and  C_5
REMARK    6  A    between atoms: C_6  and  C_7
REMARK    7  A    between atoms: C_7  and  C_9
REMARK    8  A    between atoms: C_7  and  N_10
REMARK    9  A    between atoms: N_10  and  S_11
REMARK   10  A    between atoms: S_11  and  C_14
REMARK   11  A    between atoms: C_17  and  N_21
REMARK                            x       y       z     vdW  Elec       q    Type
REMARK                         _______ _______ _______ _____ _____    ______ ____
ROOT
ATOM      1  S   UNL     1       0.926  -1.595   3.135  0.00  0.00    +0.061 S 
ATOM      2  O   UNL     1       2.278  -1.201   2.941  0.00  0.00    -0.153 OA
ATOM      3  O   UNL     1      -0.022  -0.767   3.793  0.00  0.00    -0.153 OA
ENDROOT
BRANCH   1   4
ATOM      4  C   UNL     1       0.968  -3.117   4.022  0.00  0.00    +0.142 A 
ATOM      5  C   UNL     1      -0.126  -3.507   4.776  0.00  0.00    +0.070 A 
ATOM      6  C   UNL     1      -0.096  -4.700   5.473  0.00  0.00    +0.044 A 
ATOM      7  C   UNL     1       1.033  -5.508   5.417  0.00  0.00    +0.027 A 
ATOM      8  C   UNL     1       2.128  -5.114   4.659  0.00  0.00    +0.044 A 
ATOM      9  C   UNL     1       2.091  -3.922   3.960  0.00  0.00    +0.070 A 
ATOM     10 CL   UNL     1       3.458  -3.432   3.008  0.00  0.00    -0.081 Cl
ATOM     11 CL   UNL     1      -1.536  -2.497   4.846  0.00  0.00    -0.081 Cl
BRANCH   7  12
ATOM     12  N   UNL     1       1.066  -6.714   6.120  0.00  0.00    -0.358 N 
ATOM     13  H   UNL     1       0.300  -6.988   6.649  0.00  0.00    +0.142 HD
ATOM     14  H   UNL     1       1.854  -7.277   6.080  0.00  0.00    +0.142 HD
ENDBRANCH   7  12
ENDBRANCH   1   4
BRANCH   1  15
ATOM     15  N   UNL     1       0.309  -1.921   1.633  0.00  0.00    -0.189 NA
ATOM     16  H   UNL     1       0.863  -1.807   0.846  0.00  0.00    +0.148 HD
BRANCH  15  17
ATOM     17  C   UNL     1      -1.075  -2.382   1.494  0.00  0.00    +0.057 C 
ATOM     18  C   UNL     1      -1.095  -3.908   1.387  0.00  0.00    +0.024 C 
BRANCH  17  19
ATOM     19  C   UNL     1      -1.691  -1.773   0.233  0.00  0.00    -0.059 C 
BRANCH  19  20
ATOM     20  N   UNL     1      -1.794  -0.317   0.392  0.00  0.00    +0.380 N 
ATOM     21  H   UNL     1      -2.258  -0.105   1.263  0.00  0.00    -0.082 HD
BRANCH  20  23
ATOM     22  C   UNL     1       0.306  -0.164  -0.859  0.00  0.00    -0.017 C 
ATOM     23  C   UNL     1      -0.447   0.271   0.400  0.00  0.00    -0.082 C 
ENDBRANCH  20  23
BRANCH  20  24
ATOM     24  C   UNL     1      -2.567   0.245  -0.724  0.00  0.00    -0.082 C 
ATOM     25  C   UNL     1      -2.800   1.737  -0.482  0.00  0.00    -0.017 C 
ENDBRANCH  20  24
ENDBRANCH  19  20
ENDBRANCH  17  19
ENDBRANCH  15  17
ENDBRANCH   1  15
TORSDOF 8
