REMARK  Name = ZINC20394294
REMARK  6 active torsions:
REMARK  status: ('A' for Active; 'I' for Inactive)
REMARK    1  A    between atoms: C_1  and  O_2
REMARK    2  A    between atoms: O_2  and  C_3
REMARK    3  A    between atoms: C_6  and  C_9
REMARK    4  A    between atoms: N_20  and  C_23
REMARK    5  A    between atoms: C_23  and  C_24
REMARK    6  A    between atoms: C_24  and  N_25
REMARK                            x       y       z     vdW  Elec       q    Type
REMARK                         _______ _______ _______ _____ _____    ______ ____
ROOT
ATOM      1  C   UNL     1      -2.563   4.393  -4.601  0.00  0.00    +0.157 A 
ATOM      2  C   UNL     1      -2.378   5.331  -3.489  0.00  0.00    +0.301 A 
ATOM      3  O   UNL     1      -2.742   6.491  -3.573  0.00  0.00    -0.263 OA
ATOM      4  N   UNL     1      -1.784   4.861  -2.366  0.00  0.00    -0.174 NA
ATOM      5  H   UNL     1      -1.274   1.704  -3.312  0.00  0.00    +0.192 HD
ATOM      6  C   UNL     1      -1.395   3.556  -2.333  0.00  0.00    +0.215 A 
ATOM      7  N   UNL     1      -1.592   2.756  -3.363  0.00  0.00    -0.247 N 
ATOM      8  N   UNL     1      -2.149   3.146  -4.452  0.00  0.00    -0.166 NA
ATOM      9  N   UNL     1      -0.789   3.065  -1.208  0.00  0.00    -0.298 N 
ATOM     10  C   UNL     1      -0.561   1.618  -1.322  0.00  0.00    +0.123 C 
ATOM     11  C   UNL     1       0.189   1.123  -0.083  0.00  0.00    +0.103 C 
ATOM     12  N   UNL     1      -0.596   1.437   1.120  0.00  0.00    -0.301 NA
ATOM     13  C   UNL     1      -0.825   2.885   1.233  0.00  0.00    +0.103 C 
ATOM     14  C   UNL     1      -1.574   3.379  -0.006  0.00  0.00    +0.123 C 
ENDROOT
BRANCH   1  18
ATOM     15  C   UNL     1      -4.389   5.656  -8.226  0.00  0.00    +0.120 A 
ATOM     16  C   UNL     1      -3.485   4.603  -8.237  0.00  0.00    +0.046 A 
ATOM     17  C   UNL     1      -2.891   4.190  -7.063  0.00  0.00    +0.014 A 
ATOM     18  C   UNL     1      -3.199   4.833  -5.864  0.00  0.00    +0.008 A 
ATOM     19  C   UNL     1      -4.113   5.888  -5.856  0.00  0.00    +0.014 A 
ATOM     20  C   UNL     1      -4.699   6.298  -7.034  0.00  0.00    +0.046 A 
BRANCH  15  22
ATOM     21  C   UNL     1      -5.894   7.150  -9.302  0.00  0.00    +0.277 C 
ATOM     22  O   UNL     1      -4.974   6.060  -9.385  0.00  0.00    -0.495 OA
ENDBRANCH  15  22
ENDBRANCH   1  18
BRANCH  12  23
ATOM     23  C   UNL     1       0.056   0.910   2.326  0.00  0.00    +0.065 C 
BRANCH  23  24
ATOM     24  C   UNL     1      -0.647   1.463   3.568  0.00  0.00    -0.071 C 
BRANCH  24  25
ATOM     25  N   UNL     1       0.005   0.936   4.774  0.00  0.00    +0.379 N 
ATOM     26  H   UNL     1      -0.501   1.334   5.667  0.00  0.00    -0.090 HD
ATOM     27  H   UNL     1       1.061   1.243   4.784  0.00  0.00    -0.090 HD
ATOM     28  H   UNL     1      -0.059  -0.162   4.776  0.00  0.00    -0.090 HD
ENDBRANCH  24  25
ENDBRANCH  23  24
ENDBRANCH  12  23
TORSDOF 5
