REMARK  Name = ZINC05723544
REMARK  10 active torsions:
REMARK  status: ('A' for Active; 'I' for Inactive)
REMARK    1  A    between atoms: C_1  and  C_2
REMARK    2  A    between atoms: C_4  and  C_22
REMARK    3  A    between atoms: C_6  and  C_13
REMARK    4  A    between atoms: C_8  and  C_12
REMARK    5  A    between atoms: C_16  and  O_21
REMARK    6  A    between atoms: C_17  and  O_19
REMARK    7  A    between atoms: O_19  and  C_20
REMARK    8  A    between atoms: C_25  and  O_30
REMARK    9  A    between atoms: C_26  and  O_28
REMARK   10  A    between atoms: O_28  and  C_29
REMARK                            x       y       z     vdW  Elec       q    Type
REMARK                         _______ _______ _______ _____ _____    ______ ____
ROOT
ATOM      1  C   UNL     1       7.114   3.634   3.041  0.00  0.00    +0.014 C 
ATOM      2  C   UNL     1       5.772   2.937   2.813  0.00  0.00    +0.043 C 
ATOM      3  C   UNL     1       4.744   3.949   2.295  0.00  0.00    -0.030 C 
ATOM      4  C   UNL     1       5.106   3.327  -0.024  0.00  0.00    -0.030 C 
ATOM      5  C   UNL     1       6.158   2.272   0.337  0.00  0.00    +0.043 C 
ATOM      6  C   UNL     1       5.931   1.848   1.773  0.00  0.00    +0.136 C 
ATOM      7  O   UNL     1       5.879   0.681   2.078  0.00  0.00    -0.297 OA
ATOM      8  C   UNL     1       6.013   1.061  -0.588  0.00  0.00    +0.014 C 
ATOM      9  N   UNL     1       5.151   4.428   0.959  0.00  0.00    +0.389 N 
ATOM     10  H   UNL     1       6.108   4.796   1.009  0.00  0.00    -0.084 HD
ATOM     11  H   UNL     1       4.513   5.174   0.659  0.00  0.00    -0.084 HD
ENDROOT
BRANCH   4  12
ATOM     12  C   UNL     1       3.738   2.695  -0.018  0.00  0.00    -0.057 A 
ATOM     13  C   UNL     1       3.549   1.465   0.585  0.00  0.00    +0.006 A 
ATOM     14  C   UNL     1       2.294   0.884   0.598  0.00  0.00    +0.049 A 
ATOM     15  C   UNL     1       1.226   1.528  -0.004  0.00  0.00    +0.158 A 
ATOM     16  C   UNL     1       1.416   2.765  -0.612  0.00  0.00    +0.161 A 
ATOM     17  C   UNL     1       2.675   3.345  -0.617  0.00  0.00    +0.051 A 
BRANCH  16  18
ATOM     18  O   UNL     1       0.370   3.404  -1.200  0.00  0.00    -0.491 OA
ATOM     19  C   UNL     1       0.639   4.671  -1.804  0.00  0.00    +0.277 C 
ENDBRANCH  16  18
BRANCH  15  20
ATOM     20  O   UNL     1      -0.007   0.955   0.003  0.00  0.00    -0.503 OA
ATOM     21  H   UNL     1      -0.181   0.386  -0.759  0.00  0.00    +0.292 HD
ENDBRANCH  15  20
ENDBRANCH   4  12
BRANCH   3  22
ATOM     22  C   UNL     1       4.676   5.123   3.237  0.00  0.00    -0.057 A 
ATOM     23  C   UNL     1       5.637   6.115   3.174  0.00  0.00    +0.006 A 
ATOM     24  C   UNL     1       5.579   7.195   4.036  0.00  0.00    +0.049 A 
ATOM     25  C   UNL     1       4.556   7.284   4.966  0.00  0.00    +0.158 A 
ATOM     26  C   UNL     1       3.588   6.285   5.030  0.00  0.00    +0.161 A 
ATOM     27  C   UNL     1       3.650   5.209   4.159  0.00  0.00    +0.051 A 
BRANCH  26  28
ATOM     28  O   UNL     1       2.583   6.368   5.941  0.00  0.00    -0.491 OA
ATOM     29  C   UNL     1       1.626   5.307   5.950  0.00  0.00    +0.277 C 
ENDBRANCH  26  28
BRANCH  25  30
ATOM     30  O   UNL     1       4.497   8.345   5.815  0.00  0.00    -0.503 OA
ATOM     31  H   UNL     1       3.986   9.092   5.475  0.00  0.00    +0.292 HD
ENDBRANCH  25  30
ENDBRANCH   3  22
TORSDOF 6
