REMARK  Name = ZINC56174948
REMARK  8 active torsions:
REMARK  status: ('A' for Active; 'I' for Inactive)
REMARK    1  A    between atoms: C_1  and  C_2
REMARK    2  A    between atoms: C_8  and  C_10
REMARK    3  A    between atoms: N_12  and  C_13
REMARK    4  A    between atoms: C_18  and  C_19
REMARK    5  A    between atoms: N_21  and  C_22
REMARK    6  A    between atoms: C_22  and  C_23
REMARK    7  A    between atoms: C_22  and  C_24
REMARK    8  A    between atoms: C_22  and  C_25
REMARK                            x       y       z     vdW  Elec       q    Type
REMARK                         _______ _______ _______ _____ _____    ______ ____
ROOT
ATOM      1  C   UNL     1      -3.764  -4.282  -0.564  0.00  0.00    +0.304 C 
ATOM      2  O   UNL     1      -3.376  -5.296  -1.105  0.00  0.00    -0.265 OA
ATOM      3  N   UNL     1      -4.979  -4.252   0.018  0.00  0.00    -0.277 N 
ATOM      4  H   UNL     1      -5.264  -3.463   0.506  0.00  0.00    +0.155 HD
ENDROOT
BRANCH   1  12
ATOM      5  C   UNL     1      -0.077   1.546  -0.244  0.00  0.00    +0.089 C 
ATOM      6  C   UNL     1      -0.158   0.115  -0.710  0.00  0.00    +0.136 A 
ATOM      7  C   UNL     1      -1.194  -0.720  -0.517  0.00  0.00    +0.091 A 
ATOM      8  C   UNL     1      -0.872  -1.963  -1.108  0.00  0.00    +0.168 A 
ATOM      9  N   UNL     1       0.322  -1.860  -1.633  0.00  0.00    -0.063 NA
ATOM     10  O   UNL     1       0.790  -0.545  -1.395  0.00  0.00    -0.358 OA
ATOM     11  N   UNL     1      -1.682  -3.097  -1.127  0.00  0.00    -0.260 N 
ATOM     12  C   UNL     1      -2.897  -3.067  -0.544  0.00  0.00    +0.305 C 
ATOM     13  O   UNL     1      -3.286  -2.053  -0.003  0.00  0.00    -0.265 OA
ATOM     14  H   UNL     1      -1.371  -3.908  -1.559  0.00  0.00    +0.157 HD
ENDBRANCH   1  12
BRANCH   3  15
ATOM     15  C   UNL     1      -5.826  -5.352  -0.081  0.00  0.00    +0.046 A 
ATOM     16  C   UNL     1      -5.302  -6.638  -0.080  0.00  0.00    +0.024 A 
ATOM     17  C   UNL     1      -6.143  -7.727  -0.178  0.00  0.00    +0.002 A 
ATOM     18  C   UNL     1      -7.513  -7.548  -0.279  0.00  0.00    +0.001 A 
ATOM     19  C   UNL     1      -8.051  -6.279  -0.282  0.00  0.00    +0.015 A 
ATOM     20  C   UNL     1      -7.213  -5.167  -0.177  0.00  0.00    +0.058 A 
BRANCH  20  21
ATOM     21  C   UNL     1      -7.783  -3.806  -0.174  0.00  0.00    +0.246 C 
ATOM     22  O   UNL     1      -7.047  -2.839  -0.185  0.00  0.00    -0.270 OA
ATOM     23  N   UNL     1      -9.120  -3.636  -0.157  0.00  0.00    -0.307 N 
ATOM     24  H   UNL     1      -9.707  -4.407  -0.148  0.00  0.00    +0.150 HD
BRANCH  23  25
ATOM     25  C   UNL     1      -9.686  -2.284  -0.154  0.00  0.00    +0.026 C 
ATOM     26  C   UNL     1      -9.233  -1.538  -1.411  0.00  0.00    +0.031 C 
ATOM     27  C   UNL     1     -11.213  -2.371  -0.134  0.00  0.00    +0.031 C 
ATOM     28  C   UNL     1      -9.202  -1.532   1.087  0.00  0.00    +0.031 C 
ENDBRANCH  23  25
ENDBRANCH  20  21
ENDBRANCH   3  15
TORSDOF 4
