REMARK  Name = ZINC23470101
REMARK  10 active torsions:
REMARK  status: ('A' for Active; 'I' for Inactive)
REMARK    1  A    between atoms: C_1  and  C_2
REMARK    2  A    between atoms: C_2  and  C_3
REMARK    3  A    between atoms: C_6  and  N_9
REMARK    4  A    between atoms: C_10  and  C_12
REMARK    5  A    between atoms: C_12  and  C_14
REMARK    6  A    between atoms: C_12  and  N_15
REMARK    7  A    between atoms: N_18  and  C_21
REMARK    8  A    between atoms: C_21  and  C_22
REMARK    9  A    between atoms: N_24  and  C_25
REMARK   10  A    between atoms: C_29  and  C_31
REMARK                            x       y       z     vdW  Elec       q    Type
REMARK                         _______ _______ _______ _____ _____    ______ ____
ROOT
ATOM      1  N   UNL     1       3.900  -4.302  -0.946  0.00  0.00    -0.295 NA
ATOM      2  C   UNL     1       4.859  -3.793  -1.936  0.00  0.00    +0.066 C 
ATOM      3  C   UNL     1       6.257  -4.322  -1.608  0.00  0.00    -0.063 C 
ATOM      4  N   UNL     1       6.234  -5.792  -1.609  0.00  0.00    +0.387 N 
ATOM      5  C   UNL     1       5.275  -6.301  -0.618  0.00  0.00    -0.063 C 
ATOM      6  C   UNL     1       3.877  -5.772  -0.947  0.00  0.00    +0.066 C 
ATOM      7  H   UNL     1       5.905  -6.126  -2.604  0.00  0.00    -0.081 HD
ENDROOT
BRANCH   1   8
ATOM      8  C   UNL     1       2.558  -3.755  -1.183  0.00  0.00    +0.140 C 
ATOM      9  C   UNL     1       1.930  -4.449  -2.393  0.00  0.00    +0.034 C 
BRANCH   8  11
ATOM     10  N   UNL     1       0.432  -3.528   0.062  0.00  0.00    -0.284 N 
ATOM     11  C   UNL     1       1.698  -3.990   0.033  0.00  0.00    +0.234 C 
ATOM     12  O   UNL     1       2.145  -4.594   0.984  0.00  0.00    -0.274 OA
ATOM     13  H   UNL     1      -0.001  -3.054  -0.831  0.00  0.00    +0.155 HD
BRANCH  10  17
ATOM     14  C   UNL     1      -1.840  -3.897   3.534  0.00  0.00    -0.048 A 
ATOM     15  C   UNL     1      -0.475  -3.694   3.621  0.00  0.00    +0.005 A 
ATOM     16  C   UNL     1       0.281  -3.571   2.472  0.00  0.00    +0.023 A 
ATOM     17  C   UNL     1      -0.331  -3.652   1.228  0.00  0.00    +0.033 A 
ATOM     18  C   UNL     1      -1.702  -3.856   1.144  0.00  0.00    +0.023 A 
ATOM     19  C   UNL     1      -2.453  -3.978   2.297  0.00  0.00    +0.005 A 
BRANCH  14  21
ATOM     20  C   UNL     1      -3.153  -2.650   5.228  0.00  0.00    +0.009 C 
ATOM     21  C   UNL     1      -2.662  -4.031   4.790  0.00  0.00    +0.032 C 
ENDBRANCH  14  21
ENDBRANCH  10  17
ENDBRANCH   8  11
ENDBRANCH   1   8
BRANCH   4  22
ATOM     22  C   UNL     1       7.577  -6.339  -1.372  0.00  0.00    +0.019 C 
BRANCH  22  23
ATOM     23  C   UNL     1       7.564  -7.825  -1.622  0.00  0.00    +0.201 C 
ATOM     24  O   UNL     1       6.569  -8.357  -2.064  0.00  0.00    -0.278 OA
ATOM     25  N   UNL     1       8.660  -8.562  -1.354  0.00  0.00    -0.287 N 
ATOM     26  H   UNL     1       9.539  -8.093  -0.887  0.00  0.00    +0.155 HD
BRANCH  25  27
ATOM     27  C   UNL     1       8.681  -9.926  -1.670  0.00  0.00    +0.034 A 
ATOM     28  C   UNL     1       7.537 -10.695  -1.505  0.00  0.00    +0.025 A 
ATOM     29  C   UNL     1       7.558 -12.039  -1.822  0.00  0.00    +0.022 A 
ATOM     30  C   UNL     1       8.722 -12.622  -2.294  0.00  0.00    +0.053 A 
ATOM     31  C   UNL     1       9.865 -11.858  -2.454  0.00  0.00    +0.075 A 
ATOM     32  C   UNL     1       9.847 -10.513  -2.143  0.00  0.00    +0.037 A 
ATOM     33 CL   UNL     1       8.747 -14.313  -2.686  0.00  0.00    -0.083 Cl
BRANCH  31  34
ATOM     34  C   UNL     1      11.130 -12.496  -2.968  0.00  0.00    +0.419 C 
ATOM     35  F   UNL     1      12.140 -11.531  -3.044  0.00  0.00    -0.166 F 
ATOM     36  F   UNL     1      11.525 -13.517  -2.097  0.00  0.00    -0.166 F 
ATOM     37  F   UNL     1      10.899 -13.031  -4.240  0.00  0.00    -0.166 F 
ENDBRANCH  31  34
ENDBRANCH  25  27
ENDBRANCH  22  23
ENDBRANCH   4  22
TORSDOF 8
