REMARK  Name = ZINC21583799
REMARK  12 active torsions:
REMARK  status: ('A' for Active; 'I' for Inactive)
REMARK    1  A    between atoms: C_1  and  C_2
REMARK    2  A    between atoms: C_6  and  N_8
REMARK    3  A    between atoms: C_9  and  C_11
REMARK    4  A    between atoms: C_16  and  N_17
REMARK    5  A    between atoms: C_18  and  C_20
REMARK    6  A    between atoms: C_20  and  N_21
REMARK    7  A    between atoms: N_21  and  C_22
REMARK    8  A    between atoms: N_21  and  C_23
REMARK    9  A    between atoms: C_23  and  C_25
REMARK   10  A    between atoms: C_23  and  C_26
REMARK   11  A    between atoms: C_29  and  S_32
REMARK   12  A    between atoms: S_32  and  N_35
REMARK                            x       y       z     vdW  Elec       q    Type
REMARK                         _______ _______ _______ _____ _____    ______ ____
ROOT
ATOM      1  N   UNL     1       3.451   7.422   0.101  0.00  0.00    -0.286 N 
ATOM      2  C   UNL     1       4.567   8.171   0.004  0.00  0.00    +0.201 C 
ATOM      3  O   UNL     1       4.497   9.378   0.094  0.00  0.00    -0.278 OA
ATOM      4  H   UNL     1       3.523   6.324   0.097  0.00  0.00    +0.155 HD
ENDROOT
BRANCH   1  10
ATOM      5  C   UNL     1       1.080   7.459  -0.397  0.00  0.00    +0.058 A 
ATOM      6  C   UNL     1      -0.162   8.090  -0.287  0.00  0.00    +0.015 A 
ATOM      7  C   UNL     1      -0.275   9.267   0.420  0.00  0.00    +0.001 A 
ATOM      8  C   UNL     1       0.839   9.835   1.017  0.00  0.00    +0.002 A 
ATOM      9  C   UNL     1       2.074   9.226   0.913  0.00  0.00    +0.024 A 
ATOM     10  C   UNL     1       2.206   8.037   0.208  0.00  0.00    +0.046 A 
BRANCH   5  12
ATOM     11  N   UNL     1       0.145   5.697  -1.812  0.00  0.00    -0.281 N 
ATOM     12  C   UNL     1       1.207   6.197  -1.149  0.00  0.00    +0.250 C 
ATOM     13  O   UNL     1       2.270   5.607  -1.170  0.00  0.00    -0.270 OA
ATOM     14  H   UNL     1      -0.787   6.277  -1.873  0.00  0.00    +0.155 HD
BRANCH  11  20
ATOM     15  C   UNL     1       2.161   1.218  -2.017  0.00  0.00    +0.044 C 
ATOM     16  C   UNL     1       1.198   2.252  -2.542  0.00  0.00    -0.049 A 
ATOM     17  C   UNL     1       0.395   1.958  -3.630  0.00  0.00    +0.003 A 
ATOM     18  C   UNL     1      -0.493   2.901  -4.112  0.00  0.00    +0.002 A 
ATOM     19  C   UNL     1      -0.579   4.142  -3.511  0.00  0.00    +0.023 A 
ATOM     20  C   UNL     1       0.230   4.442  -2.422  0.00  0.00    +0.034 A 
ATOM     21  C   UNL     1       1.122   3.492  -1.941  0.00  0.00    +0.026 A 
ENDBRANCH  11  20
ENDBRANCH   5  12
ENDBRANCH   1  10
BRANCH   2  22
ATOM     22  C   UNL     1       5.903   7.508  -0.217  0.00  0.00    +0.019 C 
BRANCH  22  23
ATOM     23  N   UNL     1       6.952   8.534  -0.287  0.00  0.00    +0.388 N 
ATOM     24  C   UNL     1       6.782   9.381  -1.475  0.00  0.00    -0.095 C 
ATOM     25  H   UNL     1       6.859   9.175   0.602  0.00  0.00    -0.081 HD
BRANCH  23  26
ATOM     26  C   UNL     1       8.288   7.922  -0.264  0.00  0.00    -0.041 C 
ATOM     27  C   UNL     1       8.463   7.129   1.033  0.00  0.00    -0.008 C 
BRANCH  26  28
ATOM     28  C   UNL     1       9.336   9.002  -0.337  0.00  0.00    -0.061 A 
ATOM     29  C   UNL     1       9.163  10.183   0.361  0.00  0.00    +0.004 A 
ATOM     30  C   UNL     1      10.127  11.171   0.298  0.00  0.00    +0.029 A 
ATOM     31  C   UNL     1      11.259  10.984  -0.473  0.00  0.00    +0.105 A 
ATOM     32  C   UNL     1      11.430   9.806  -1.175  0.00  0.00    +0.029 A 
ATOM     33  C   UNL     1      10.468   8.815  -1.108  0.00  0.00    +0.004 A 
BRANCH  31  34
ATOM     34  S   UNL     1      12.484  12.248  -0.559  0.00  0.00    +0.056 S 
ATOM     35  O   UNL     1      12.347  13.028   0.620  0.00  0.00    -0.153 OA
ATOM     36  O   UNL     1      13.703  11.608  -0.913  0.00  0.00    -0.153 OA
BRANCH  34  37
ATOM     37  N   UNL     1      12.082  13.233  -1.828  0.00  0.00    -0.204 NA
ATOM     38  H   UNL     1      12.826  14.039  -1.917  0.00  0.00    +0.144 HD
ATOM     39  H   UNL     1      11.088  13.670  -1.652  0.00  0.00    +0.144 HD
ENDBRANCH  34  37
ENDBRANCH  31  34
ENDBRANCH  26  28
ENDBRANCH  23  26
ENDBRANCH  22  23
ENDBRANCH   2  22
TORSDOF 9
