REMARK  Name = ZINC41584194
REMARK  17 active torsions:
REMARK  status: ('A' for Active; 'I' for Inactive)
REMARK    1  A    between atoms: C_1  and  C_2
REMARK    2  A    between atoms: C_2  and  C_3
REMARK    3  A    between atoms: C_3  and  C_4
REMARK    4  A    between atoms: C_4  and  N_5
REMARK    5  A    between atoms: N_5  and  C_6
REMARK    6  A    between atoms: N_5  and  C_10
REMARK    7  A    between atoms: C_6  and  C_7
REMARK    8  A    between atoms: C_7  and  C_8
REMARK    9  A    between atoms: C_8  and  C_9
REMARK   10  A    between atoms: C_10  and  C_11
REMARK   11  A    between atoms: C_12  and  O_36
REMARK   12  A    between atoms: C_14  and  C_35
REMARK   13  A    between atoms: C_19  and  C_20
REMARK   14  A    between atoms: N_22  and  C_31
REMARK   15  A    between atoms: C_26  and  O_29
REMARK   16  A    between atoms: O_29  and  C_30
REMARK   17  A    between atoms: C_31  and  C_32
REMARK                            x       y       z     vdW  Elec       q    Type
REMARK                         _______ _______ _______ _____ _____    ______ ____
ROOT
ATOM      1  C   UNL     1      -2.393  -4.455   2.009  0.00  0.00    +0.020 A 
ATOM      2  C   UNL     1      -1.052  -4.800   2.071  0.00  0.00    +0.122 A 
ATOM      3  C   UNL     1      -0.452  -5.091   3.293  0.00  0.00    +0.050 A 
ATOM      4  C   UNL     1      -1.182  -5.037   4.448  0.00  0.00    -0.033 A 
ATOM      5  C   UNL     1      -2.532  -4.691   4.401  0.00  0.00    +0.071 A 
ATOM      6  C   UNL     1      -3.146  -4.390   3.173  0.00  0.00    +0.145 A 
ATOM      7  O   UNL     1      -4.441  -4.082   3.399  0.00  0.00    -0.451 OA
ATOM      8  C   UNL     1      -4.743  -4.150   4.718  0.00  0.00    +0.176 C 
ATOM      9  C   UNL     1      -5.964  -3.897   5.268  0.00  0.00    +0.060 C 
ATOM     10  C   UNL     1      -3.578  -4.544   5.428  0.00  0.00    +0.232 C 
ATOM     11  O   UNL     1      -3.464  -4.710   6.631  0.00  0.00    -0.283 OA
ATOM     12  C   UNL     1      -0.529  -5.353   5.769  0.00  0.00    +0.045 C 
ENDROOT
BRANCH   9  13
ATOM     13  C   UNL     1      -6.112  -3.844   6.721  0.00  0.00    +0.004 A 
ATOM     14  C   UNL     1      -5.209  -3.328   7.626  0.00  0.00    +0.094 A 
ATOM     15  N   UNL     1      -5.703  -3.459   8.882  0.00  0.00    -0.346 N 
ATOM     16  C   UNL     1      -6.946  -4.062   8.854  0.00  0.00    +0.050 A 
ATOM     17  C   UNL     1      -7.262  -4.324   7.511  0.00  0.00    +0.011 A 
ATOM     18  C   UNL     1      -8.472  -4.930   7.183  0.00  0.00    +0.056 A 
ATOM     19  C   UNL     1      -9.361  -5.269   8.186  0.00  0.00    +0.121 A 
ATOM     20  C   UNL     1      -9.049  -5.005   9.516  0.00  0.00    +0.047 A 
ATOM     21  C   UNL     1      -7.851  -4.414   9.850  0.00  0.00    +0.030 A 
BRANCH  19  22
ATOM     22  O   UNL     1     -10.545  -5.861   7.872  0.00  0.00    -0.495 OA
ATOM     23  C   UNL     1     -11.417  -6.184   8.957  0.00  0.00    +0.277 C 
ENDBRANCH  19  22
BRANCH  15  24
ATOM     24  C   UNL     1      -5.016  -3.020  10.099  0.00  0.00    +0.118 C 
ATOM     25  C   UNL     1      -4.248  -4.198  10.703  0.00  0.00    +0.027 C 
ENDBRANCH  15  24
ENDBRANCH   9  13
BRANCH   2  26
ATOM     26  O   UNL     1      -0.318  -4.857   0.930  0.00  0.00    -0.506 OA
ATOM     27  H   UNL     1       0.109  -4.022   0.696  0.00  0.00    +0.292 HD
ENDBRANCH   2  26
BRANCH   1  28
ATOM     28  C   UNL     1      -3.031  -4.143   0.680  0.00  0.00    -0.036 C 
BRANCH  28  29
ATOM     29  N   UNL     1      -2.895  -2.708   0.396  0.00  0.00    +0.383 N 
ATOM     30  H   UNL     1      -3.280  -2.175   1.162  0.00  0.00    -0.081 HD
BRANCH  29  31
ATOM     31  C   UNL     1      -1.474  -2.373   0.233  0.00  0.00    -0.078 C 
BRANCH  31  32
ATOM     32  C   UNL     1      -1.323  -0.860   0.059  0.00  0.00    -0.019 C 
BRANCH  32  34
ATOM     33  C   UNL     1       0.314   1.015  -0.153  0.00  0.00    +0.004 C 
ATOM     34  C   UNL     1       0.163  -0.497   0.021  0.00  0.00    -0.005 C 
ENDBRANCH  32  34
ENDBRANCH  31  32
ENDBRANCH  29  31
BRANCH  29  35
ATOM     35  C   UNL     1      -3.620  -2.382  -0.839  0.00  0.00    -0.078 C 
BRANCH  35  36
ATOM     36  C   UNL     1      -5.119  -2.595  -0.622  0.00  0.00    -0.019 C 
BRANCH  36  37
ATOM     37  C   UNL     1      -5.885  -2.133  -1.864  0.00  0.00    -0.005 C 
ATOM     38  C   UNL     1      -7.384  -2.346  -1.647  0.00  0.00    +0.004 C 
ENDBRANCH  36  37
ENDBRANCH  35  36
ENDBRANCH  29  35
ENDBRANCH  28  29
ENDBRANCH   1  28
TORSDOF 12
