REMARK  Name = ZINC44714683
REMARK  7 active torsions:
REMARK  status: ('A' for Active; 'I' for Inactive)
REMARK    1  A    between atoms: C_1  and  C_2
REMARK    2  A    between atoms: C_3  and  C_14
REMARK    3  A    between atoms: C_6  and  C_12
REMARK    4  A    between atoms: C_14  and  C_15
REMARK    5  A    between atoms: C_15  and  N_16
REMARK    6  A    between atoms: C_17  and  C_19
REMARK    7  A    between atoms: C_30  and  C_32
REMARK                            x       y       z     vdW  Elec       q    Type
REMARK                         _______ _______ _______ _____ _____    ______ ____
ROOT
ATOM      1  C   UNL     1       2.563   1.089  -6.477  0.00  0.00    +0.100 C 
ATOM      2  C   UNL     1       1.775   2.414  -6.587  0.00  0.00    +0.121 C 
ATOM      3  N   UNL     1       2.809   3.472  -6.501  0.00  0.00    -0.300 N 
ATOM      4  C   UNL     1       3.949   2.939  -7.284  0.00  0.00    +0.115 C 
ATOM      5  C   UNL     1       3.988   1.437  -6.939  0.00  0.00    -0.004 C 
ATOM      6  C   UNL     1       4.358   0.621  -8.173  0.00  0.00    -0.010 C 
ATOM      7  C   UNL     1       5.799   0.941  -8.578  0.00  0.00    -0.082 C 
ATOM      8  N   UNL     1       6.704   0.623  -7.467  0.00  0.00    +0.379 N 
ATOM      9  C   UNL     1       6.401   1.479  -6.314  0.00  0.00    -0.082 C 
ATOM     10  C   UNL     1       4.985   1.181  -5.813  0.00  0.00    -0.010 C 
ATOM     11  C   UNL     1       2.730   4.653  -5.856  0.00  0.00    +0.219 C 
ATOM     12  O   UNL     1       3.669   5.420  -5.878  0.00  0.00    -0.275 OA
ATOM     13  H   UNL     1       6.587  -0.345  -7.206  0.00  0.00    -0.086 HD
ATOM     14  H   UNL     1       7.658   0.777  -7.758  0.00  0.00    -0.086 HD
ENDROOT
BRANCH  11  15
ATOM     15  C   UNL     1       1.475   5.020  -5.107  0.00  0.00    +0.079 C 
ATOM     16  C   UNL     1       0.291   5.061  -6.079  0.00  0.00    +0.041 C 
ATOM     17  C   UNL     1      -0.963   5.511  -5.325  0.00  0.00    +0.160 C 
ATOM     18  O   UNL     1      -0.727   6.788  -4.730  0.00  0.00    -0.380 OA
ATOM     19  C   UNL     1       0.338   6.800  -3.777  0.00  0.00    +0.160 C 
ATOM     20  C   UNL     1       1.645   6.402  -4.468  0.00  0.00    +0.041 C 
ENDBRANCH  11  15
BRANCH   1  22
ATOM     21  N   UNL     1       2.675  -0.714  -4.787  0.00  0.00    -0.315 N 
ATOM     22  C   UNL     1       2.577   0.605  -5.050  0.00  0.00    +0.218 C 
ATOM     23  O   UNL     1       2.501   1.401  -4.138  0.00  0.00    -0.275 OA
ATOM     24  H   UNL     1       2.736  -1.350  -5.516  0.00  0.00    +0.149 HD
BRANCH  21  25
ATOM     25  C   UNL     1       2.689  -1.185  -3.400  0.00  0.00    +0.109 C 
BRANCH  25  26
ATOM     26  C   UNL     1       2.807  -2.710  -3.380  0.00  0.00    +0.056 C 
BRANCH  26  29
ATOM     27  C   UNL     1       0.324  -3.491  -1.689  0.00  0.00    +0.063 C 
ATOM     28  C   UNL     1       1.754  -3.535  -1.215  0.00  0.00    +0.017 A 
ATOM     29  C   UNL     1       2.821  -3.195  -1.953  0.00  0.00    -0.018 A 
ATOM     30  C   UNL     1       4.003  -3.384  -1.108  0.00  0.00    +0.004 A 
ATOM     31  C   UNL     1       5.371  -3.204  -1.304  0.00  0.00    +0.029 A 
ATOM     32  C   UNL     1       6.253  -3.485  -0.265  0.00  0.00    +0.052 A 
ATOM     33  C   UNL     1       5.763  -3.946   0.966  0.00  0.00    +0.021 A 
ATOM     34  C   UNL     1       4.425  -4.123   1.160  0.00  0.00    +0.027 A 
ATOM     35  C   UNL     1       3.525  -3.847   0.133  0.00  0.00    +0.047 A 
ATOM     36  N   UNL     1       2.155  -3.922   0.035  0.00  0.00    -0.358 N 
ATOM     37  H   UNL     1       1.561  -4.209   0.747  0.00  0.00    +0.166 HD
BRANCH  32  38
ATOM     38  C   UNL     1       7.661  -3.305  -0.452  0.00  0.00    +0.099 C 
ATOM     39  N   UNL     1       8.778  -3.162  -0.601  0.00  0.00    -0.191 NA
ENDBRANCH  32  38
ENDBRANCH  26  29
ENDBRANCH  25  26
ENDBRANCH  21  25
ENDBRANCH   1  22
TORSDOF 6
