REMARK  Name = ZINC08919160
REMARK  9 active torsions:
REMARK  status: ('A' for Active; 'I' for Inactive)
REMARK    1  A    between atoms: C_1  and  C_2
REMARK    2  A    between atoms: C_9  and  N_21
REMARK    3  A    between atoms: C_10  and  C_11
REMARK    4  A    between atoms: N_13  and  C_14
REMARK    5  A    between atoms: C_22  and  C_24
REMARK    6  A    between atoms: C_24  and  N_60
REMARK    7  A    between atoms: C_25  and  C_26
REMARK    8  A    between atoms: C_25  and  N_60
REMARK    9  A    between atoms: C_26  and  C_27
REMARK                            x       y       z     vdW  Elec       q    Type
REMARK                         _______ _______ _______ _____ _____    ______ ____
ROOT
ATOM      1  C   UNL     1      -6.667   5.126  -0.038  0.00  0.00    +0.008 C 
ATOM      2  C   UNL     1      -5.641   4.030  -0.331  0.00  0.00    -0.009 C 
ATOM      3  C   UNL     1      -5.964   2.785   0.500  0.00  0.00    +0.008 C 
ATOM      4  C   UNL     1      -5.103   1.610   0.034  0.00  0.00    +0.037 C 
ATOM      5  C   UNL     1      -3.642   2.044   0.030  0.00  0.00    -0.023 A 
ATOM      6  C   UNL     1      -3.305   3.352   0.036  0.00  0.00    -0.004 A 
ATOM      7  S   UNL     1      -1.535   3.364   0.030  0.00  0.00    -0.077 S 
ATOM      8  C   UNL     1      -1.244   1.655   0.020  0.00  0.00    +0.084 A 
ATOM      9  C   UNL     1      -2.523   1.117   0.015  0.00  0.00    +0.069 A 
ATOM     10  C   UNL     1      -4.237   4.525   0.045  0.00  0.00    +0.046 C 
ENDROOT
BRANCH   9  11
ATOM     11  C   UNL     1      -2.738  -0.333   0.000  0.00  0.00    +0.251 C 
ATOM     12  O   UNL     1      -2.826  -0.946   1.048  0.00  0.00    -0.270 OA
ATOM     13  N   UNL     1      -2.837  -0.987  -1.174  0.00  0.00    -0.279 N 
ATOM     14  H   UNL     1      -2.832  -0.491  -2.007  0.00  0.00    +0.155 HD
BRANCH  13  15
ATOM     15  C   UNL     1      -2.948  -2.383  -1.190  0.00  0.00    +0.069 A 
ATOM     16  C   UNL     1      -3.645  -3.037  -0.184  0.00  0.00    +0.026 A 
ATOM     17  C   UNL     1      -3.757  -4.414  -0.205  0.00  0.00    +0.002 A 
ATOM     18  C   UNL     1      -3.168  -5.142  -1.222  0.00  0.00    +0.003 A 
ATOM     19  C   UNL     1      -2.468  -4.495  -2.225  0.00  0.00    +0.040 A 
ATOM     20  C   UNL     1      -2.356  -3.117  -2.212  0.00  0.00    +0.144 A 
ATOM     21  F   UNL     1      -1.672  -2.485  -3.191  0.00  0.00    -0.204 F 
ENDBRANCH  13  15
ENDBRANCH   9  11
BRANCH   8  22
ATOM     22  N   UNL     1      -0.029   0.988   0.012  0.00  0.00    -0.281 N 
ATOM     23  C   UNL     1       1.124   1.687   0.006  0.00  0.00    +0.201 C 
ATOM     24  O   UNL     1       1.097   2.900   0.013  0.00  0.00    -0.278 OA
ATOM     25  H   UNL     1      -0.008   0.019   0.006  0.00  0.00    +0.155 HD
BRANCH  23  26
ATOM     26  C   UNL     1       2.445   0.962  -0.009  0.00  0.00    +0.015 C 
BRANCH  26  27
ATOM     27  N   UNL     1       3.539   1.952  -0.012  0.00  0.00    +0.385 N 
ATOM     28  H   UNL     1       3.471   2.535   0.830  0.00  0.00    -0.085 HD
ATOM     29  H   UNL     1       3.457   2.544  -0.847  0.00  0.00    -0.085 HD
BRANCH  27  30
ATOM     30  C   UNL     1       4.846   1.269  -0.027  0.00  0.00    -0.077 C 
BRANCH  30  31
ATOM     31  C   UNL     1       5.960   2.318  -0.030  0.00  0.00    +0.016 C 
BRANCH  31  32
ATOM     32  C   UNL     1       7.300   1.629  -0.045  0.00  0.00    -0.049 A 
ATOM     33  C   UNL     1       7.927   1.311   1.145  0.00  0.00    +0.003 A 
ATOM     34  C   UNL     1       9.154   0.674   1.132  0.00  0.00    +0.000 A 
ATOM     35  C   UNL     1       9.758   0.364  -0.072  0.00  0.00    +0.000 A 
ATOM     36  C   UNL     1       9.134   0.687  -1.262  0.00  0.00    +0.000 A 
ATOM     37  C   UNL     1       7.905   1.319  -1.249  0.00  0.00    +0.003 A 
ENDBRANCH  31  32
ENDBRANCH  30  31
ENDBRANCH  27  30
ENDBRANCH  26  27
ENDBRANCH  23  26
ENDBRANCH   8  22
TORSDOF 8
