REMARK  Name = ZINC52069897
REMARK  5 active torsions:
REMARK  status: ('A' for Active; 'I' for Inactive)
REMARK    1  A    between atoms: C_1  and  C_2
REMARK    2  A    between atoms: C_2  and  C_3
REMARK    3  A    between atoms: C_2  and  C_4
REMARK    4  A    between atoms: C_2  and  N_5
REMARK    5  A    between atoms: N_8  and  C_9
REMARK                            x       y       z     vdW  Elec       q    Type
REMARK                         _______ _______ _______ _____ _____    ______ ____
ROOT
ATOM      1  N   UNL     1       0.587  -0.502  -1.261  0.00  0.00    -0.353 N 
ATOM      2  C   UNL     1       1.899  -0.214  -1.553  0.00  0.00    +0.174 C 
ATOM      3  N   UNL     1       2.587   0.563  -0.764  0.00  0.00    -0.371 N 
ATOM      4  N   UNL     1       2.487  -0.748  -2.677  0.00  0.00    -0.327 N 
ATOM      5  H   UNL     1       0.052  -1.015  -1.887  0.00  0.00    +0.163 HD
ATOM      6  H   UNL     1       3.492   0.818  -1.003  0.00  0.00    +0.159 HD
ATOM      7  H   UNL     1       3.432  -0.607  -2.844  0.00  0.00    +0.169 HD
ATOM      8  H   UNL     1       2.194   0.887   0.061  0.00  0.00    +0.159 HD
ENDROOT
BRANCH   4   9
ATOM      9  C   UNL     1       1.721  -1.494  -3.580  0.00  0.00    +0.060 A 
ATOM     10  C   UNL     1       1.844  -2.876  -3.622  0.00  0.00    +0.028 A 
ATOM     11  C   UNL     1       1.086  -3.610  -4.513  0.00  0.00    +0.017 A 
ATOM     12  C   UNL     1       0.205  -2.969  -5.366  0.00  0.00    +0.019 A 
ATOM     13  C   UNL     1       0.080  -1.591  -5.329  0.00  0.00    +0.037 A 
ATOM     14  C   UNL     1       0.831  -0.852  -4.434  0.00  0.00    +0.065 A 
ATOM     15 CL   UNL     1       0.668   0.875  -4.381  0.00  0.00    -0.081 Cl
ATOM     16 BR   UNL     1      -0.830  -3.977  -6.586  0.00  0.00    -0.050 Br
ENDBRANCH   4   9
BRANCH   1  18
ATOM     17  C   UNL     1      -0.008   1.496   0.019  0.00  0.00    +0.033 C 
ATOM     18  C   UNL     1      -0.004  -0.034  -0.004  0.00  0.00    +0.033 C 
ATOM     19  C   UNL     1       0.820  -0.559   1.173  0.00  0.00    +0.033 C 
ATOM     20  C   UNL     1      -1.440  -0.550   0.108  0.00  0.00    +0.033 C 
ENDBRANCH   1  18
TORSDOF 2
