REMARK  Name = ZINC35374303
REMARK  8 active torsions:
REMARK  status: ('A' for Active; 'I' for Inactive)
REMARK    1  A    between atoms: C_1  and  C_2
REMARK    2  A    between atoms: C_2  and  C_3
REMARK    3  A    between atoms: C_3  and  C_4
REMARK    4  A    between atoms: C_4  and  N_5
REMARK    5  A    between atoms: C_6  and  C_31
REMARK    6  A    between atoms: C_14  and  C_20
REMARK    7  A    between atoms: N_22  and  C_23
REMARK    8  A    between atoms: N_33  and  C_34
REMARK                            x       y       z     vdW  Elec       q    Type
REMARK                         _______ _______ _______ _____ _____    ______ ____
ROOT
ATOM      1  N   UNL     1       1.018  -3.048  -2.560  0.00  0.00    -0.287 N 
ATOM      2  C   UNL     1       0.483  -3.293  -3.936  0.00  0.00    +0.198 C 
ATOM      3  C   UNL     1       1.572  -4.117  -4.549  0.00  0.00    +0.127 C 
ATOM      4  C   UNL     1       1.634  -5.525  -3.985  0.00  0.00    +0.009 C 
ATOM      5  C   UNL     1       2.628  -6.125  -4.623  0.00  0.00    +0.004 C 
ATOM      6  C   UNL     1       3.216  -5.048  -5.544  0.00  0.00    +0.155 C 
ATOM      7  O   UNL     1       2.000  -4.259  -5.883  0.00  0.00    -0.358 OA
ATOM      8  C   UNL     1       3.968  -4.112  -4.521  0.00  0.00    +0.123 C 
ATOM      9  C   UNL     1       2.796  -3.292  -3.982  0.00  0.00    +0.128 C 
ATOM     10  C   UNL     1       2.389  -3.147  -2.574  0.00  0.00    +0.223 C 
ATOM     11  O   UNL     1       3.123  -3.122  -1.609  0.00  0.00    -0.275 OA
ENDROOT
BRANCH   8  12
ATOM     12  C   UNL     1       4.632  -4.919  -3.435  0.00  0.00    +0.224 C 
ATOM     13  O   UNL     1       4.304  -4.764  -2.278  0.00  0.00    -0.275 OA
ATOM     14  N   UNL     1       5.590  -5.813  -3.751  0.00  0.00    -0.285 N 
ATOM     15  H   UNL     1       5.799  -5.992  -4.681  0.00  0.00    +0.155 HD
BRANCH  14  16
ATOM     16  C   UNL     1       6.284  -6.482  -2.736  0.00  0.00    +0.036 A 
ATOM     17  C   UNL     1       6.719  -7.785  -2.934  0.00  0.00    +0.043 A 
ATOM     18  C   UNL     1       7.404  -8.444  -1.931  0.00  0.00    +0.044 A 
ATOM     19  C   UNL     1       7.657  -7.806  -0.730  0.00  0.00    +0.040 A 
ATOM     20  C   UNL     1       7.224  -6.507  -0.529  0.00  0.00    +0.044 A 
ATOM     21  C   UNL     1       6.543  -5.841  -1.532  0.00  0.00    +0.043 A 
ATOM     22 CL   UNL     1       7.543  -5.709   0.979  0.00  0.00    -0.083 Cl
ATOM     23 CL   UNL     1       7.948 -10.074  -2.178  0.00  0.00    -0.083 Cl
ENDBRANCH  14  16
ENDBRANCH   8  12
BRANCH   2  24
ATOM     24  C   UNL     1       0.303  -1.996  -4.683  0.00  0.00    +0.237 C 
ATOM     25  O   UNL     1       0.879  -0.996  -4.309  0.00  0.00    -0.274 OA
ATOM     26  N   UNL     1      -0.497  -1.948  -5.767  0.00  0.00    -0.311 N 
ATOM     27  H   UNL     1      -0.957  -2.747  -6.066  0.00  0.00    +0.149 HD
BRANCH  26  28
ATOM     28  C   UNL     1      -0.671  -0.687  -6.492  0.00  0.00    +0.073 C 
ATOM     29  C   UNL     1      -1.773   0.138  -5.824  0.00  0.00    +0.022 C 
ATOM     30  C   UNL     1      -1.955   1.454  -6.582  0.00  0.00    +0.002 C 
ATOM     31  C   UNL     1      -2.348   1.158  -8.031  0.00  0.00    +0.000 C 
ATOM     32  C   UNL     1      -1.246   0.333  -8.699  0.00  0.00    +0.002 C 
ATOM     33  C   UNL     1      -1.064  -0.983  -7.941  0.00  0.00    +0.022 C 
ENDBRANCH  26  28
ENDBRANCH   2  24
BRANCH   1  34
ATOM     34  C   UNL     1       0.205  -2.743  -1.380  0.00  0.00    +0.108 C 
BRANCH  34  35
ATOM     35  C   UNL     1       0.021  -1.229  -1.265  0.00  0.00    +0.019 C 
BRANCH  35  37
ATOM     36  C   UNL     1      -1.012   0.604   0.083  0.00  0.00    +0.004 C 
ATOM     37  C   UNL     1      -0.828  -0.910  -0.033  0.00  0.00    -0.002 C 
ENDBRANCH  35  37
ENDBRANCH  34  35
ENDBRANCH   1  34
TORSDOF 7
