REMARK  Name = ZINC66858631
REMARK  5 active torsions:
REMARK  status: ('A' for Active; 'I' for Inactive)
REMARK    1  A    between atoms: C_1  and  N_2
REMARK    2  A    between atoms: C_8  and  C_10
REMARK    3  A    between atoms: C_10  and  C_11
REMARK    4  A    between atoms: C_17  and  C_19
REMARK    5  A    between atoms: C_19  and  N_20
REMARK                            x       y       z     vdW  Elec       q    Type
REMARK                         _______ _______ _______ _____ _____    ______ ____
ROOT
ATOM      1  C   UNL     1       3.665  -5.151   0.951  0.00  0.00    +0.001 C 
ATOM      2  C   UNL     1       2.987  -6.336   0.260  0.00  0.00    +0.023 C 
ATOM      3  C   UNL     1       4.039  -7.400  -0.070  0.00  0.00    +0.108 C 
ATOM      4  N   UNL     1       4.759  -7.751   1.163  0.00  0.00    -0.300 N 
ATOM      5  C   UNL     1       5.371  -6.675   1.953  0.00  0.00    +0.108 C 
ATOM      6  C   UNL     1       4.304  -5.619   2.260  0.00  0.00    +0.023 C 
ATOM      7  C   UNL     1       4.854  -9.035   1.560  0.00  0.00    +0.233 C 
ATOM      8  O   UNL     1       4.344  -9.914   0.898  0.00  0.00    -0.274 OA
ENDROOT
BRANCH   1   9
ATOM      9  C   UNL     1       2.623  -4.072   1.250  0.00  0.00    +0.099 C 
BRANCH   9  17
ATOM     10  C   UNL     1      -0.018   1.465   0.010  0.00  0.00    -0.096 C 
ATOM     11  N   UNL     1       0.002  -0.004   0.002  0.00  0.00    +0.380 N 
ATOM     12  C   UNL     1       0.680  -0.476  -1.212  0.00  0.00    -0.060 C 
ATOM     13  C   UNL     1       0.601  -2.005  -1.279  0.00  0.00    +0.089 C 
ATOM     14  N   UNL     1       1.144  -2.555  -0.027  0.00  0.00    -0.305 N 
ATOM     15  C   UNL     1       0.635  -2.018   1.245  0.00  0.00    +0.089 C 
ATOM     16  C   UNL     1       0.713  -0.489   1.192  0.00  0.00    -0.060 C 
ATOM     17  C   UNL     1       2.081  -3.523  -0.045  0.00  0.00    +0.216 C 
ATOM     18  O   UNL     1       2.489  -3.954  -1.103  0.00  0.00    -0.276 OA
ATOM     19  H   UNL     1      -0.945  -0.352   0.012  0.00  0.00    -0.082 HD
ENDBRANCH   9  17
ENDBRANCH   1   9
BRANCH   7  20
ATOM     20  C   UNL     1       5.596  -9.379   2.826  0.00  0.00    +0.203 C 
BRANCH  20  21
ATOM     21  N   UNL     1       5.557 -10.828   3.036  0.00  0.00    -0.293 N 
ATOM     22  C   UNL     1       4.408 -11.231   3.808  0.00  0.00    +0.108 C 
ATOM     23  C   UNL     1       4.340 -12.748   4.030  0.00  0.00    +0.019 C 
ATOM     24  C   UNL     1       5.287 -13.137   5.162  0.00  0.00    +0.002 C 
ATOM     25  C   UNL     1       6.569 -12.327   5.158  0.00  0.00    +0.001 C 
ATOM     26  C   UNL     1       7.500 -12.992   4.152  0.00  0.00    +0.009 C 
ATOM     27  C   UNL     1       6.880 -12.900   2.747  0.00  0.00    +0.096 C 
ATOM     28  C   UNL     1       6.585 -11.441   2.465  0.00  0.00    +0.216 C 
ATOM     29  O   UNL     1       7.303 -10.823   1.708  0.00  0.00    -0.276 OA
ENDBRANCH  20  21
ENDBRANCH   7  20
TORSDOF 4
