REMARK  Name = ZINC08868861
REMARK  6 active torsions:
REMARK  status: ('A' for Active; 'I' for Inactive)
REMARK    1  A    between atoms: C_1  and  N_54
REMARK    2  A    between atoms: C_7  and  N_12
REMARK    3  A    between atoms: C_8  and  C_9
REMARK    4  A    between atoms: C_13  and  C_15
REMARK    5  A    between atoms: N_20  and  S_21
REMARK    6  A    between atoms: S_21  and  C_24
REMARK                            x       y       z     vdW  Elec       q    Type
REMARK                         _______ _______ _______ _____ _____    ______ ____
ROOT
ATOM      1  N   UNL     1      -0.595   1.083   0.084  0.00  0.00    -0.278 N 
ATOM      2  C   UNL     1      -0.306  -0.191  -0.250  0.00  0.00    +0.236 C 
ATOM      3  O   UNL     1      -1.178  -0.919  -0.675  0.00  0.00    -0.274 OA
ATOM      4  H   UNL     1       0.102   1.665   0.423  0.00  0.00    +0.155 HD
ENDROOT
BRANCH   1  11
ATOM      5  C   UNL     1      -7.967   3.314  -0.675  0.00  0.00    -0.096 C 
ATOM      6  C   UNL     1      -5.807   4.401  -0.547  0.00  0.00    -0.074 C 
ATOM      7  C   UNL     1      -4.487   4.404   0.230  0.00  0.00    +0.018 C 
ATOM      8  C   UNL     1      -3.784   3.076  -0.023  0.00  0.00    -0.027 A 
ATOM      9  C   UNL     1      -4.478   2.023  -0.513  0.00  0.00    -0.021 A 
ATOM     10  S   UNL     1      -3.285   0.725  -0.655  0.00  0.00    -0.079 S 
ATOM     11  C   UNL     1      -1.888   1.562  -0.063  0.00  0.00    +0.084 A 
ATOM     12  C   UNL     1      -2.376   2.830   0.224  0.00  0.00    +0.068 A 
ATOM     13  C   UNL     1      -5.935   2.001  -0.854  0.00  0.00    -0.036 C 
ATOM     14  N   UNL     1      -6.569   3.179  -0.214  0.00  0.00    +0.381 N 
ATOM     15  H   UNL     1      -6.564   3.050   0.804  0.00  0.00    -0.082 HD
BRANCH  12  16
ATOM     16  C   UNL     1      -1.502   3.879   0.757  0.00  0.00    +0.244 C 
ATOM     17  O   UNL     1      -0.912   4.624  -0.004  0.00  0.00    -0.270 OA
ATOM     18  N   UNL     1      -1.350   4.019   2.089  0.00  0.00    -0.325 N 
ATOM     19  H   UNL     1      -1.820   3.425   2.695  0.00  0.00    +0.145 HD
ATOM     20  H   UNL     1      -0.772   4.713   2.441  0.00  0.00    +0.145 HD
ENDBRANCH  12  16
ENDBRANCH   1  11
BRANCH   2  21
ATOM     21  C   UNL     1       1.100  -0.710  -0.097  0.00  0.00    +0.166 C 
ATOM     22  C   UNL     1       1.905  -0.433  -1.385  0.00  0.00    +0.031 C 
ATOM     23  C   UNL     1       2.769  -1.716  -1.534  0.00  0.00    +0.019 C 
ATOM     24  C   UNL     1       1.802  -2.807  -1.008  0.00  0.00    +0.110 C 
ATOM     25  N   UNL     1       1.077  -2.166   0.103  0.00  0.00    -0.165 NA
BRANCH  25  26
ATOM     26  S   UNL     1       0.357  -2.955   1.368  0.00  0.00    +0.062 S 
ATOM     27  O   UNL     1      -0.558  -2.037   1.952  0.00  0.00    -0.153 OA
ATOM     28  O   UNL     1      -0.048  -4.225   0.877  0.00  0.00    -0.153 OA
BRANCH  26  29
ATOM     29  C   UNL     1       1.606  -3.256   2.574  0.00  0.00    +0.106 A 
ATOM     30  C   UNL     1       2.394  -4.388   2.484  0.00  0.00    +0.031 A 
ATOM     31  C   UNL     1       3.377  -4.622   3.426  0.00  0.00    +0.040 A 
ATOM     32  C   UNL     1       3.566  -3.729   4.467  0.00  0.00    +0.124 A 
ATOM     33  C   UNL     1       2.772  -2.598   4.559  0.00  0.00    +0.040 A 
ATOM     34  C   UNL     1       1.793  -2.363   3.613  0.00  0.00    +0.031 A 
ATOM     35  F   UNL     1       4.523  -3.959   5.391  0.00  0.00    -0.205 F 
ENDBRANCH  26  29
ENDBRANCH  25  26
ENDBRANCH   2  21
TORSDOF 5
