REMARK  Name = ZINC57439321
REMARK  11 active torsions:
REMARK  status: ('A' for Active; 'I' for Inactive)
REMARK    1  A    between atoms: C_4  and  C_7
REMARK    2  A    between atoms: C_7  and  N_8
REMARK    3  A    between atoms: N_8  and  C_9
REMARK    4  A    between atoms: N_8  and  C_16
REMARK    5  A    between atoms: C_9  and  C_10
REMARK    6  A    between atoms: C_16  and  C_17
REMARK    7  A    between atoms: N_19  and  C_20
REMARK    8  A    between atoms: C_20  and  C_21
REMARK    9  A    between atoms: C_21  and  C_22
REMARK   10  A    between atoms: C_25  and  S_28
REMARK   11  A    between atoms: S_28  and  N_31
REMARK                            x       y       z     vdW  Elec       q    Type
REMARK                         _______ _______ _______ _____ _____    ______ ____
ROOT
ATOM      1  C   UNL     1       6.181  -1.193   2.506  0.00  0.00    +0.196 C 
ATOM      2  O   UNL     1       5.526  -1.109   3.523  0.00  0.00    -0.278 OA
ATOM      3  N   UNL     1       7.483  -1.534   2.569  0.00  0.00    -0.317 N 
ATOM      4  H   UNL     1       8.007  -1.601   1.755  0.00  0.00    +0.149 HD
ENDROOT
BRANCH   1   5
ATOM      5  C   UNL     1       5.539  -0.916   1.171  0.00  0.00    +0.019 C 
BRANCH   5   6
ATOM      6  N   UNL     1       4.091  -0.742   1.350  0.00  0.00    +0.391 N 
ATOM      7  H   UNL     1       3.916  -0.248   2.213  0.00  0.00    -0.080 HD
BRANCH   6   8
ATOM      8  C   UNL     1       3.547   0.030   0.225  0.00  0.00    -0.042 C 
BRANCH   8  12
ATOM      9  C   UNL     1      -0.591   0.835   0.916  0.00  0.00    +0.000 A 
ATOM     10  C   UNL     1       0.370   1.723   1.362  0.00  0.00    +0.000 A 
ATOM     11  C   UNL     1       1.709   1.462   1.139  0.00  0.00    +0.002 A 
ATOM     12  C   UNL     1       2.087   0.313   0.469  0.00  0.00    -0.064 A 
ATOM     13  C   UNL     1       1.127  -0.575   0.024  0.00  0.00    +0.002 A 
ATOM     14  C   UNL     1      -0.212  -0.313   0.246  0.00  0.00    +0.000 A 
ENDBRANCH   8  12
ENDBRANCH   6   8
BRANCH   6  15
ATOM     15  C   UNL     1       3.442  -2.059   1.401  0.00  0.00    -0.042 C 
BRANCH  15  16
ATOM     16  C   UNL     1       3.872  -2.783   2.650  0.00  0.00    -0.064 A 
ATOM     17  C   UNL     1       4.914  -3.691   2.599  0.00  0.00    +0.002 A 
ATOM     18  C   UNL     1       5.308  -4.356   3.745  0.00  0.00    +0.000 A 
ATOM     19  C   UNL     1       4.662  -4.112   4.942  0.00  0.00    +0.000 A 
ATOM     20  C   UNL     1       3.621  -3.204   4.994  0.00  0.00    +0.000 A 
ATOM     21  C   UNL     1       3.229  -2.536   3.849  0.00  0.00    +0.002 A 
ENDBRANCH  15  16
ENDBRANCH   6  15
ENDBRANCH   5   6
ENDBRANCH   1   5
BRANCH   3  22
ATOM     22  C   UNL     1       8.108  -1.803   3.866  0.00  0.00    +0.109 C 
BRANCH  22  23
ATOM     23  C   UNL     1       9.580  -2.165   3.659  0.00  0.00    +0.054 C 
BRANCH  23  24
ATOM     24  C   UNL     1      10.222  -2.442   4.994  0.00  0.00    -0.046 A 
ATOM     25  C   UNL     1      10.809  -1.413   5.705  0.00  0.00    +0.005 A 
ATOM     26  C   UNL     1      11.399  -1.667   6.930  0.00  0.00    +0.029 A 
ATOM     27  C   UNL     1      11.400  -2.950   7.443  0.00  0.00    +0.105 A 
ATOM     28  C   UNL     1      10.812  -3.980   6.732  0.00  0.00    +0.029 A 
ATOM     29  C   UNL     1      10.219  -3.725   5.509  0.00  0.00    +0.005 A 
BRANCH  27  30
ATOM     30  S   UNL     1      12.152  -3.275   9.003  0.00  0.00    +0.056 S 
ATOM     31  O   UNL     1      12.499  -4.652   9.008  0.00  0.00    -0.153 OA
ATOM     32  O   UNL     1      13.110  -2.247   9.213  0.00  0.00    -0.153 OA
BRANCH  30  33
ATOM     33  N   UNL     1      10.984  -3.077  10.160  0.00  0.00    -0.204 NA
ATOM     34  H   UNL     1      11.023  -3.592  10.981  0.00  0.00    +0.144 HD
ATOM     35  H   UNL     1      10.261  -2.446  10.017  0.00  0.00    +0.144 HD
ENDBRANCH  30  33
ENDBRANCH  27  30
ENDBRANCH  23  24
ENDBRANCH  22  23
ENDBRANCH   3  22
TORSDOF 11
