REMARK  Name = ZINC43286576
REMARK  8 active torsions:
REMARK  status: ('A' for Active; 'I' for Inactive)
REMARK    1  A    between atoms: C_1  and  C_2
REMARK    2  A    between atoms: C_2  and  C_4
REMARK    3  A    between atoms: C_2  and  N_20
REMARK    4  A    between atoms: C_4  and  C_6
REMARK    5  A    between atoms: C_4  and  N_12
REMARK    6  A    between atoms: N_12  and  C_13
REMARK    7  A    between atoms: N_12  and  C_14
REMARK    8  A    between atoms: C_14  and  C_15
REMARK                            x       y       z     vdW  Elec       q    Type
REMARK                         _______ _______ _______ _____ _____    ______ ____
ROOT
ATOM      1  C   UNL     1       0.788  -0.413   1.211  0.00  0.00    +0.079 C 
ENDROOT
BRANCH   1   2
ATOM      2  C   UNL     1       0.802  -1.907   1.020  0.00  0.00    +0.006 A 
ATOM      3  C   UNL     1       1.811  -2.703   0.588  0.00  0.00    +0.028 A 
ATOM      4  C   UNL     1       1.596  -4.065   0.489  0.00  0.00    +0.025 A 
ATOM      5  C   UNL     1       0.381  -4.564   0.827  0.00  0.00    +0.060 A 
ATOM      6  S   UNL     1      -0.503  -3.091   1.310  0.00  0.00    -0.099 S 
ATOM      7 BR   UNL     1       2.974  -5.214  -0.108  0.00  0.00    -0.050 Br
ENDBRANCH   1   2
BRANCH   1   9
ATOM      8  C   UNL     1      -0.281   1.721   0.472  0.00  0.00    -0.012 C 
ATOM      9  C   UNL     1      -0.156   0.223   0.188  0.00  0.00    -0.056 C 
BRANCH   9  10
ATOM     10  N   UNL     1       0.383   0.024  -1.164  0.00  0.00    +0.381 N 
ATOM     11  H   UNL     1       1.292   0.456  -1.231  0.00  0.00    -0.090 HD
ATOM     12  H   UNL     1       0.465  -0.964  -1.351  0.00  0.00    -0.090 HD
ATOM     13  H   UNL     1      -0.239   0.443  -1.839  0.00  0.00    -0.090 HD
ENDBRANCH   9  10
ENDBRANCH   1   9
BRANCH   1  14
ATOM     14  N   UNL     1       0.322  -0.097   2.568  0.00  0.00    -0.295 NA
ATOM     15  C   UNL     1       1.277  -0.576   3.577  0.00  0.00    +0.105 C 
BRANCH  14  16
ATOM     16  C   UNL     1      -1.018  -0.650   2.807  0.00  0.00    +0.123 C 
BRANCH  16  17
ATOM     17  C   UNL     1      -1.627   0.015   4.015  0.00  0.00    +0.004 A 
ATOM     18  C   UNL     1      -1.514  -0.412   5.358  0.00  0.00    +0.046 A 
ATOM     19  C   UNL     1      -2.207   0.466   6.105  0.00  0.00    +0.195 A 
ATOM     20  O   UNL     1      -2.731   1.396   5.290  0.00  0.00    -0.471 OA
ATOM     21  C   UNL     1      -2.379   1.130   4.022  0.00  0.00    +0.199 A 
ENDBRANCH  16  17
ENDBRANCH  14  16
ENDBRANCH   1  14
TORSDOF 6
