REMARK  Name = ZINC18102541
REMARK  11 active torsions:
REMARK  status: ('A' for Active; 'I' for Inactive)
REMARK    1  A    between atoms: C_1  and  C_2
REMARK    2  A    between atoms: C_6  and  O_9
REMARK    3  A    between atoms: C_7  and  C_8
REMARK    4  A    between atoms: O_9  and  C_10
REMARK    5  A    between atoms: C_10  and  C_12
REMARK    6  A    between atoms: C_10  and  C_13
REMARK    7  A    between atoms: N_15  and  N_16
REMARK    8  A    between atoms: C_17  and  C_19
REMARK    9  A    between atoms: C_19  and  S_20
REMARK   10  A    between atoms: S_20  and  C_21
REMARK   11  A    between atoms: C_21  and  C_22
REMARK                            x       y       z     vdW  Elec       q    Type
REMARK                         _______ _______ _______ _____ _____    ______ ____
ROOT
ATOM      1  N   UNL     1      -2.167  -4.092  -1.166  0.00  0.00    -0.234 N 
ATOM      2  C   UNL     1      -3.265  -4.868  -1.261  0.00  0.00    +0.239 C 
ATOM      3  O   UNL     1      -4.331  -4.463  -0.848  0.00  0.00    -0.273 OA
ATOM      4  H   UNL     1      -1.315  -4.416  -1.496  0.00  0.00    +0.173 HD
ENDROOT
BRANCH   1   7
ATOM      5  C   UNL     1      -1.159  -2.041  -0.497  0.00  0.00    +0.270 C 
ATOM      6  O   UNL     1      -0.093  -2.446  -0.910  0.00  0.00    -0.270 OA
ATOM      7  N   UNL     1      -2.257  -2.817  -0.592  0.00  0.00    -0.231 N 
ATOM      8  H   UNL     1      -3.110  -2.493  -0.261  0.00  0.00    +0.173 HD
BRANCH   5   9
ATOM      9  C   UNL     1      -1.256  -0.671   0.121  0.00  0.00    +0.257 C 
ATOM     10  C   UNL     1      -1.625  -0.803   1.600  0.00  0.00    +0.062 C 
BRANCH   9  11
ATOM     11  O   UNL     1       0.002  -0.004   0.002  0.00  0.00    -0.480 OA
BRANCH  11  17
ATOM     12  C   UNL     1       2.398   4.222  -0.466  0.00  0.00    +0.044 C 
ATOM     13  C   UNL     1       1.130   3.448  -0.214  0.00  0.00    -0.044 A 
ATOM     14  C   UNL     1      -0.054   4.121   0.025  0.00  0.00    +0.004 A 
ATOM     15  C   UNL     1      -1.219   3.414   0.257  0.00  0.00    +0.004 A 
ATOM     16  C   UNL     1      -1.204   2.032   0.244  0.00  0.00    +0.046 A 
ATOM     17  C   UNL     1      -0.016   1.355   0.010  0.00  0.00    +0.125 A 
ATOM     18  C   UNL     1       1.152   2.067  -0.222  0.00  0.00    -0.006 A 
ATOM     19  C   UNL     1       2.443   1.334  -0.482  0.00  0.00    +0.048 C 
ENDBRANCH  11  17
ENDBRANCH   9  11
ENDBRANCH   5   9
ENDBRANCH   1   7
BRANCH   2  20
ATOM     20  C   UNL     1      -3.168  -6.238  -1.879  0.00  0.00    +0.166 C 
BRANCH  20  21
ATOM     21  S   UNL     1      -4.802  -7.027  -1.861  0.00  0.00    -0.144 S 
BRANCH  21  22
ATOM     22  C   UNL     1      -4.516  -8.646  -2.629  0.00  0.00    +0.143 C 
BRANCH  22  23
ATOM     23  C   UNL     1      -5.811  -9.414  -2.676  0.00  0.00    +0.121 A 
ATOM     24  N   UNL     1      -5.827 -10.661  -3.216  0.00  0.00    -0.310 N 
ATOM     25  H   UNL     1      -5.004 -11.038  -3.563  0.00  0.00    +0.170 HD
ATOM     26  C   UNL     1      -6.962 -11.382  -3.278  0.00  0.00    +0.260 A 
ATOM     27  O   UNL     1      -6.962 -12.499  -3.765  0.00  0.00    -0.267 OA
ATOM     28  C   UNL     1      -8.171 -10.812  -2.761  0.00  0.00    +0.075 A 
ATOM     29  C   UNL     1      -9.513 -11.411  -2.725  0.00  0.00    -0.023 A 
ATOM     30  C   UNL     1     -10.495 -10.671  -2.183  0.00  0.00    -0.004 A 
ATOM     31  S   UNL     1      -9.709  -9.152  -1.696  0.00  0.00    -0.073 S 
ATOM     32  C   UNL     1      -8.057  -9.523  -2.224  0.00  0.00    +0.116 A 
ATOM     33  N   UNL     1      -6.897  -8.871  -2.193  0.00  0.00    -0.226 NA
ATOM     34  C   UNL     1     -11.819 -11.386  -2.196  0.00  0.00    +0.043 C 
ATOM     35  C   UNL     1     -11.457 -12.868  -2.438  0.00  0.00    +0.010 C 
ATOM     36  C   UNL     1     -10.112 -12.745  -3.181  0.00  0.00    +0.037 C 
ENDBRANCH  22  23
ENDBRANCH  21  22
ENDBRANCH  20  21
ENDBRANCH   2  20
TORSDOF 8
