REMARK  Name = ZINC65798777
REMARK  6 active torsions:
REMARK  status: ('A' for Active; 'I' for Inactive)
REMARK    1  A    between atoms: C_8  and  C_10
REMARK    2  A    between atoms: C_10  and  N_11
REMARK    3  A    between atoms: N_14  and  C_15
REMARK    4  A    between atoms: C_19  and  C_21
REMARK    5  A    between atoms: C_21  and  N_22
REMARK    6  A    between atoms: C_26  and  C_27
REMARK                            x       y       z     vdW  Elec       q    Type
REMARK                         _______ _______ _______ _____ _____    ______ ____
ROOT
ATOM      1  C   UNL     1       5.877  -6.289  -3.296  0.00  0.00    +0.035 A 
ATOM      2  C   UNL     1       6.409  -7.084  -2.289  0.00  0.00    +0.023 A 
ATOM      3  C   UNL     1       7.234  -8.144  -2.611  0.00  0.00    +0.002 A 
ATOM      4  C   UNL     1       7.531  -8.413  -3.935  0.00  0.00    +0.002 A 
ATOM      5  C   UNL     1       7.003  -7.624  -4.940  0.00  0.00    -0.062 A 
ATOM      6  C   UNL     1       6.173  -6.566  -4.625  0.00  0.00    +0.025 A 
ENDROOT
BRANCH   1  10
ATOM      7  N   UNL     1       4.520  -3.406  -1.593  0.00  0.00    -0.292 N 
ATOM      8  C   UNL     1       5.267  -4.496  -1.856  0.00  0.00    +0.304 C 
ATOM      9  O   UNL     1       6.145  -4.833  -1.084  0.00  0.00    -0.252 OA
ATOM     10  N   UNL     1       5.041  -5.214  -2.974  0.00  0.00    -0.269 N 
ATOM     11  H   UNL     1       3.820  -3.137  -2.208  0.00  0.00    +0.151 HD
ATOM     12  H   UNL     1       4.298  -4.987  -3.554  0.00  0.00    +0.156 HD
BRANCH   7  13
ATOM     13  C   UNL     1       4.766  -2.625  -0.377  0.00  0.00    +0.180 C 
BRANCH  13  21
ATOM     14  C   UNL     1       0.573   1.737   0.100  0.00  0.00    +0.001 A 
ATOM     15  C   UNL     1       1.526   2.470  -0.592  0.00  0.00    +0.004 A 
ATOM     16  C   UNL     1       2.726   1.896  -0.956  0.00  0.00    +0.047 A 
ATOM     17  C   UNL     1       2.986   0.571  -0.629  0.00  0.00    +0.135 A 
ATOM     18  C   UNL     1       2.016  -0.165   0.072  0.00  0.00    +0.020 A 
ATOM     19  C   UNL     1       0.809   0.432   0.432  0.00  0.00    +0.011 A 
ATOM     20  C   UNL     1       2.595  -1.502   0.255  0.00  0.00    +0.055 A 
ATOM     21  C   UNL     1       3.804  -1.467  -0.321  0.00  0.00    +0.123 A 
ATOM     22  O   UNL     1       4.035  -0.249  -0.841  0.00  0.00    -0.458 OA
ENDBRANCH  13  21
ENDBRANCH   7  13
ENDBRANCH   1  10
BRANCH   5  23
ATOM     23  C   UNL     1       7.330  -7.921  -6.380  0.00  0.00    -0.042 C 
BRANCH  23  24
ATOM     24  N   UNL     1       6.334  -8.852  -6.926  0.00  0.00    +0.390 N 
ATOM     25  C   UNL     1       5.014  -8.181  -7.042  0.00  0.00    -0.077 C 
ATOM     26  C   UNL     1       4.274  -9.036  -8.101  0.00  0.00    -0.020 C 
ATOM     27  C   UNL     1       5.397  -9.400  -9.099  0.00  0.00    -0.008 C 
ATOM     28  C   UNL     1       6.707  -9.248  -8.302  0.00  0.00    +0.019 C 
ATOM     29  H   UNL     1       6.261  -9.668  -6.337  0.00  0.00    -0.080 HD
BRANCH  28  30
ATOM     30  C   UNL     1       7.446 -10.561  -8.276  0.00  0.00    +0.197 C 
ATOM     31  O   UNL     1       7.649 -11.122  -7.220  0.00  0.00    -0.278 OA
ATOM     32  N   UNL     1       7.882 -11.112  -9.426  0.00  0.00    -0.331 N 
ATOM     33  H   UNL     1       7.719 -10.664 -10.271  0.00  0.00    +0.145 HD
ATOM     34  H   UNL     1       8.358 -11.957  -9.409  0.00  0.00    +0.145 HD
ENDBRANCH  28  30
ENDBRANCH  23  24
ENDBRANCH   5  23
TORSDOF 6
