REMARK  Name = ZINC38596935
REMARK  4 active torsions:
REMARK  status: ('A' for Active; 'I' for Inactive)
REMARK    1  A    between atoms: C_1  and  C_2
REMARK    2  A    between atoms: C_2  and  C_3
REMARK    3  A    between atoms: N_12  and  C_13
REMARK    4  A    between atoms: C_13  and  N_14
REMARK                            x       y       z     vdW  Elec       q    Type
REMARK                         _______ _______ _______ _____ _____    ______ ____
ROOT
ATOM      1  N   UNL     1      -2.398   1.587   2.642  0.00  0.00    -0.250 N 
ATOM      2  C   UNL     1      -3.587   1.666   3.370  0.00  0.00    +0.053 A 
ATOM      3  C   UNL     1      -4.901   1.428   3.004  0.00  0.00    +0.073 A 
ATOM      4  C   UNL     1      -5.928   1.579   3.930  0.00  0.00    +0.164 A 
ATOM      5  C   UNL     1      -5.644   1.970   5.238  0.00  0.00    +0.163 A 
ATOM      6  C   UNL     1      -4.338   2.212   5.618  0.00  0.00    +0.063 A 
ATOM      7  C   UNL     1      -3.305   2.062   4.689  0.00  0.00    +0.052 A 
ATOM      8  C   UNL     1      -1.846   2.238   4.773  0.00  0.00    +0.250 C 
ATOM      9  O   UNL     1      -1.197   2.576   5.742  0.00  0.00    -0.282 OA
ATOM     10  C   UNL     1      -1.337   1.905   3.403  0.00  0.00    +0.292 C 
ATOM     11  O   UNL     1      -0.178   1.921   3.046  0.00  0.00    -0.266 OA
ATOM     12  O   UNL     1      -6.641   2.114   6.155  0.00  0.00    -0.485 OA
ATOM     13  C   UNL     1      -7.974   2.223   5.644  0.00  0.00    +0.270 C 
ATOM     14  C   UNL     1      -8.170   1.133   4.581  0.00  0.00    +0.270 C 
ATOM     15  O   UNL     1      -7.209   1.342   3.541  0.00  0.00    -0.485 OA
ENDROOT
BRANCH   1  16
ATOM     16  C   UNL     1      -2.318   1.201   1.231  0.00  0.00    +0.201 C 
BRANCH  16  25
ATOM     17  C   UNL     1      -1.488  -0.627  -0.122  0.00  0.00    +0.089 C 
ATOM     18  C   UNL     1      -1.372  -2.147  -0.186  0.00  0.00    -0.020 A 
ATOM     19  C   UNL     1      -0.488  -2.824  -1.023  0.00  0.00    +0.013 A 
ATOM     20  C   UNL     1      -0.450  -4.177  -1.014  0.00  0.00    +0.046 A 
ATOM     21  S   UNL     1      -1.692  -4.573   0.208  0.00  0.00    -0.101 S 
ATOM     22  C   UNL     1      -2.166  -2.916   0.611  0.00  0.00    -0.004 A 
ATOM     23  C   UNL     1      -3.190  -2.430   1.585  0.00  0.00    +0.058 C 
ATOM     24  C   UNL     1      -3.449  -0.943   1.290  0.00  0.00    +0.091 C 
ATOM     25  N   UNL     1      -2.159  -0.256   1.131  0.00  0.00    -0.279 NA
BRANCH  17  27
ATOM     26  C   UNL     1       0.745  -0.552   0.996  0.00  0.00    +0.006 C 
ATOM     27  C   UNL     1      -0.092  -0.003  -0.162  0.00  0.00    +0.020 C 
ENDBRANCH  17  27
ENDBRANCH  16  25
ENDBRANCH   1  16
TORSDOF 3
