REMARK  Name = ZINC09403452
REMARK  7 active torsions:
REMARK  status: ('A' for Active; 'I' for Inactive)
REMARK    1  A    between atoms: C_3  and  N_8
REMARK    2  A    between atoms: C_9  and  C_11
REMARK    3  A    between atoms: C_11  and  C_12
REMARK    4  A    between atoms: N_16  and  C_27
REMARK    5  A    between atoms: N_18  and  C_19
REMARK    6  A    between atoms: C_27  and  C_28
REMARK    7  A    between atoms: C_28  and  N_57
REMARK                            x       y       z     vdW  Elec       q    Type
REMARK                         _______ _______ _______ _____ _____    ______ ____
ROOT
ATOM      1  C   UNL     1      -2.311   5.644   0.360  0.00  0.00    +0.149 C 
ATOM      2  C   UNL     1      -3.608   6.413   0.551  0.00  0.00    +0.235 C 
ATOM      3  O   UNL     1      -4.488   6.408  -0.283  0.00  0.00    -0.274 OA
ATOM      4  N   UNL     1      -3.716   7.089   1.682  0.00  0.00    -0.252 N 
ATOM      5  C   UNL     1      -2.718   7.098   2.634  0.00  0.00    +0.164 C 
ATOM      6  N   UNL     1      -2.704   7.723   3.788  0.00  0.00    -0.226 NA
ATOM      7  S   UNL     1      -1.448   6.060   1.927  0.00  0.00    -0.077 S 
ENDROOT
BRANCH   6   8
ATOM      8  C   UNL     1      -1.615   7.616   4.612  0.00  0.00    +0.067 A 
ATOM      9  C   UNL     1      -1.030   6.369   4.842  0.00  0.00    +0.030 A 
ATOM     10  C   UNL     1       0.069   6.268   5.669  0.00  0.00    +0.040 A 
ATOM     11  C   UNL     1       0.587   7.399   6.279  0.00  0.00    +0.124 A 
ATOM     12  C   UNL     1       0.007   8.638   6.059  0.00  0.00    +0.040 A 
ATOM     13  C   UNL     1      -1.089   8.752   5.230  0.00  0.00    +0.030 A 
ATOM     14  F   UNL     1       1.661   7.294   7.092  0.00  0.00    -0.205 F 
ENDBRANCH   6   8
BRANCH   1  15
ATOM     15  C   UNL     1      -2.569   4.140   0.252  0.00  0.00    +0.120 C 
BRANCH  15  17
ATOM     16  N   UNL     1      -1.237   2.069   0.019  0.00  0.00    -0.285 N 
ATOM     17  C   UNL     1      -1.256   3.412   0.128  0.00  0.00    +0.219 C 
ATOM     18  O   UNL     1      -0.215   4.035   0.127  0.00  0.00    -0.275 OA
ATOM     19  H   UNL     1      -2.070   1.577  -0.057  0.00  0.00    +0.155 HD
BRANCH  16  22
ATOM     20  C   UNL     1       1.330  -0.455  -0.729  0.00  0.00    +0.003 A 
ATOM     21  C   UNL     1       0.126   0.222  -0.732  0.00  0.00    +0.023 A 
ATOM     22  C   UNL     1      -0.017   1.384   0.015  0.00  0.00    +0.035 A 
ATOM     23  C   UNL     1       1.051   1.861   0.764  0.00  0.00    +0.043 A 
ATOM     24  C   UNL     1       2.253   1.179   0.762  0.00  0.00    +0.043 A 
ATOM     25  C   UNL     1       2.392   0.022   0.016  0.00  0.00    +0.020 A 
ATOM     26 CL   UNL     1       3.589   1.775   1.697  0.00  0.00    -0.083 Cl
ENDBRANCH  16  22
ENDBRANCH  15  17
ENDBRANCH   1  15
BRANCH   4  27
ATOM     27  C   UNL     1      -4.940   7.854   1.934  0.00  0.00    +0.097 C 
BRANCH  27  28
ATOM     28  C   UNL     1      -4.775   9.274   1.390  0.00  0.00    -0.059 C 
BRANCH  28  34
ATOM     29  C   UNL     1      -7.128   9.504   0.865  0.00  0.00    -0.050 C 
ATOM     30  C   UNL     1      -8.396  10.293   1.203  0.00  0.00    +0.141 C 
ATOM     31  O   UNL     1      -8.171  11.681   0.943  0.00  0.00    -0.383 OA
ATOM     32  C   UNL     1      -7.082  12.237   1.684  0.00  0.00    +0.141 C 
ATOM     33  C   UNL     1      -5.801  11.468   1.351  0.00  0.00    -0.050 C 
ATOM     34  N   UNL     1      -6.009  10.040   1.669  0.00  0.00    +0.384 N 
ATOM     35  H   UNL     1      -6.240   9.949   2.665  0.00  0.00    -0.082 HD
ENDBRANCH  28  34
ENDBRANCH  27  28
ENDBRANCH   4  27
TORSDOF 7
