REMARK  Name = ZINC21378134
REMARK  11 active torsions:
REMARK  status: ('A' for Active; 'I' for Inactive)
REMARK    1  A    between atoms: C_1  and  C_2
REMARK    2  A    between atoms: C_5  and  S_9
REMARK    3  A    between atoms: S_9  and  N_12
REMARK    4  A    between atoms: N_12  and  C_13
REMARK    5  A    between atoms: C_17  and  C_19
REMARK    6  A    between atoms: N_21  and  N_22
REMARK    7  A    between atoms: N_22  and  C_23
REMARK    8  A    between atoms: C_23  and  N_25
REMARK    9  A    between atoms: N_25  and  C_26
REMARK   10  A    between atoms: C_30  and  O_32
REMARK   11  A    between atoms: O_32  and  C_33
REMARK                            x       y       z     vdW  Elec       q    Type
REMARK                         _______ _______ _______ _____ _____    ______ ____
ROOT
ATOM      1  C   UNL     1      -2.575  12.110   0.388  0.00  0.00    +0.049 A 
ATOM      2  C   UNL     1      -3.698  11.302   0.252  0.00  0.00    +0.024 A 
ATOM      3  C   UNL     1      -3.557   9.946   0.029  0.00  0.00    +0.003 A 
ATOM      4  C   UNL     1      -2.299   9.385  -0.066  0.00  0.00    +0.013 A 
ATOM      5  C   UNL     1      -1.165  10.186   0.074  0.00  0.00    +0.040 A 
ATOM      6  C   UNL     1      -1.307  11.555   0.299  0.00  0.00    +0.037 A 
ENDROOT
BRANCH   5   7
ATOM      7  C   UNL     1       0.183   9.586  -0.022  0.00  0.00    +0.260 C 
ATOM      8  O   UNL     1       1.170  10.287   0.095  0.00  0.00    -0.269 OA
ATOM      9  N   UNL     1       0.319   8.263  -0.240  0.00  0.00    -0.231 N 
ATOM     10  H   UNL     1      -0.574   7.629  -0.345  0.00  0.00    +0.173 HD
BRANCH   9  11
ATOM     11  N   UNL     1       1.596   7.695  -0.331  0.00  0.00    -0.245 N 
ATOM     12  H   UNL     1       2.489   8.329  -0.225  0.00  0.00    +0.172 HD
BRANCH  11  13
ATOM     13  C   UNL     1       1.731   6.372  -0.548  0.00  0.00    +0.151 C 
ATOM     14  S   UNL     1       3.292   5.678  -0.660  0.00  0.00    -0.017 S 
BRANCH  13  15
ATOM     15  N   UNL     1       0.637   5.595  -0.678  0.00  0.00    -0.296 N 
ATOM     16  H   UNL     1      -0.363   6.052  -0.695  0.00  0.00    +0.154 HD
BRANCH  15  17
ATOM     17  C   UNL     1       0.774   4.207  -0.790  0.00  0.00    +0.036 A 
ATOM     18  C   UNL     1       1.693   3.533   0.004  0.00  0.00    +0.023 A 
ATOM     19  C   UNL     1       1.828   2.163  -0.106  0.00  0.00    +0.005 A 
ATOM     20  C   UNL     1       1.050   1.459  -1.006  0.00  0.00    +0.046 A 
ATOM     21  C   UNL     1       0.134   2.129  -1.806  0.00  0.00    +0.122 A 
ATOM     22  C   UNL     1      -0.008   3.503  -1.694  0.00  0.00    +0.069 A 
BRANCH  21  23
ATOM     23  O   UNL     1      -0.627   1.436  -2.694  0.00  0.00    -0.495 OA
ATOM     24  C   UNL     1      -0.431   0.022  -2.752  0.00  0.00    +0.277 C 
ENDBRANCH  21  23
ENDBRANCH  15  17
ENDBRANCH  13  15
ENDBRANCH  11  13
ENDBRANCH   9  11
ENDBRANCH   5   7
BRANCH   1  25
ATOM     25  N   UNL     1      -2.723  13.481   0.612  0.00  0.00    -0.216 N 
ATOM     26  H   UNL     1      -2.116  13.981   1.381  0.00  0.00    +0.174 HD
BRANCH  25  27
ATOM     27  S   UNL     1      -3.812  14.353  -0.280  0.00  0.00    +0.072 S 
ATOM     28  O   UNL     1      -5.052  13.664  -0.194  0.00  0.00    -0.150 OA
ATOM     29  O   UNL     1      -3.666  15.710   0.115  0.00  0.00    -0.150 OA
BRANCH  27  34
ATOM     30  C   UNL     1      -2.055  14.040  -6.045  0.00  0.00    +0.047 C 
ATOM     31  C   UNL     1      -2.494  14.118  -4.605  0.00  0.00    -0.015 A 
ATOM     32  C   UNL     1      -1.946  15.069  -3.766  0.00  0.00    +0.008 A 
ATOM     33  C   UNL     1      -2.353  15.144  -2.447  0.00  0.00    +0.029 A 
ATOM     34  C   UNL     1      -3.300  14.261  -1.963  0.00  0.00    +0.111 A 
ATOM     35  C   UNL     1      -3.849  13.309  -2.800  0.00  0.00    +0.067 A 
ATOM     36  C   UNL     1      -3.447  13.236  -4.123  0.00  0.00    +0.128 A 
ATOM     37  F   UNL     1      -3.982  12.305  -4.943  0.00  0.00    -0.205 F 
ENDBRANCH  27  34
ENDBRANCH  25  27
ENDBRANCH   1  25
TORSDOF 9
