REMARK  Name = ZINC12496530
REMARK  10 active torsions:
REMARK  status: ('A' for Active; 'I' for Inactive)
REMARK    1  A    between atoms: C_1  and  C_2
REMARK    2  A    between atoms: C_2  and  N_3
REMARK    3  A    between atoms: C_8  and  C_27
REMARK    4  A    between atoms: C_10  and  C_15
REMARK    5  A    between atoms: C_10  and  C_23
REMARK    6  A    between atoms: C_15  and  C_16
REMARK    7  A    between atoms: C_19  and  O_22
REMARK    8  A    between atoms: C_23  and  O_25
REMARK    9  A    between atoms: O_25  and  C_26
REMARK   10  A    between atoms: C_30  and  O_33
REMARK                            x       y       z     vdW  Elec       q    Type
REMARK                         _______ _______ _______ _____ _____    ______ ____
ROOT
ATOM      1  N   UNL     1      -2.103   1.072   1.277  0.00  0.00    -0.242 N 
ATOM      2  C   UNL     1      -3.165   1.741   0.726  0.00  0.00    +0.224 C 
ATOM      3  O   UNL     1      -3.125   2.668  -0.054  0.00  0.00    -0.275 OA
ATOM      4  C   UNL     1      -4.370   1.089   1.282  0.00  0.00    +0.077 C 
ATOM      5  C   UNL     1      -5.663   0.799   0.558  0.00  0.00    -0.027 C 
ATOM      6  C   UNL     1      -4.987  -1.124   1.855  0.00  0.00    +0.048 C 
ATOM      7  C   UNL     1      -3.810  -0.388   1.326  0.00  0.00    +0.086 C 
ATOM      8  C   UNL     1      -2.470  -0.122   1.845  0.00  0.00    +0.225 C 
ATOM      9  O   UNL     1      -1.825  -0.806   2.610  0.00  0.00    -0.275 OA
ATOM     10  N   UNL     1      -6.157  -0.413   1.278  0.00  0.00    +0.396 N 
ATOM     11  H   UNL     1      -6.649  -1.031   0.622  0.00  0.00    -0.083 HD
ATOM     12  H   UNL     1      -6.798  -0.133   2.030  0.00  0.00    -0.083 HD
ENDROOT
BRANCH   5  13
ATOM     13  C   UNL     1      -6.627   1.948   0.701  0.00  0.00    -0.060 A 
ATOM     14  C   UNL     1      -7.371   2.084   1.859  0.00  0.00    +0.005 A 
ATOM     15  C   UNL     1      -8.252   3.140   1.995  0.00  0.00    +0.045 A 
ATOM     16  C   UNL     1      -8.397   4.057   0.964  0.00  0.00    +0.117 A 
ATOM     17  C   UNL     1      -7.654   3.915  -0.198  0.00  0.00    +0.045 A 
ATOM     18  C   UNL     1      -6.770   2.861  -0.327  0.00  0.00    +0.005 A 
BRANCH  16  19
ATOM     19  O   UNL     1      -9.268   5.093   1.093  0.00  0.00    -0.507 OA
ATOM     20  H   UNL     1     -10.161   4.897   0.780  0.00  0.00    +0.292 HD
ENDBRANCH  16  19
ENDBRANCH   5  13
BRANCH   1  22
ATOM     21  C   UNL     1      -0.013   1.086   0.008  0.00  0.00    +0.025 C 
ATOM     22  C   UNL     1      -0.729   1.579   1.267  0.00  0.00    +0.113 C 
ENDBRANCH   1  22
BRANCH   6  23
ATOM     23  C   UNL     1      -4.953  -2.562   1.405  0.00  0.00    +0.297 C 
ATOM     24  O   UNL     1      -3.900  -3.081   1.121  0.00  0.00    -0.252 OA
BRANCH  23  25
ATOM     25  O   UNL     1      -6.093  -3.265   1.320  0.00  0.00    -0.469 OA
ATOM     26  C   UNL     1      -5.985  -4.644   0.879  0.00  0.00    +0.280 C 
ENDBRANCH  23  25
ENDBRANCH   6  23
BRANCH   6  27
ATOM     27  C   UNL     1      -5.026  -1.042   3.382  0.00  0.00    +0.034 C 
BRANCH  27  28
ATOM     28  C   UNL     1      -6.226  -1.794   3.895  0.00  0.00    -0.048 A 
ATOM     29  C   UNL     1      -7.431  -1.138   4.065  0.00  0.00    +0.007 A 
ATOM     30  C   UNL     1      -8.535  -1.827   4.530  0.00  0.00    +0.045 A 
ATOM     31  C   UNL     1      -8.430  -3.175   4.838  0.00  0.00    +0.117 A 
ATOM     32  C   UNL     1      -7.218  -3.830   4.672  0.00  0.00    +0.045 A 
ATOM     33  C   UNL     1      -6.119  -3.138   4.201  0.00  0.00    +0.007 A 
BRANCH  31  34
ATOM     34  O   UNL     1      -9.512  -3.854   5.301  0.00  0.00    -0.507 OA
ATOM     35  H   UNL     1      -9.600  -3.843   6.264  0.00  0.00    +0.292 HD
ENDBRANCH  31  34
ENDBRANCH  27  28
ENDBRANCH   6  27
TORSDOF 8
