REMARK  Name = ZINC02495418
REMARK  9 active torsions:
REMARK  status: ('A' for Active; 'I' for Inactive)
REMARK    1  A    between atoms: N_7  and  C_15
REMARK    2  A    between atoms: C_15  and  C_16
REMARK    3  A    between atoms: C_16  and  C_18
REMARK    4  A    between atoms: C_16  and  O_23
REMARK    5  A    between atoms: C_18  and  N_44
REMARK    6  A    between atoms: C_19  and  C_20
REMARK    7  A    between atoms: C_19  and  N_44
REMARK    8  A    between atoms: C_20  and  C_21
REMARK    9  A    between atoms: C_21  and  O_22
REMARK                            x       y       z     vdW  Elec       q    Type
REMARK                         _______ _______ _______ _____ _____    ______ ____
ROOT
ATOM      1  C   UNL     1      -6.419   3.640  -1.160  0.00  0.00    +0.002 A 
ATOM      2  C   UNL     1      -7.387   2.986  -0.421  0.00  0.00    +0.001 A 
ATOM      3  C   UNL     1      -7.347   1.607  -0.292  0.00  0.00    +0.017 A 
ATOM      4  C   UNL     1      -6.337   0.890  -0.905  0.00  0.00    +0.034 A 
ATOM      5  C   UNL     1      -5.356   1.546  -1.653  0.00  0.00    +0.048 A 
ATOM      6  C   UNL     1      -5.406   2.926  -1.776  0.00  0.00    +0.024 A 
ATOM      7  N   UNL     1      -4.335   0.819  -2.274  0.00  0.00    -0.296 N 
ATOM      8  C   UNL     1      -4.570  -0.430  -2.861  0.00  0.00    +0.048 A 
ATOM      9  C   UNL     1      -3.927  -0.788  -4.032  0.00  0.00    +0.024 A 
ATOM     10  C   UNL     1      -4.164  -2.026  -4.602  0.00  0.00    +0.002 A 
ATOM     11  C   UNL     1      -5.038  -2.915  -4.007  0.00  0.00    +0.001 A 
ATOM     12  C   UNL     1      -5.685  -2.571  -2.832  0.00  0.00    +0.017 A 
ATOM     13  C   UNL     1      -5.451  -1.335  -2.258  0.00  0.00    +0.034 A 
ATOM     14  S   UNL     1      -6.260  -0.868  -0.759  0.00  0.00    -0.086 S 
ENDROOT
BRANCH   7  15
ATOM     15  C   UNL     1      -2.984   1.383  -2.316  0.00  0.00    +0.140 C 
BRANCH  15  16
ATOM     16  C   UNL     1      -2.207   0.938  -1.076  0.00  0.00    +0.115 C 
BRANCH  16  17
ATOM     17  O   UNL     1      -2.879   1.399   0.098  0.00  0.00    -0.392 OA
ATOM     18  H   UNL     1      -2.969   2.361   0.147  0.00  0.00    +0.210 HD
ENDBRANCH  16  17
BRANCH  16  19
ATOM     19  C   UNL     1      -0.795   1.527  -1.120  0.00  0.00    -0.049 C 
BRANCH  19  20
ATOM     20  N   UNL     1      -0.015   0.998   0.015  0.00  0.00    +0.381 N 
ATOM     21  H   UNL     1       0.032  -0.025  -0.054  0.00  0.00    -0.086 HD
ATOM     22  H   UNL     1      -0.475   1.261   0.894  0.00  0.00    -0.086 HD
BRANCH  20  23
ATOM     23  C   UNL     1       1.353   1.550  -0.003  0.00  0.00    -0.080 C 
BRANCH  23  24
ATOM     24  C   UNL     1       2.136   0.985   1.184  0.00  0.00    +0.009 C 
BRANCH  24  25
ATOM     25  C   UNL     1       3.557   1.552   1.173  0.00  0.00    +0.154 C 
BRANCH  25  26
ATOM     26  O   UNL     1       4.289   1.024   2.281  0.00  0.00    -0.395 OA
ATOM     27  H   UNL     1       5.201   1.342   2.337  0.00  0.00    +0.209 HD
ENDBRANCH  25  26
ENDBRANCH  24  25
ENDBRANCH  23  24
ENDBRANCH  20  23
ENDBRANCH  19  20
ENDBRANCH  16  19
ENDBRANCH  15  16
ENDBRANCH   7  15
TORSDOF 9
