REMARK  Name = ZINC36580965
REMARK  13 active torsions:
REMARK  status: ('A' for Active; 'I' for Inactive)
REMARK    1  A    between atoms: C_1  and  C_2
REMARK    2  A    between atoms: C_2  and  C_3
REMARK    3  A    between atoms: C_2  and  C_4
REMARK    4  A    between atoms: C_2  and  N_5
REMARK    5  A    between atoms: N_5  and  C_6
REMARK    6  A    between atoms: C_6  and  C_8
REMARK    7  A    between atoms: C_6  and  C_18
REMARK    8  A    between atoms: C_10  and  N_15
REMARK    9  A    between atoms: N_20  and  C_21
REMARK   10  A    between atoms: C_27  and  C_29
REMARK   11  A    between atoms: C_29  and  C_31
REMARK   12  A    between atoms: C_29  and  O_37
REMARK   13  A    between atoms: O_37  and  C_38
REMARK                            x       y       z     vdW  Elec       q    Type
REMARK                         _______ _______ _______ _____ _____    ______ ____
ROOT
ATOM      1  C   UNL     1       2.809  -0.831   0.281  0.00  0.00    +0.194 C 
ENDROOT
BRANCH   1   2
ATOM      2  C   UNL     1       2.961   0.518   0.936  0.00  0.00    +0.002 A 
ATOM      3  C   UNL     1       1.931   1.037   1.698  0.00  0.00    +0.040 A 
ATOM      4  C   UNL     1       2.071   2.274   2.298  0.00  0.00    +0.127 A 
ATOM      5  C   UNL     1       3.241   2.993   2.137  0.00  0.00    +0.034 A 
ATOM      6  C   UNL     1       4.271   2.475   1.376  0.00  0.00    +0.022 A 
ATOM      7  C   UNL     1       4.135   1.234   0.780  0.00  0.00    +0.047 A 
ATOM      8 CL   UNL     1       5.432   0.579  -0.170  0.00  0.00    -0.083 Cl
BRANCH   4   9
ATOM      9  N   UNL     1       0.967   2.830   3.112  0.00  0.00    +0.056 N 
ATOM     10  O   UNL     1      -0.056   2.202   3.253  0.00  0.00    -0.126 OA
ATOM     11  O   UNL     1       1.089   3.912   3.638  0.00  0.00    -0.126 OA
ENDBRANCH   4   9
ENDBRANCH   1   2
BRANCH   1  12
ATOM     12  C   UNL     1       3.490  -1.878   1.124  0.00  0.00    +0.238 C 
ATOM     13  O   UNL     1       2.861  -2.832   1.531  0.00  0.00    -0.273 OA
ATOM     14  N   UNL     1       4.797  -1.755   1.426  0.00  0.00    -0.311 N 
ATOM     15  H   UNL     1       5.300  -0.992   1.100  0.00  0.00    +0.149 HD
BRANCH  14  16
ATOM     16  C   UNL     1       5.459  -2.773   2.245  0.00  0.00    +0.073 C 
ATOM     17  C   UNL     1       5.239  -2.459   3.726  0.00  0.00    +0.022 C 
ATOM     18  C   UNL     1       5.930  -3.522   4.581  0.00  0.00    +0.002 C 
ATOM     19  C   UNL     1       7.430  -3.525   4.279  0.00  0.00    +0.000 C 
ATOM     20  C   UNL     1       7.651  -3.839   2.797  0.00  0.00    +0.002 C 
ATOM     21  C   UNL     1       6.959  -2.776   1.942  0.00  0.00    +0.022 C 
ENDBRANCH  14  16
ENDBRANCH   1  12
BRANCH   1  22
ATOM     22  N   UNL     1       1.385  -1.155   0.156  0.00  0.00    -0.278 N 
ATOM     23  C   UNL     1       0.620  -1.265   1.259  0.00  0.00    +0.250 C 
ATOM     24  O   UNL     1       1.062  -0.937   2.340  0.00  0.00    -0.272 OA
BRANCH  22  26
ATOM     25  C   UNL     1       1.908  -1.456  -2.215  0.00  0.00    +0.031 C 
ATOM     26  C   UNL     1       0.794  -1.358  -1.169  0.00  0.00    +0.030 C 
ATOM     27  C   UNL     1      -0.120  -0.179  -1.506  0.00  0.00    +0.031 C 
ATOM     28  C   UNL     1      -0.021  -2.653  -1.171  0.00  0.00    +0.031 C 
ENDBRANCH  22  26
BRANCH  23  29
ATOM     29  C   UNL     1      -0.786  -1.796   1.151  0.00  0.00    +0.233 C 
BRANCH  29  30
ATOM     30  C   UNL     1      -1.711  -0.686   0.720  0.00  0.00    -0.010 A 
ATOM     31  C   UNL     1      -1.816   0.461   1.484  0.00  0.00    +0.006 A 
ATOM     32  C   UNL     1      -2.664   1.479   1.088  0.00  0.00    +0.000 A 
ATOM     33  C   UNL     1      -3.406   1.349  -0.071  0.00  0.00    +0.000 A 
ATOM     34  C   UNL     1      -3.300   0.203  -0.835  0.00  0.00    +0.000 A 
ATOM     35  C   UNL     1      -2.449  -0.814  -0.442  0.00  0.00    +0.006 A 
ENDBRANCH  29  30
BRANCH  29  36
ATOM     36  O   UNL     1      -1.206  -2.299   2.421  0.00  0.00    -0.366 OA
ATOM     37  C   UNL     1      -0.907  -3.681   2.627  0.00  0.00    +0.195 C 
ENDBRANCH  29  36
ENDBRANCH  23  29
ENDBRANCH   1  22
TORSDOF 9
