REMARK  Name = ZINC05955370
REMARK  12 active torsions:
REMARK  status: ('A' for Active; 'I' for Inactive)
REMARK    1  A    between atoms: C_1  and  C_2
REMARK    2  A    between atoms: C_2  and  C_3
REMARK    3  A    between atoms: C_5  and  C_28
REMARK    4  A    between atoms: C_6  and  C_26
REMARK    5  A    between atoms: N_9  and  C_10
REMARK    6  A    between atoms: C_12  and  O_25
REMARK    7  A    between atoms: C_14  and  O_24
REMARK    8  A    between atoms: C_16  and  O_23
REMARK    9  A    between atoms: C_18  and  C_21
REMARK   10  A    between atoms: C_21  and  O_22
REMARK   11  A    between atoms: C_31  and  O_34
REMARK   12  A    between atoms: O_34  and  C_35
REMARK                            x       y       z     vdW  Elec       q    Type
REMARK                         _______ _______ _______ _____ _____    ______ ____
ROOT
ATOM      1  C   UNL     1       5.199   1.260  -0.793  0.00  0.00    +0.023 A 
ATOM      2  C   UNL     1       4.171   2.137  -0.749  0.00  0.00    +0.031 A 
ATOM      3  C   UNL     1       2.991   1.805  -0.053  0.00  0.00    +0.004 A 
ATOM      4  C   UNL     1       2.910   0.551   0.577  0.00  0.00    +0.090 A 
ATOM      5  C   UNL     1       4.018  -0.326   0.491  0.00  0.00    +0.107 A 
ATOM      6  S   UNL     1       3.955  -1.862   1.245  0.00  0.00    -0.031 S 
ATOM      7  N   UNL     1       5.120   0.048  -0.184  0.00  0.00    -0.309 N 
ENDROOT
BRANCH   7   8
ATOM      8  C   UNL     1       6.259  -0.870  -0.264  0.00  0.00    +0.252 C 
ATOM      9  C   UNL     1       5.907  -2.182   0.442  0.00  0.00    +0.195 C 
ATOM     10  C   UNL     1       4.728  -2.841  -0.280  0.00  0.00    +0.178 C 
ATOM     11  C   UNL     1       5.097  -3.053  -1.752  0.00  0.00    +0.177 C 
ATOM     12  C   UNL     1       5.480  -1.707  -2.372  0.00  0.00    +0.177 C 
ATOM     13  O   UNL     1       6.563  -1.134  -1.635  0.00  0.00    -0.346 OA
BRANCH  11  14
ATOM     14  O   UNL     1       6.203  -3.953  -1.841  0.00  0.00    -0.386 OA
ATOM     15  H   UNL     1       6.032  -4.826  -1.462  0.00  0.00    +0.210 HD
ENDBRANCH  11  14
BRANCH  10  16
ATOM     16  O   UNL     1       4.438  -4.101   0.328  0.00  0.00    -0.386 OA
ATOM     17  H   UNL     1       3.700  -4.574  -0.080  0.00  0.00    +0.210 HD
ENDBRANCH  10  16
BRANCH   9  18
ATOM     18  O   UNL     1       5.549  -1.913   1.798  0.00  0.00    -0.385 OA
ATOM     19  H   UNL     1       5.515  -2.700   2.360  0.00  0.00    +0.210 HD
ENDBRANCH   9  18
BRANCH  12  20
ATOM     20  C   UNL     1       5.909  -1.919  -3.826  0.00  0.00    +0.190 C 
BRANCH  20  21
ATOM     21  O   UNL     1       6.154  -0.652  -4.440  0.00  0.00    -0.392 OA
ATOM     22  H   UNL     1       6.430  -0.710  -5.365  0.00  0.00    +0.210 HD
ENDBRANCH  20  21
ENDBRANCH  12  20
ENDBRANCH   7   8
BRANCH   3  23
ATOM     23  C   UNL     1       1.860   2.754   0.009  0.00  0.00    -0.016 A 
ATOM     24  C   UNL     1       0.570   2.327  -0.314  0.00  0.00    +0.012 A 
ATOM     25  C   UNL     1      -0.481   3.216  -0.260  0.00  0.00    +0.046 A 
ATOM     26  C   UNL     1      -0.261   4.533   0.125  0.00  0.00    +0.120 A 
ATOM     27  C   UNL     1       1.022   4.962   0.446  0.00  0.00    +0.046 A 
ATOM     28  C   UNL     1       2.079   4.080   0.390  0.00  0.00    +0.012 A 
BRANCH  26  29
ATOM     29  O   UNL     1      -1.300   5.405   0.181  0.00  0.00    -0.495 OA
ATOM     30  C   UNL     1      -2.591   4.898  -0.162  0.00  0.00    +0.277 C 
ENDBRANCH  26  29
ENDBRANCH   3  23
BRANCH   1  32
ATOM     31  C   UNL     1       7.352   2.479  -0.630  0.00  0.00    +0.010 C 
ATOM     32  C   UNL     1       6.456   1.632  -1.536  0.00  0.00    +0.050 C 
ENDBRANCH   1  32
BRANCH   4  33
ATOM     33  C   UNL     1       1.729   0.168   1.291  0.00  0.00    +0.102 C 
ATOM     34  N   UNL     1       0.793  -0.136   1.858  0.00  0.00    -0.191 NA
ENDBRANCH   4  33
TORSDOF 10
