REMARK  Name = ZINC66385848
REMARK  8 active torsions:
REMARK  status: ('A' for Active; 'I' for Inactive)
REMARK    1  A    between atoms: C_1  and  C_2
REMARK    2  A    between atoms: N_4  and  C_5
REMARK    3  A    between atoms: C_14  and  C_17
REMARK    4  A    between atoms: N_19  and  C_20
REMARK    5  A    between atoms: N_23  and  C_25
REMARK    6  A    between atoms: C_25  and  C_26
REMARK    7  A    between atoms: N_28  and  C_29
REMARK    8  A    between atoms: N_28  and  C_30
REMARK                            x       y       z     vdW  Elec       q    Type
REMARK                         _______ _______ _______ _____ _____    ______ ____
ROOT
ATOM      1  C   UNL     1       0.020  -2.136  -1.177  0.00  0.00    +0.036 C 
ATOM      2  C   UNL     1      -1.215  -2.667  -0.447  0.00  0.00    +0.029 C 
ATOM      3  C   UNL     1      -1.195  -4.197  -0.455  0.00  0.00    -0.008 C 
ATOM      4  C   UNL     1       0.068  -4.694   0.252  0.00  0.00    +0.007 C 
ATOM      5  C   UNL     1       1.304  -4.163  -0.479  0.00  0.00    -0.008 C 
ATOM      6  C   UNL     1       1.283  -2.633  -0.470  0.00  0.00    +0.029 C 
ATOM      7  C   UNL     1       1.297  -4.665  -1.924  0.00  0.00    +0.020 C 
ATOM      8  C   UNL     1       0.034  -4.168  -2.631  0.00  0.00    +0.050 C 
ATOM      9  C   UNL     1      -1.201  -4.699  -1.900  0.00  0.00    +0.020 C 
ATOM     10  C   UNL     1       0.013  -2.639  -2.622  0.00  0.00    +0.042 C 
ENDROOT
BRANCH   1  14
ATOM     11  C   UNL     1      -0.018   1.503   0.010  0.00  0.00    +0.109 C 
ATOM     12  C   UNL     1       0.002  -0.004   0.002  0.00  0.00    +0.210 C 
ATOM     13  O   UNL     1       0.020  -0.616   1.049  0.00  0.00    -0.276 OA
ATOM     14  N   UNL     1       0.000  -0.672  -1.169  0.00  0.00    -0.310 N 
ATOM     15  H   UNL     1      -0.015  -0.182  -2.006  0.00  0.00    +0.149 HD
ENDBRANCH   1  14
BRANCH   8  16
ATOM     16  C   UNL     1       0.027  -4.663  -4.054  0.00  0.00    +0.224 C 
ATOM     17  O   UNL     1       0.008  -3.870  -4.972  0.00  0.00    -0.275 OA
ATOM     18  N   UNL     1       0.043  -5.987  -4.308  0.00  0.00    -0.283 N 
ATOM     19  H   UNL     1       0.058  -6.621  -3.574  0.00  0.00    +0.155 HD
BRANCH  18  20
ATOM     20  C   UNL     1       0.036  -6.449  -5.637  0.00  0.00    +0.071 A 
ATOM     21  C   UNL     1       0.021  -5.649  -6.789  0.00  0.00    +0.157 A 
ATOM     22  N   UNL     1       0.020  -6.435  -7.835  0.00  0.00    -0.177 NA
ATOM     23  N   UNL     1       0.035  -7.763  -7.390  0.00  0.00    -0.261 N 
ATOM     24  C   UNL     1       0.050  -7.747  -6.032  0.00  0.00    +0.132 A 
BRANCH  23  25
ATOM     25  C   UNL     1       0.040  -8.957  -8.239  0.00  0.00    +0.239 C 
BRANCH  25  26
ATOM     26  C   UNL     1      -1.132  -8.904  -9.186  0.00  0.00    +0.237 C 
ATOM     27  O   UNL     1      -1.895  -7.962  -9.155  0.00  0.00    -0.274 OA
ATOM     28  N   UNL     1      -1.331  -9.904 -10.067  0.00  0.00    -0.306 N 
ATOM     29  C   UNL     1      -2.470  -9.853 -10.988  0.00  0.00    +0.131 C 
ATOM     30  C   UNL     1      -0.410 -11.042 -10.105  0.00  0.00    +0.131 C 
ENDBRANCH  25  26
ENDBRANCH  23  25
ENDBRANCH  18  20
ENDBRANCH   8  16
TORSDOF 5
