REMARK  Name = ZINC43048601
REMARK  7 active torsions:
REMARK  status: ('A' for Active; 'I' for Inactive)
REMARK    1  A    between atoms: C_1  and  C_2
REMARK    2  A    between atoms: C_2  and  C_3
REMARK    3  A    between atoms: C_3  and  C_5
REMARK    4  A    between atoms: C_3  and  N_22
REMARK    5  A    between atoms: C_5  and  C_7
REMARK    6  A    between atoms: C_5  and  O_14
REMARK    7  A    between atoms: O_14  and  C_15
REMARK                            x       y       z     vdW  Elec       q    Type
REMARK                         _______ _______ _______ _____ _____    ______ ____
ROOT
ATOM      1  C   UNL     1       0.676  -2.119   1.295  0.00  0.00    +0.192 C 
ENDROOT
BRANCH   1   2
ATOM      2  C   UNL     1       1.408  -2.818   2.411  0.00  0.00    +0.026 A 
ATOM      3  C   UNL     1       0.734  -3.176   3.563  0.00  0.00    +0.010 A 
ATOM      4  C   UNL     1       1.405  -3.817   4.587  0.00  0.00    +0.001 A 
ATOM      5  C   UNL     1       2.752  -4.102   4.460  0.00  0.00    +0.003 A 
ATOM      6  C   UNL     1       3.429  -3.746   3.309  0.00  0.00    +0.039 A 
ATOM      7  C   UNL     1       2.756  -3.108   2.281  0.00  0.00    +0.130 A 
ATOM      8  F   UNL     1       3.415  -2.763   1.153  0.00  0.00    -0.205 F 
ENDBRANCH   1   2
BRANCH   1   9
ATOM      9  C   UNL     1       0.864  -0.607   1.430  0.00  0.00    -0.029 C 
BRANCH   9  10
ATOM     10  N   UNL     1       2.295  -0.282   1.356  0.00  0.00    +0.383 N 
ATOM     11  H   UNL     1       2.419   0.715   1.445  0.00  0.00    -0.089 HD
ATOM     12  H   UNL     1       2.785  -0.750   2.103  0.00  0.00    -0.089 HD
ATOM     13  H   UNL     1       2.664  -0.589   0.468  0.00  0.00    -0.089 HD
ENDBRANCH   9  10
BRANCH   9  15
ATOM     14  C   UNL     1       0.204   1.617   0.502  0.00  0.00    +0.002 C 
ATOM     15  C   UNL     1       0.121   0.103   0.297  0.00  0.00    -0.016 C 
ENDBRANCH   9  15
ENDBRANCH   1   9
BRANCH   1  16
ATOM     16  O   UNL     1      -0.716  -2.434   1.367  0.00  0.00    -0.485 OA
BRANCH  16  17
ATOM     17  C   UNL     1      -1.385  -2.547   0.189  0.00  0.00    +0.134 A 
ATOM     18  C   UNL     1      -0.710  -2.382  -1.012  0.00  0.00    +0.047 A 
ATOM     19  C   UNL     1      -1.392  -2.497  -2.207  0.00  0.00    +0.004 A 
ATOM     20  C   UNL     1      -2.747  -2.775  -2.208  0.00  0.00    +0.001 A 
ATOM     21  C   UNL     1      -3.422  -2.939  -1.013  0.00  0.00    +0.018 A 
ATOM     22  C   UNL     1      -2.743  -2.832   0.186  0.00  0.00    +0.055 A 
ATOM     23  I   UNL     1      -3.764  -3.090   1.997  0.00  0.00    -0.040 I 
ENDBRANCH  16  17
ENDBRANCH   1  16
TORSDOF 6
