REMARK  Name = ZINC38980976
REMARK  3 active torsions:
REMARK  status: ('A' for Active; 'I' for Inactive)
REMARK    1  A    between atoms: C_7  and  C_10
REMARK    2  A    between atoms: N_11  and  N_12
REMARK    3  A    between atoms: C_13  and  C_19
REMARK                            x       y       z     vdW  Elec       q    Type
REMARK                         _______ _______ _______ _____ _____    ______ ____
ROOT
ATOM      1  N   UNL     1       0.256  -5.433  -0.136  0.00  0.00    -0.182 N 
ATOM      2  C   UNL     1       0.611  -6.860  -0.156  0.00  0.00    +0.213 C 
ATOM      3  N   UNL     1      -0.685  -7.556  -0.277  0.00  0.00    -0.217 NA
ATOM      4  N   UNL     1      -1.639  -6.580  -0.316  0.00  0.00    -0.259 N 
ATOM      5  C   UNL     1      -1.085  -5.363  -0.229  0.00  0.00    +0.168 C 
ATOM      6  S   UNL     1      -1.973  -3.900  -0.240  0.00  0.00    -0.016 S 
ATOM      7  H   UNL     1      -0.714  -8.124  -1.110  0.00  0.00    +0.146 HD
ATOM      8  H   UNL     1      -2.591  -6.745  -0.394  0.00  0.00    +0.168 HD
ENDROOT
BRANCH   2   9
ATOM      9  C   UNL     1       1.504  -7.173  -1.359  0.00  0.00    +0.194 C 
ATOM     10  C   UNL     1       1.823  -8.652  -1.420  0.00  0.00    -0.018 C 
ATOM     11  C   UNL     1       1.306  -9.063  -2.576  0.00  0.00    +0.065 C 
ATOM     12  C   UNL     1       1.562 -10.549  -2.755  0.00  0.00    +0.057 C 
ATOM     13  C   UNL     1       2.681 -10.889  -1.746  0.00  0.00    +0.011 C 
ATOM     14  C   UNL     1       2.488  -9.785  -0.682  0.00  0.00    +0.035 C 
ATOM     15  N   UNL     1       0.716  -8.018  -3.218  0.00  0.00    -0.158 NA
ATOM     16  N   UNL     1       0.780  -6.939  -2.620  0.00  0.00    -0.176 NA
ENDBRANCH   2   9
BRANCH   1  18
ATOM     17  C   UNL     1       2.420  -4.570   0.160  0.00  0.00    +0.136 C 
ATOM     18  N   UNL     1       1.142  -4.353  -0.033  0.00  0.00    -0.184 NA
BRANCH  17  25
ATOM     19  C   UNL     1       6.914  -4.388   0.729  0.00  0.00    +0.001 A 
ATOM     20  C   UNL     1       7.436  -3.093   0.649  0.00  0.00    +0.002 A 
ATOM     21  C   UNL     1       6.645  -2.017   0.423  0.00  0.00    +0.026 A 
ATOM     22  C   UNL     1       5.245  -2.191   0.259  0.00  0.00    +0.043 A 
ATOM     23  N   UNL     1       4.280  -1.323   0.034  0.00  0.00    -0.380 N 
ATOM     24  C   UNL     1       3.001  -2.035  -0.053  0.00  0.00    +0.150 C 
ATOM     25  C   UNL     1       3.321  -3.498   0.156  0.00  0.00    +0.000 C 
ATOM     26  C   UNL     1       4.701  -3.557   0.343  0.00  0.00    +0.004 A 
ATOM     27  C   UNL     1       5.587  -4.630   0.582  0.00  0.00    +0.010 A 
ATOM     28  H   UNL     1       4.397  -0.365  -0.060  0.00  0.00    +0.160 HD
ENDBRANCH  17  25
ENDBRANCH   1  18
TORSDOF 3
