REMARK  Name = ZINC02473698
REMARK  3 active torsions:
REMARK  status: ('A' for Active; 'I' for Inactive)
REMARK    1  A    between atoms: C_9  and  C_25
REMARK    2  A    between atoms: N_11  and  C_12
REMARK    3  A    between atoms: C_13  and  C_21
REMARK                            x       y       z     vdW  Elec       q    Type
REMARK                         _______ _______ _______ _____ _____    ______ ____
ROOT
ATOM      1  C   UNL     1      -0.027   1.296  -0.051  0.00  0.00    +0.023 A 
ATOM      2  C   UNL     1       1.133   2.044  -0.033  0.00  0.00    +0.048 A 
ATOM      3  C   UNL     1       2.366   1.410  -0.032  0.00  0.00    +0.138 A 
ATOM      4  C   UNL     1       2.425   0.003  -0.045  0.00  0.00    +0.020 A 
ATOM      5  C   UNL     1       1.240  -0.743  -0.065  0.00  0.00    +0.031 A 
ATOM      6  C   UNL     1       0.026  -0.091  -0.068  0.00  0.00    +0.042 A 
ATOM      7 CL   UNL     1      -1.446  -1.011  -0.092  0.00  0.00    -0.084 Cl
ATOM      8  C   UNL     1       3.729  -0.661  -0.034  0.00  0.00    +0.030 A 
ATOM      9  C   UNL     1       4.840   0.120   0.264  0.00  0.00    +0.097 A 
ATOM     10  C   UNL     1       4.603   1.548   0.540  0.00  0.00    +0.212 A 
ATOM     11  N   UNL     1       5.427   2.239   1.307  0.00  0.00    -0.319 N 
ATOM     12  O   UNL     1       3.513   2.132  -0.019  0.00  0.00    -0.439 OA
ATOM     13  H   UNL     1       6.239   1.827   1.640  0.00  0.00    +0.169 HD
ENDROOT
BRANCH  11  14
ATOM     14  C   UNL     1       5.139   3.516   1.626  0.00  0.00    +0.093 A 
ATOM     15  C   UNL     1       5.873   4.413   2.412  0.00  0.00    +0.071 A 
ATOM     16  C   UNL     1       5.328   5.746   2.598  0.00  0.00    -0.023 A 
ATOM     17  C   UNL     1       4.148   6.002   1.988  0.00  0.00    -0.004 A 
ATOM     18  S   UNL     1       3.728   4.498   1.149  0.00  0.00    -0.075 S 
ATOM     19  C   UNL     1       3.372   7.283   2.018  0.00  0.00    +0.043 C 
ATOM     20  C   UNL     1       3.926   8.160   3.150  0.00  0.00    +0.005 C 
ATOM     21  C   UNL     1       5.454   8.187   3.047  0.00  0.00    +0.005 C 
ATOM     22  C   UNL     1       6.024   6.820   3.428  0.00  0.00    +0.037 C 
BRANCH  15  23
ATOM     23  C   UNL     1       7.143   4.021   3.023  0.00  0.00    +0.244 C 
ATOM     24  O   UNL     1       8.187   4.189   2.419  0.00  0.00    -0.270 OA
ATOM     25  N   UNL     1       7.157   3.475   4.255  0.00  0.00    -0.325 N 
ATOM     26  H   UNL     1       6.326   3.341   4.736  0.00  0.00    +0.145 HD
ATOM     27  H   UNL     1       8.000   3.215   4.661  0.00  0.00    +0.145 HD
ENDBRANCH  15  23
ENDBRANCH  11  14
BRANCH   9  28
ATOM     28  C   UNL     1       6.197  -0.455   0.301  0.00  0.00    +0.247 C 
ATOM     29  O   UNL     1       7.160   0.270   0.460  0.00  0.00    -0.270 OA
ATOM     30  N   UNL     1       6.369  -1.784   0.161  0.00  0.00    -0.325 N 
ATOM     31  H   UNL     1       5.609  -2.354  -0.038  0.00  0.00    +0.145 HD
ATOM     32  H   UNL     1       7.253  -2.172   0.258  0.00  0.00    +0.145 HD
ENDBRANCH   9  28
TORSDOF 3
