REMARK  Name = ZINC59112265
REMARK  18 active torsions:
REMARK  status: ('A' for Active; 'I' for Inactive)
REMARK    1  A    between atoms: C_1  and  C_2
REMARK    2  A    between atoms: C_2  and  C_3
REMARK    3  A    between atoms: C_2  and  C_4
REMARK    4  A    between atoms: C_9  and  N_10
REMARK    5  A    between atoms: N_10  and  C_11
REMARK    6  A    between atoms: C_11  and  N_13
REMARK    7  A    between atoms: N_13  and  C_14
REMARK    8  A    between atoms: C_14  and  C_15
REMARK    9  A    between atoms: C_15  and  C_37
REMARK   10  A    between atoms: C_17  and  N_24
REMARK   11  A    between atoms: C_20  and  C_22
REMARK   12  A    between atoms: C_20  and  C_23
REMARK   13  A    between atoms: N_24  and  C_25
REMARK   14  A    between atoms: C_25  and  N_27
REMARK   15  A    between atoms: N_27  and  C_28
REMARK   16  A    between atoms: C_33  and  C_34
REMARK   17  A    between atoms: C_34  and  C_35
REMARK   18  A    between atoms: C_34  and  C_36
REMARK                            x       y       z     vdW  Elec       q    Type
REMARK                         _______ _______ _______ _____ _____    ______ ____
ROOT
ATOM      1  C   UNL     1      -5.164  -2.769   2.551  0.00  0.00    -0.014 C 
ATOM      2  C   UNL     1      -5.149  -3.861   1.487  0.00  0.00    +0.030 C 
ATOM      3  C   UNL     1      -6.571  -4.240   1.079  0.00  0.00    +0.073 C 
ATOM      4  C   UNL     1      -7.306  -4.787   2.300  0.00  0.00    +0.028 C 
ATOM      5  C   UNL     1      -7.398  -3.730   3.395  0.00  0.00    -0.033 C 
ATOM      6  C   UNL     1      -6.051  -3.118   3.732  0.00  0.00    +0.014 C 
ATOM      7  C   UNL     1      -7.939  -4.420   4.667  0.00  0.00    +0.011 C 
ATOM      8  C   UNL     1      -8.410  -2.651   2.997  0.00  0.00    +0.011 C 
ATOM      9  C   UNL     1      -5.578  -1.434   1.925  0.00  0.00    +0.013 C 
ENDROOT
BRANCH   3  10
ATOM     10  N   UNL     1      -6.513  -5.283   0.046  0.00  0.00    -0.323 N 
ATOM     11  H   UNL     1      -5.739  -5.865  -0.013  0.00  0.00    +0.148 HD
BRANCH  10  12
ATOM     12  C   UNL     1      -7.535  -5.432  -0.820  0.00  0.00    +0.135 C 
ATOM     13  S   UNL     1      -8.901  -4.405  -0.716  0.00  0.00    -0.019 S 
BRANCH  12  14
ATOM     14  N   UNL     1      -7.482  -6.389  -1.767  0.00  0.00    -0.297 N 
ATOM     15  H   UNL     1      -6.686  -6.936  -1.860  0.00  0.00    +0.154 HD
BRANCH  14  16
ATOM     16  C   UNL     1      -8.574  -6.593  -2.617  0.00  0.00    +0.036 A 
ATOM     17  C   UNL     1      -9.868  -6.528  -2.116  0.00  0.00    +0.023 A 
ATOM     18  C   UNL     1     -10.944  -6.730  -2.957  0.00  0.00    +0.002 A 
ATOM     19  C   UNL     1     -10.734  -6.998  -4.298  0.00  0.00    +0.000 A 
ATOM     20  C   UNL     1      -9.448  -7.063  -4.800  0.00  0.00    +0.006 A 
ATOM     21  C   UNL     1      -8.367  -6.856  -3.965  0.00  0.00    -0.024 A 
BRANCH  21  22
ATOM     22  C   UNL     1      -6.966  -6.922  -4.514  0.00  0.00    +0.015 C 
ATOM     23  C   UNL     1      -6.753  -8.268  -5.211  0.00  0.00    +0.012 C 
ATOM     24  C   UNL     1      -6.759  -5.789  -5.521  0.00  0.00    +0.012 C 
ENDBRANCH  21  22
ENDBRANCH  14  16
ENDBRANCH  12  14
ENDBRANCH  10  12
ENDBRANCH   3  10
BRANCH   1  25
ATOM     25  C   UNL     1      -3.720  -2.605   3.073  0.00  0.00    +0.110 C 
BRANCH  25  26
ATOM     26  N   UNL     1      -2.833  -2.267   1.956  0.00  0.00    -0.326 N 
ATOM     27  H   UNL     1      -3.193  -2.182   1.060  0.00  0.00    +0.148 HD
BRANCH  26  28
ATOM     28  C   UNL     1      -1.517  -2.075   2.176  0.00  0.00    +0.135 C 
ATOM     29  S   UNL     1      -0.882  -2.225   3.758  0.00  0.00    -0.019 S 
BRANCH  28  30
ATOM     30  N   UNL     1      -0.701  -1.764   1.149  0.00  0.00    -0.297 N 
ATOM     31  H   UNL     1      -1.070  -1.614   0.264  0.00  0.00    +0.154 HD
BRANCH  30  37
ATOM     32  C   UNL     1       1.566  -2.135   0.404  0.00  0.00    -0.024 A 
ATOM     33  C   UNL     1       2.927  -2.022   0.611  0.00  0.00    +0.006 A 
ATOM     34  C   UNL     1       3.405  -1.440   1.771  0.00  0.00    +0.000 A 
ATOM     35  C   UNL     1       2.523  -0.969   2.726  0.00  0.00    +0.002 A 
ATOM     36  C   UNL     1       1.162  -1.078   2.525  0.00  0.00    +0.023 A 
ATOM     37  C   UNL     1       0.678  -1.657   1.359  0.00  0.00    +0.036 A 
BRANCH  32  39
ATOM     38  C   UNL     1       1.442  -1.911  -2.063  0.00  0.00    +0.012 C 
ATOM     39  C   UNL     1       1.046  -2.769  -0.860  0.00  0.00    +0.015 C 
ATOM     40  C   UNL     1       1.645  -4.168  -1.012  0.00  0.00    +0.012 C 
ENDBRANCH  32  39
ENDBRANCH  30  37
ENDBRANCH  28  30
ENDBRANCH  26  28
ENDBRANCH  25  26
ENDBRANCH   1  25
TORSDOF 11
