REMARK  Name = ZINC36609647
REMARK  14 active torsions:
REMARK  status: ('A' for Active; 'I' for Inactive)
REMARK    1  A    between atoms: C_1  and  C_2
REMARK    2  A    between atoms: C_2  and  C_3
REMARK    3  A    between atoms: C_2  and  C_4
REMARK    4  A    between atoms: C_2  and  C_5
REMARK    5  A    between atoms: C_5  and  C_6
REMARK    6  A    between atoms: C_6  and  C_7
REMARK    7  A    between atoms: C_6  and  C_8
REMARK    8  A    between atoms: C_6  and  N_9
REMARK    9  A    between atoms: C_10  and  C_12
REMARK   10  A    between atoms: C_12  and  C_14
REMARK   11  A    between atoms: C_12  and  N_19
REMARK   12  A    between atoms: N_19  and  C_20
REMARK   13  A    between atoms: C_26  and  C_28
REMARK   14  A    between atoms: C_29  and  C_30
REMARK                            x       y       z     vdW  Elec       q    Type
REMARK                         _______ _______ _______ _____ _____    ______ ____
ROOT
ATOM      1  C   UNL     1       5.500  -0.012  -4.468  0.00  0.00    +0.233 C 
ENDROOT
BRANCH   1   2
ATOM      2  C   UNL     1       5.332  -1.470  -4.810  0.00  0.00    +0.135 A 
ATOM      3  C   UNL     1       4.430  -1.977  -5.670  0.00  0.00    +0.047 A 
ATOM      4  C   UNL     1       4.623  -3.378  -5.687  0.00  0.00    +0.041 A 
ATOM      5  C   UNL     1       5.631  -3.643  -4.836  0.00  0.00    +0.195 A 
ATOM      6  O   UNL     1       6.060  -2.483  -4.312  0.00  0.00    -0.465 OA
ENDBRANCH   1   2
BRANCH   1   8
ATOM      7  N   UNL     1       3.505   0.058  -3.007  0.00  0.00    -0.308 N 
ATOM      8  C   UNL     1       4.827   0.276  -3.150  0.00  0.00    +0.242 C 
ATOM      9  O   UNL     1       5.476   0.703  -2.219  0.00  0.00    -0.273 OA
ATOM     10  H   UNL     1       2.986  -0.283  -3.752  0.00  0.00    +0.149 HD
BRANCH   7  11
ATOM     11  C   UNL     1       2.851   0.338  -1.726  0.00  0.00    +0.030 C 
ATOM     12  C   UNL     1       3.256   1.731  -1.240  0.00  0.00    +0.031 C 
ATOM     13  C   UNL     1       3.281  -0.707  -0.695  0.00  0.00    +0.031 C 
BRANCH  11  14
ATOM     14  C   UNL     1       1.333   0.282  -1.906  0.00  0.00    +0.031 C 
BRANCH  14  16
ATOM     15  C   UNL     1       1.085   0.035  -4.380  0.00  0.00    +0.010 C 
ATOM     16  C   UNL     1       0.946   1.000  -3.201  0.00  0.00    -0.036 C 
ATOM     17  C   UNL     1       1.869   2.202  -3.413  0.00  0.00    +0.010 C 
ATOM     18  C   UNL     1      -0.504   1.480  -3.104  0.00  0.00    +0.010 C 
ENDBRANCH  14  16
ENDBRANCH  11  14
ENDBRANCH   7  11
ENDBRANCH   1   8
BRANCH   1  19
ATOM     19  N   UNL     1       6.927   0.304  -4.367  0.00  0.00    -0.242 N 
ATOM     20  C   UNL     1       7.515   1.072  -5.305  0.00  0.00    +0.297 C 
ATOM     21  O   UNL     1       6.837   1.626  -6.151  0.00  0.00    -0.260 OA
BRANCH  19  22
ATOM     22  C   UNL     1       7.679  -0.191  -3.296  0.00  0.00    +0.038 A 
ATOM     23  C   UNL     1       8.913   0.370  -2.995  0.00  0.00    +0.023 A 
ATOM     24  C   UNL     1       9.653  -0.121  -1.937  0.00  0.00    +0.002 A 
ATOM     25  C   UNL     1       9.166  -1.171  -1.179  0.00  0.00    +0.000 A 
ATOM     26  C   UNL     1       7.938  -1.731  -1.477  0.00  0.00    +0.002 A 
ATOM     27  C   UNL     1       7.190  -1.241  -2.529  0.00  0.00    +0.023 A 
ENDBRANCH  19  22
BRANCH  20  28
ATOM     28  C   UNL     1       8.938   1.237  -5.307  0.00  0.00    -0.002 C 
ATOM     29  C   UNL     1      10.104   1.372  -5.309  0.00  0.00    -0.057 C 
BRANCH  29  30
ATOM     30  C   UNL     1      11.527   1.536  -5.311  0.00  0.00    +0.025 A 
ATOM     31  C   UNL     1      12.309   0.897  -4.344  0.00  0.00    +0.017 A 
ATOM     32  C   UNL     1      13.678   1.060  -4.353  0.00  0.00    +0.001 A 
ATOM     33  C   UNL     1      14.278   1.855  -5.315  0.00  0.00    +0.000 A 
ATOM     34  C   UNL     1      13.510   2.490  -6.275  0.00  0.00    +0.001 A 
ATOM     35  C   UNL     1      12.140   2.333  -6.283  0.00  0.00    +0.017 A 
ENDBRANCH  29  30
ENDBRANCH  20  28
ENDBRANCH   1  19
TORSDOF 9
