REMARK  Name = ZINC67501836
REMARK  5 active torsions:
REMARK  status: ('A' for Active; 'I' for Inactive)
REMARK    1  A    between atoms: C_2  and  C_7
REMARK    2  A    between atoms: C_7  and  N_8
REMARK    3  A    between atoms: N_8  and  C_9
REMARK    4  A    between atoms: N_14  and  C_16
REMARK    5  A    between atoms: C_16  and  C_17
REMARK                            x       y       z     vdW  Elec       q    Type
REMARK                         _______ _______ _______ _____ _____    ______ ____
ROOT
ATOM      1  C   UNL     1       1.242   5.496   1.443  0.00  0.00    +0.037 C 
ATOM      2  C   UNL     1       2.685   5.992   1.322  0.00  0.00    +0.015 C 
ATOM      3  C   UNL     1       2.702   7.519   1.450  0.00  0.00    -0.017 C 
ATOM      4  C   UNL     1       2.060   7.920   2.780  0.00  0.00    -0.078 C 
ATOM      5  N   UNL     1       0.674   7.440   2.823  0.00  0.00    +0.386 N 
ATOM      6  C   UNL     1       0.653   5.973   2.772  0.00  0.00    -0.059 C 
ATOM      7  H   UNL     1       0.166   7.809   2.033  0.00  0.00    -0.081 HD
ENDROOT
BRANCH   1   8
ATOM      8  N   UNL     1       1.222   4.028   1.396  0.00  0.00    -0.311 NA
ATOM      9  H   UNL     1       0.441   3.660   1.918  0.00  0.00    +0.122 HD
BRANCH   8  10
ATOM     10  C   UNL     1       1.203   3.545   0.009  0.00  0.00    +0.117 C 
BRANCH  10  12
ATOM     11  C   UNL     1      -0.016   1.352   0.009  0.00  0.00    +0.027 A 
ATOM     12  C   UNL     1       1.184   2.038   0.002  0.00  0.00    -0.025 A 
ATOM     13  C   UNL     1       2.343   1.336  -0.013  0.00  0.00    +0.051 A 
ATOM     14  S   UNL     1       1.754  -0.349  -0.017  0.00  0.00    -0.090 S 
ATOM     15  C   UNL     1       0.002  -0.004   0.002  0.00  0.00    +0.055 A 
ATOM     16 BR   UNL     1      -1.450  -1.215   0.010  0.00  0.00    -0.043 Br
ENDBRANCH  10  12
ENDBRANCH   8  10
ENDBRANCH   1   8
BRANCH   5  17
ATOM     17  C   UNL     1       0.038   7.895   4.066  0.00  0.00    +0.018 C 
BRANCH  17  18
ATOM     18  C   UNL     1      -0.061   9.398   4.059  0.00  0.00    +0.194 C 
ATOM     19  O   UNL     1       0.357  10.029   3.111  0.00  0.00    -0.278 OA
ATOM     20  N   UNL     1      -0.614  10.042   5.106  0.00  0.00    -0.331 N 
ATOM     21  H   UNL     1      -0.948   9.538   5.864  0.00  0.00    +0.145 HD
ATOM     22  H   UNL     1      -0.677  11.010   5.101  0.00  0.00    +0.145 HD
ENDBRANCH  17  18
ENDBRANCH   5  17
TORSDOF 5
