REMARK  Name = ZINC40366431
REMARK  6 active torsions:
REMARK  status: ('A' for Active; 'I' for Inactive)
REMARK    1  A    between atoms: C_1  and  N_2
REMARK    2  A    between atoms: C_5  and  C_8
REMARK    3  A    between atoms: C_5  and  N_11
REMARK    4  A    between atoms: C_8  and  N_10
REMARK    5  A    between atoms: N_11  and  S_12
REMARK    6  A    between atoms: S_12  and  C_15
REMARK                            x       y       z     vdW  Elec       q    Type
REMARK                         _______ _______ _______ _____ _____    ______ ____
ROOT
ATOM      1  C   UNL     1       0.242   1.595   0.270  0.00  0.00    -0.096 C 
ATOM      2  N   UNL     1       0.308   0.128   0.312  0.00  0.00    +0.378 N 
ATOM      3  C   UNL     1      -1.053  -0.422   0.311  0.00  0.00    -0.077 C 
ATOM      4  C   UNL     1      -0.989  -1.950   0.273  0.00  0.00    +0.012 C 
ATOM      5  C   UNL     1      -0.235  -2.455   1.506  0.00  0.00    +0.081 C 
ATOM      6  C   UNL     1       1.157  -1.817   1.537  0.00  0.00    +0.012 C 
ATOM      7  C   UNL     1       1.014  -0.294   1.528  0.00  0.00    -0.077 C 
ATOM      8  H   UNL     1       0.806  -0.209  -0.498  0.00  0.00    -0.082 HD
ENDROOT
BRANCH   5   9
ATOM      9  C   UNL     1      -0.100  -3.955   1.436  0.00  0.00    +0.068 C 
ATOM     10  S   UNL     1      -0.442  -4.725   0.077  0.00  0.00    -0.039 S 
BRANCH   9  11
ATOM     11  N   UNL     1       0.308  -4.646   2.519  0.00  0.00    -0.354 N 
ATOM     12  H   UNL     1       0.448  -4.188   3.362  0.00  0.00    +0.143 HD
ATOM     13  H   UNL     1       0.461  -5.602   2.454  0.00  0.00    +0.143 HD
ENDBRANCH   9  11
ENDBRANCH   5   9
BRANCH   5  14
ATOM     14  N   UNL     1      -0.971  -2.084   2.717  0.00  0.00    -0.178 NA
ATOM     15  H   UNL     1      -0.542  -1.544   3.399  0.00  0.00    +0.149 HD
BRANCH  14  16
ATOM     16  S   UNL     1      -2.536  -2.586   2.921  0.00  0.00    +0.059 S 
ATOM     17  O   UNL     1      -2.959  -2.091   4.184  0.00  0.00    -0.153 OA
ATOM     18  O   UNL     1      -3.221  -2.280   1.715  0.00  0.00    -0.153 OA
BRANCH  16  19
ATOM     19  C   UNL     1      -2.506  -4.343   3.052  0.00  0.00    +0.105 A 
ATOM     20  C   UNL     1      -2.766  -5.123   1.941  0.00  0.00    +0.029 A 
ATOM     21  C   UNL     1      -2.742  -6.501   2.043  0.00  0.00    +0.017 A 
ATOM     22  C   UNL     1      -2.459  -7.100   3.258  0.00  0.00    +0.018 A 
ATOM     23  C   UNL     1      -2.200  -6.319   4.369  0.00  0.00    +0.017 A 
ATOM     24  C   UNL     1      -2.218  -4.941   4.265  0.00  0.00    +0.029 A 
ATOM     25 BR   UNL     1      -2.428  -8.985   3.398  0.00  0.00    -0.050 Br
ENDBRANCH  16  19
ENDBRANCH  14  16
ENDBRANCH   5  14
TORSDOF 5
