REMARK  Name = ZINC03159039
REMARK  5 active torsions:
REMARK  status: ('A' for Active; 'I' for Inactive)
REMARK    1  A    between atoms: C_6  and  O_18
REMARK    2  A    between atoms: C_7  and  C_11
REMARK    3  A    between atoms: N_13  and  N_14
REMARK    4  A    between atoms: N_14  and  C_15
REMARK    5  A    between atoms: C_15  and  N_17
REMARK                            x       y       z     vdW  Elec       q    Type
REMARK                         _______ _______ _______ _____ _____    ______ ____
ROOT
ATOM      1  C   UNL     1      -3.800   6.032   0.056  0.00  0.00    +0.001 A 
ATOM      2  C   UNL     1      -4.989   5.306   0.057  0.00  0.00    +0.001 A 
ATOM      3  C   UNL     1      -4.979   3.945   0.049  0.00  0.00    +0.008 A 
ATOM      4  C   UNL     1      -3.754   3.257   0.038  0.00  0.00    -0.014 A 
ATOM      5  C   UNL     1      -3.713   1.852   0.030  0.00  0.00    +0.054 A 
ATOM      6  C   UNL     1      -2.512   1.206   0.021  0.00  0.00    +0.130 A 
ATOM      7  C   UNL     1      -1.302   1.932   0.019  0.00  0.00    +0.080 A 
ATOM      8  C   UNL     1      -1.316   3.317   0.032  0.00  0.00    +0.025 A 
ATOM      9  C   UNL     1      -2.543   3.996   0.037  0.00  0.00    -0.017 A 
ATOM     10  C   UNL     1      -2.594   5.402   0.046  0.00  0.00    +0.008 A 
ENDROOT
BRANCH   7  11
ATOM     11  C   UNL     1      -0.014   1.212   0.009  0.00  0.00    +0.264 C 
ATOM     12  O   UNL     1       0.002  -0.004   0.002  0.00  0.00    -0.269 OA
ATOM     13  N   UNL     1       1.143   1.901   0.001  0.00  0.00    -0.231 N 
ATOM     14  H   UNL     1       1.130   2.871   0.007  0.00  0.00    +0.173 HD
BRANCH  13  15
ATOM     15  N   UNL     1       2.366   1.217  -0.014  0.00  0.00    -0.246 N 
ATOM     16  H   UNL     1       2.379   0.247  -0.019  0.00  0.00    +0.172 HD
BRANCH  15  17
ATOM     17  C   UNL     1       3.524   1.907  -0.021  0.00  0.00    +0.144 C 
ATOM     18  S   UNL     1       5.018   1.071  -0.040  0.00  0.00    -0.018 S 
BRANCH  17  19
ATOM     19  N   UNL     1       3.506   3.255  -0.014  0.00  0.00    -0.340 N 
ATOM     20  H   UNL     1       2.659   3.728  -0.003  0.00  0.00    +0.144 HD
ATOM     21  H   UNL     1       4.339   3.751  -0.019  0.00  0.00    +0.144 HD
ENDBRANCH  17  19
ENDBRANCH  15  17
ENDBRANCH  13  15
ENDBRANCH   7  11
BRANCH   6  22
ATOM     22  O   UNL     1      -2.481  -0.151   0.013  0.00  0.00    -0.506 OA
ATOM     23  H   UNL     1      -2.467  -0.549   0.894  0.00  0.00    +0.292 HD
ENDBRANCH   6  22
TORSDOF 5
