REMARK  Name = ZINC12549552
REMARK  5 active torsions:
REMARK  status: ('A' for Active; 'I' for Inactive)
REMARK    1  A    between atoms: C_1  and  O_2
REMARK    2  A    between atoms: O_2  and  C_3
REMARK    3  A    between atoms: C_5  and  C_12
REMARK    4  A    between atoms: C_8  and  O_9
REMARK    5  A    between atoms: O_9  and  C_10
REMARK                            x       y       z     vdW  Elec       q    Type
REMARK                         _______ _______ _______ _____ _____    ______ ____
ROOT
ATOM      1  C   UNL     1      -4.871   0.258   0.039  0.00  0.00    +0.210 C 
ATOM      2  N   UNL     1      -4.598   1.634  -0.417  0.00  0.00    -0.294 N 
ATOM      3  C   UNL     1      -4.073   2.529   0.503  0.00  0.00    +0.159 C 
ATOM      4  N   UNL     1      -4.752   2.645   1.717  0.00  0.00    -0.259 N 
ATOM      5  C   UNL     1      -5.328   1.465   2.185  0.00  0.00    +0.205 A 
ATOM      6  N   UNL     1      -5.399   0.335   1.405  0.00  0.00    -0.288 N 
ATOM      7  C   UNL     1      -6.026  -0.642   2.147  0.00  0.00    +0.076 A 
ATOM      8  C   UNL     1      -6.383  -1.962   1.902  0.00  0.00    +0.077 A 
ATOM      9  C   UNL     1      -7.016  -2.695   2.888  0.00  0.00    +0.164 A 
ATOM     10  C   UNL     1      -7.301  -2.120   4.123  0.00  0.00    +0.164 A 
ATOM     11  C   UNL     1      -6.957  -0.809   4.379  0.00  0.00    +0.079 A 
ATOM     12  C   UNL     1      -6.316  -0.056   3.391  0.00  0.00    +0.095 A 
ATOM     13  N   UNL     1      -5.863   1.232   3.347  0.00  0.00    -0.214 NA
ATOM     14  O   UNL     1      -7.923  -2.864   5.085  0.00  0.00    -0.488 OA
ATOM     15  C   UNL     1      -9.281  -3.218   4.820  0.00  0.00    +0.232 C 
ATOM     16  C   UNL     1      -9.354  -4.472   3.963  0.00  0.00    +0.082 C 
ATOM     17  C   UNL     1      -8.767  -4.261   2.577  0.00  0.00    +0.232 C 
ATOM     18  O   UNL     1      -7.366  -3.995   2.654  0.00  0.00    -0.488 OA
ATOM     19  N   UNL     1      -3.001   3.225   0.248  0.00  0.00    -0.375 N 
ATOM     20  H   UNL     1      -4.780   1.904  -1.331  0.00  0.00    +0.151 HD
ATOM     21  H   UNL     1      -2.549   3.124  -0.604  0.00  0.00    +0.158 HD
ATOM     22  H   UNL     1      -4.818   3.484   2.199  0.00  0.00    +0.158 HD
ATOM     23  H   UNL     1      -2.655   3.844   0.910  0.00  0.00    +0.158 HD
ENDROOT
BRANCH   1  26
ATOM     24  C   UNL     1      -1.754  -1.530   1.203  0.00  0.00    +0.162 A 
ATOM     25  C   UNL     1      -2.925  -0.790   1.211  0.00  0.00    +0.057 A 
ATOM     26  C   UNL     1      -3.597  -0.546   0.028  0.00  0.00    +0.011 A 
ATOM     27  C   UNL     1      -3.101  -1.038  -1.166  0.00  0.00    +0.028 A 
ATOM     28  C   UNL     1      -1.932  -1.777  -1.181  0.00  0.00    +0.065 A 
ATOM     29  C   UNL     1      -1.252  -2.020   0.002  0.00  0.00    +0.163 A 
ATOM     30 BR   UNL     1      -4.024  -0.700  -2.782  0.00  0.00    -0.050 Br
BRANCH  24  32
ATOM     31  C   UNL     1      -1.666  -1.237   3.562  0.00  0.00    +0.277 C 
ATOM     32  O   UNL     1      -1.092  -1.771   2.367  0.00  0.00    -0.491 OA
ENDBRANCH  24  32
BRANCH  29  33
ATOM     33  O   UNL     1      -0.098  -2.741  -0.011  0.00  0.00    -0.491 OA
ATOM     34  C   UNL     1       0.357  -3.212  -1.281  0.00  0.00    +0.277 C 
ENDBRANCH  29  33
ENDBRANCH   1  26
TORSDOF 3
