REMARK  Name = ZINC13915699
REMARK  13 active torsions:
REMARK  status: ('A' for Active; 'I' for Inactive)
REMARK    1  A    between atoms: C_1  and  C_2
REMARK    2  A    between atoms: C_3  and  C_23
REMARK    3  A    between atoms: C_4  and  C_10
REMARK    4  A    between atoms: C_14  and  O_20
REMARK    5  A    between atoms: C_15  and  O_16
REMARK    6  A    between atoms: O_16  and  C_17
REMARK    7  A    between atoms: C_17  and  C_18
REMARK    8  A    between atoms: C_17  and  C_19
REMARK    9  A    between atoms: O_20  and  C_21
REMARK   10  A    between atoms: N_25  and  C_26
REMARK   11  A    between atoms: C_31  and  C_32
REMARK   12  A    between atoms: C_32  and  O_34
REMARK   13  A    between atoms: O_34  and  C_35
REMARK                            x       y       z     vdW  Elec       q    Type
REMARK                         _______ _______ _______ _____ _____    ______ ____
ROOT
ATOM      1  C   UNL     1       4.647  -2.763   0.432  0.00  0.00    +0.061 C 
ATOM      2  C   UNL     1       5.279  -1.398   0.328  0.00  0.00    +0.017 C 
ATOM      3  C   UNL     1       4.529  -0.300   0.563  0.00  0.00    +0.056 C 
ATOM      4  C   UNL     1       5.203   1.052   0.442  0.00  0.00    +0.143 C 
ATOM      5  N   UNL     1       6.632   1.056   0.086  0.00  0.00    -0.315 N 
ATOM      6  C   UNL     1       7.245  -0.126  -0.119  0.00  0.00    +0.135 C 
ATOM      7  S   UNL     1       8.905  -0.136  -0.540  0.00  0.00    -0.019 S 
ATOM      8  N   UNL     1       6.599  -1.293  -0.003  0.00  0.00    -0.300 N 
ATOM      9  H   UNL     1       7.119   1.890  -0.003  0.00  0.00    +0.149 HD
ATOM     10  H   UNL     1       7.097  -2.110  -0.164  0.00  0.00    +0.154 HD
ENDROOT
BRANCH   4  11
ATOM     11  C   UNL     1       4.458   1.850  -0.597  0.00  0.00    +0.024 A 
ATOM     12  C   UNL     1       4.698   1.631  -1.941  0.00  0.00    +0.029 A 
ATOM     13  C   UNL     1       4.012   2.358  -2.897  0.00  0.00    +0.045 A 
ATOM     14  C   UNL     1       3.091   3.316  -2.512  0.00  0.00    +0.069 A 
ATOM     15  C   UNL     1       2.850   3.544  -1.167  0.00  0.00    +0.163 A 
ATOM     16  C   UNL     1       3.537   2.808  -0.205  0.00  0.00    +0.168 A 
ATOM     17 CL   UNL     1       4.312   2.073  -4.583  0.00  0.00    -0.083 Cl
BRANCH  15  18
ATOM     18  O   UNL     1       1.945   4.485  -0.786  0.00  0.00    -0.491 OA
ATOM     19  C   UNL     1       1.278   5.202  -1.827  0.00  0.00    +0.277 C 
ENDBRANCH  15  18
BRANCH  16  20
ATOM     20  O   UNL     1       3.304   3.029   1.117  0.00  0.00    -0.485 OA
BRANCH  20  21
ATOM     21  C   UNL     1       4.017   4.105   1.730  0.00  0.00    +0.168 C 
ATOM     22  C   UNL     1       3.205   4.649   2.907  0.00  0.00    +0.051 C 
ATOM     23  C   UNL     1       5.370   3.598   2.235  0.00  0.00    +0.051 C 
ENDBRANCH  20  21
ENDBRANCH  16  20
ENDBRANCH   4  11
BRANCH   3  24
ATOM     24  C   UNL     1       3.160  -0.408   0.905  0.00  0.00    +0.248 C 
ATOM     25  O   UNL     1       2.801  -0.203   2.051  0.00  0.00    -0.270 OA
ATOM     26  N   UNL     1       2.253  -0.737  -0.036  0.00  0.00    -0.281 N 
ATOM     27  H   UNL     1       2.528  -0.829  -0.962  0.00  0.00    +0.155 HD
BRANCH  26  28
ATOM     28  C   UNL     1       0.925  -0.945   0.320  0.00  0.00    +0.048 A 
ATOM     29  C   UNL     1       0.336  -0.164   1.306  0.00  0.00    +0.024 A 
ATOM     30  C   UNL     1      -0.981  -0.375   1.661  0.00  0.00    +0.002 A 
ATOM     31  C   UNL     1      -1.727  -1.362   1.035  0.00  0.00    +0.001 A 
ATOM     32  C   UNL     1      -1.161  -2.143   0.051  0.00  0.00    +0.017 A 
ATOM     33  C   UNL     1       0.171  -1.941  -0.320  0.00  0.00    +0.080 A 
BRANCH  33  34
ATOM     34  C   UNL     1       0.782  -2.773  -1.371  0.00  0.00    +0.341 C 
ATOM     35  O   UNL     1       1.912  -2.538  -1.752  0.00  0.00    -0.245 OA
BRANCH  34  36
ATOM     36  O   UNL     1       0.090  -3.798  -1.907  0.00  0.00    -0.464 OA
ATOM     37  C   UNL     1       0.793  -4.646  -2.853  0.00  0.00    +0.280 C 
ENDBRANCH  34  36
ENDBRANCH  33  34
ENDBRANCH  26  28
ENDBRANCH   3  24
TORSDOF 8
