REMARK  Name = ZINC50246572
REMARK  5 active torsions:
REMARK  status: ('A' for Active; 'I' for Inactive)
REMARK    1  A    between atoms: C_2  and  N_20
REMARK    2  A    between atoms: C_6  and  S_7
REMARK    3  A    between atoms: S_7  and  N_10
REMARK    4  A    between atoms: C_13  and  C_16
REMARK    5  A    between atoms: C_16  and  N_17
REMARK                            x       y       z     vdW  Elec       q    Type
REMARK                         _______ _______ _______ _____ _____    ______ ____
ROOT
ATOM      1  S   UNL     1      -1.512  -0.905   0.012  0.00  0.00    +0.064 S 
ATOM      2  O   UNL     1      -1.392  -1.888   1.031  0.00  0.00    -0.153 OA
ATOM      3  O   UNL     1      -2.558   0.057   0.001  0.00  0.00    -0.153 OA
ENDROOT
BRANCH   1   9
ATOM      4  C   UNL     1      -0.017   1.378   0.010  0.00  0.00    +0.067 A 
ATOM      5  C   UNL     1       1.170   2.086   0.002  0.00  0.00    +0.163 A 
ATOM      6  C   UNL     1       2.379   1.412  -0.014  0.00  0.00    +0.156 A 
ATOM      7  C   UNL     1       2.399   0.028  -0.021  0.00  0.00    +0.081 A 
ATOM      8  C   UNL     1       1.210  -0.681  -0.013  0.00  0.00    +0.152 A 
ATOM      9  C   UNL     1       0.002  -0.004   0.002  0.00  0.00    +0.143 A 
ATOM     10  F   UNL     1       1.228  -2.031  -0.021  0.00  0.00    -0.203 F 
ATOM     11  F   UNL     1       3.539   2.104  -0.022  0.00  0.00    -0.203 F 
BRANCH   5  12
ATOM     12  N   UNL     1       1.149   3.566   0.010  0.00  0.00    +0.059 N 
ATOM     13  O   UNL     1       0.093   4.155   0.024  0.00  0.00    -0.126 OA
ATOM     14  O   UNL     1       2.187   4.186   0.004  0.00  0.00    -0.126 OA
ENDBRANCH   5  12
ENDBRANCH   1   9
BRANCH   1  15
ATOM     15  N   UNL     1      -1.605  -1.723  -1.425  0.00  0.00    -0.176 NA
ATOM     16  C   UNL     1      -2.206  -1.210  -2.665  0.00  0.00    +0.110 C 
ATOM     17  C   UNL     1      -2.038  -2.303  -3.741  0.00  0.00    +0.020 C 
ATOM     18  C   UNL     1      -0.851  -3.143  -3.202  0.00  0.00    -0.012 C 
ATOM     19  C   UNL     1      -1.093  -3.082  -1.675  0.00  0.00    +0.111 C 
BRANCH  18  20
ATOM     20  C   UNL     1      -0.920  -4.583  -3.715  0.00  0.00    -0.082 C 
BRANCH  20  21
ATOM     21  N   UNL     1      -0.713  -4.595  -5.169  0.00  0.00    +0.378 N 
ATOM     22  H   UNL     1      -1.431  -4.044  -5.615  0.00  0.00    -0.090 HD
ATOM     23  H   UNL     1       0.193  -4.205  -5.383  0.00  0.00    -0.090 HD
ATOM     24  H   UNL     1      -0.758  -5.545  -5.507  0.00  0.00    -0.090 HD
ENDBRANCH  20  21
ENDBRANCH  18  20
ENDBRANCH   1  15
TORSDOF 5
