REMARK  Name = ZINC09630287
REMARK  11 active torsions:
REMARK  status: ('A' for Active; 'I' for Inactive)
REMARK    1  A    between atoms: C_1  and  C_2
REMARK    2  A    between atoms: C_2  and  C_3
REMARK    3  A    between atoms: C_3  and  N_54
REMARK    4  A    between atoms: C_9  and  N_15
REMARK    5  A    between atoms: C_10  and  C_11
REMARK    6  A    between atoms: C_11  and  O_13
REMARK    7  A    between atoms: O_13  and  C_14
REMARK    8  A    between atoms: C_16  and  C_18
REMARK    9  A    between atoms: C_18  and  C_19
REMARK   10  A    between atoms: C_19  and  S_20
REMARK   11  A    between atoms: S_20  and  C_21
REMARK                            x       y       z     vdW  Elec       q    Type
REMARK                         _______ _______ _______ _____ _____    ______ ____
ROOT
ATOM      1  C   UNL     1       7.045  -0.003   0.377  0.00  0.00    -0.074 C 
ATOM      2  C   UNL     1       6.217   1.214  -0.048  0.00  0.00    +0.018 C 
ATOM      3  C   UNL     1       4.746   0.814  -0.038  0.00  0.00    -0.025 A 
ATOM      4  C   UNL     1       4.398  -0.493  -0.043  0.00  0.00    -0.021 A 
ATOM      5  S   UNL     1       2.630  -0.489  -0.026  0.00  0.00    -0.079 S 
ATOM      6  C   UNL     1       2.353   1.222  -0.014  0.00  0.00    +0.086 A 
ATOM      7  C   UNL     1       3.638   1.751  -0.029  0.00  0.00    +0.091 A 
ATOM      8  C   UNL     1       5.333  -1.661  -0.060  0.00  0.00    -0.035 C 
ATOM      9  N   UNL     1       6.673  -1.164  -0.458  0.00  0.00    +0.383 N 
ATOM     10  H   UNL     1       6.643  -0.873  -1.442  0.00  0.00    -0.081 HD
ENDROOT
BRANCH   6  11
ATOM     11  N   UNL     1       1.143   1.898   0.001  0.00  0.00    -0.279 N 
ATOM     12  C   UNL     1      -0.014   1.209   0.009  0.00  0.00    +0.218 C 
ATOM     13  O   UNL     1       0.002  -0.004   0.002  0.00  0.00    -0.275 OA
ATOM     14  H   UNL     1       1.130   2.868   0.007  0.00  0.00    +0.155 HD
BRANCH  12  15
ATOM     15  C   UNL     1      -1.330   1.944   0.019  0.00  0.00    +0.107 C 
BRANCH  15  16
ATOM     16  C   UNL     1      -2.479   0.934   0.019  0.00  0.00    +0.083 C 
BRANCH  16  17
ATOM     17  S   UNL     1      -4.062   1.820   0.031  0.00  0.00    -0.125 S 
BRANCH  17  18
ATOM     18  C   UNL     1      -5.269   0.536   0.030  0.00  0.00    +0.008 A 
ATOM     19  C   UNL     1      -4.869  -0.795   0.015  0.00  0.00    +0.016 A 
ATOM     20  C   UNL     1      -5.817  -1.799   0.019  0.00  0.00    +0.021 A 
ATOM     21  C   UNL     1      -7.164  -1.481   0.028  0.00  0.00    +0.041 A 
ATOM     22  C   UNL     1      -7.565  -0.156   0.037  0.00  0.00    +0.021 A 
ATOM     23  C   UNL     1      -6.622   0.852   0.038  0.00  0.00    +0.016 A 
ATOM     24 CL   UNL     1      -8.353  -2.746   0.027  0.00  0.00    -0.084 Cl
ENDBRANCH  17  18
ENDBRANCH  16  17
ENDBRANCH  15  16
ENDBRANCH  12  15
ENDBRANCH   6  11
BRANCH   7  25
ATOM     25  C   UNL     1       3.865   3.197  -0.031  0.00  0.00    +0.342 C 
ATOM     26  O   UNL     1       3.972   3.798   1.021  0.00  0.00    -0.245 OA
BRANCH  25  27
ATOM     27  O   UNL     1       3.955   3.864  -1.200  0.00  0.00    -0.464 OA
ATOM     28  C   UNL     1       4.181   5.296  -1.127  0.00  0.00    +0.280 C 
ENDBRANCH  25  27
ENDBRANCH   7  25
BRANCH   9  29
ATOM     29  C   UNL     1       7.677  -2.239  -0.305  0.00  0.00    -0.079 C 
BRANCH  29  31
ATOM     30  C   UNL     1       8.870  -3.737   1.300  0.00  0.00    +0.002 C 
ATOM     31  C   UNL     1       7.826  -2.626   1.168  0.00  0.00    -0.022 C 
ENDBRANCH  29  31
ENDBRANCH   9  29
TORSDOF 9
