REMARK  Name = ZINC01474130
REMARK  9 active torsions:
REMARK  status: ('A' for Active; 'I' for Inactive)
REMARK    1  A    between atoms: C_3  and  S_26
REMARK    2  A    between atoms: C_6  and  C_7
REMARK    3  A    between atoms: C_10  and  C_12
REMARK    4  A    between atoms: C_13  and  C_14
REMARK    5  A    between atoms: C_13  and  C_16
REMARK    6  A    between atoms: N_18  and  C_19
REMARK    7  A    between atoms: C_19  and  C_20
REMARK    8  A    between atoms: C_20  and  N_54
REMARK    9  A    between atoms: S_26  and  N_29
REMARK                            x       y       z     vdW  Elec       q    Type
REMARK                         _______ _______ _______ _____ _____    ______ ____
ROOT
ATOM      1  C   UNL     1      -3.117   3.064   4.885  0.00  0.00    +0.136 A 
ATOM      2  C   UNL     1      -3.006   4.274   5.538  0.00  0.00    +0.050 A 
ATOM      3  C   UNL     1      -3.896   4.242   6.610  0.00  0.00    +0.050 A 
ATOM      4  C   UNL     1      -4.524   3.005   6.573  0.00  0.00    +0.130 A 
ATOM      5  O   UNL     1      -4.038   2.318   5.518  0.00  0.00    -0.455 OA
ENDROOT
BRANCH   1  11
ATOM      6  C   UNL     1      -2.561   1.401   3.117  0.00  0.00    +0.013 A 
ATOM      7  C   UNL     1      -1.846   1.029   1.998  0.00  0.00    +0.029 A 
ATOM      8  C   UNL     1      -0.927   1.900   1.439  0.00  0.00    +0.105 A 
ATOM      9  C   UNL     1      -0.714   3.147   2.002  0.00  0.00    +0.029 A 
ATOM     10  C   UNL     1      -1.426   3.534   3.118  0.00  0.00    +0.013 A 
ATOM     11  C   UNL     1      -2.356   2.660   3.687  0.00  0.00    +0.017 A 
BRANCH   8  12
ATOM     12  S   UNL     1      -0.017   1.417   0.010  0.00  0.00    +0.056 S 
ATOM     13  O   UNL     1       0.002  -0.004   0.002  0.00  0.00    -0.153 OA
ATOM     14  O   UNL     1       1.172   2.195   0.003  0.00  0.00    -0.153 OA
BRANCH  12  15
ATOM     15  N   UNL     1      -0.897   1.885  -1.312  0.00  0.00    -0.204 NA
ATOM     16  H   UNL     1      -1.747   2.338  -1.194  0.00  0.00    +0.144 HD
ATOM     17  H   UNL     1      -0.563   1.708  -2.205  0.00  0.00    +0.144 HD
ENDBRANCH  12  15
ENDBRANCH   8  12
ENDBRANCH   1  11
BRANCH   4  18
ATOM     18  C   UNL     1      -5.500   2.550   7.474  0.00  0.00    +0.070 C 
ATOM     19  C   UNL     1      -6.049   1.284   7.321  0.00  0.00    +0.117 C 
BRANCH  19  20
ATOM     20  C   UNL     1      -7.070   0.808   8.263  0.00  0.00    +0.254 C 
ATOM     21  O   UNL     1      -7.434   1.523   9.178  0.00  0.00    -0.269 OA
ATOM     22  N   UNL     1      -7.603  -0.421   8.114  0.00  0.00    -0.313 N 
ATOM     23  H   UNL     1      -7.312  -0.991   7.385  0.00  0.00    +0.149 HD
BRANCH  22  24
ATOM     24  C   UNL     1      -8.621  -0.896   9.054  0.00  0.00    +0.086 C 
BRANCH  24  25
ATOM     25  C   UNL     1      -9.056  -2.310   8.664  0.00  0.00    -0.060 C 
BRANCH  25  31
ATOM     26  C   UNL     1      -9.515  -2.948  10.953  0.00  0.00    -0.079 C 
ATOM     27  C   UNL     1     -10.634  -3.303  11.935  0.00  0.00    -0.019 C 
ATOM     28  C   UNL     1     -11.308  -4.602  11.484  0.00  0.00    -0.004 C 
ATOM     29  C   UNL     1     -11.842  -4.423  10.060  0.00  0.00    -0.019 C 
ATOM     30  C   UNL     1     -10.688  -4.035   9.133  0.00  0.00    -0.079 C 
ATOM     31  N   UNL     1     -10.098  -2.765   9.607  0.00  0.00    +0.381 N 
ATOM     32  H   UNL     1     -10.836  -2.053   9.657  0.00  0.00    -0.082 HD
ENDBRANCH  25  31
ENDBRANCH  24  25
ENDBRANCH  22  24
ENDBRANCH  19  20
BRANCH  19  33
ATOM     33  C   UNL     1      -5.620   0.443   6.245  0.00  0.00    +0.104 C 
ATOM     34  N   UNL     1      -5.280  -0.224   5.391  0.00  0.00    -0.191 NA
ENDBRANCH  19  33
ENDBRANCH   4  18
TORSDOF 9
