REMARK  Name = ZINC48025005
REMARK  8 active torsions:
REMARK  status: ('A' for Active; 'I' for Inactive)
REMARK    1  A    between atoms: C_1  and  C_2
REMARK    2  A    between atoms: C_5  and  C_8
REMARK    3  A    between atoms: C_8  and  C_10
REMARK    4  A    between atoms: C_8  and  N_15
REMARK    5  A    between atoms: C_16  and  C_18
REMARK    6  A    between atoms: C_18  and  N_19
REMARK    7  A    between atoms: C_22  and  C_25
REMARK    8  A    between atoms: C_25  and  C_26
REMARK                            x       y       z     vdW  Elec       q    Type
REMARK                         _______ _______ _______ _____ _____    ______ ____
ROOT
ATOM      1  N   UNL     1      -0.816  -4.781   1.039  0.00  0.00    -0.306 N 
ATOM      2  C   UNL     1      -1.361  -6.009   0.935  0.00  0.00    +0.197 C 
ATOM      3  O   UNL     1      -1.125  -6.696  -0.037  0.00  0.00    -0.278 OA
ATOM      4  H   UNL     1      -1.004  -4.231   1.816  0.00  0.00    +0.150 HD
ENDROOT
BRANCH   1   5
ATOM      5  C   UNL     1       0.059  -4.275  -0.021  0.00  0.00    +0.140 C 
BRANCH   5  10
ATOM      6  C   UNL     1      -0.018   1.503   0.010  0.00  0.00    +0.044 C 
ATOM      7  C   UNL     1       0.002  -0.004   0.002  0.00  0.00    -0.050 A 
ATOM      8  C   UNL     1       0.006  -0.689  -1.199  0.00  0.00    +0.004 A 
ATOM      9  C   UNL     1       0.025  -2.071  -1.206  0.00  0.00    +0.006 A 
ATOM     10  C   UNL     1       0.040  -2.768  -0.013  0.00  0.00    -0.022 A 
ATOM     11  C   UNL     1       0.037  -2.084   1.188  0.00  0.00    +0.006 A 
ATOM     12  C   UNL     1       0.023  -0.702   1.195  0.00  0.00    +0.004 A 
ENDBRANCH   5  10
BRANCH   5  13
ATOM     13  C   UNL     1       1.466  -4.761   0.215  0.00  0.00    +0.014 A 
ATOM     14  C   UNL     1       2.382  -5.196  -0.685  0.00  0.00    +0.013 A 
ATOM     15  C   UNL     1       3.626  -5.597  -0.236  0.00  0.00    +0.008 A 
ATOM     16  C   UNL     1       3.893  -5.544   1.092  0.00  0.00    +0.045 A 
ATOM     17  S   UNL     1       2.363  -4.905   1.752  0.00  0.00    -0.099 S 
ENDBRANCH   5  13
ENDBRANCH   1   5
BRANCH   2  18
ATOM     18  C   UNL     1      -2.261  -6.529   2.025  0.00  0.00    +0.019 C 
BRANCH  18  19
ATOM     19  N   UNL     1      -2.722  -7.880   1.677  0.00  0.00    +0.385 N 
ATOM     20  C   UNL     1      -3.556  -7.816   0.471  0.00  0.00    -0.078 C 
ATOM     21  C   UNL     1      -3.972  -9.229   0.058  0.00  0.00    -0.015 C 
ATOM     22  C   UNL     1      -4.767  -9.875   1.196  0.00  0.00    -0.006 C 
ATOM     23  C   UNL     1      -3.914  -9.869   2.468  0.00  0.00    -0.015 C 
ATOM     24  C   UNL     1      -3.501  -8.432   2.792  0.00  0.00    -0.078 C 
ATOM     25  H   UNL     1      -1.924  -8.472   1.500  0.00  0.00    -0.081 HD
BRANCH  22  26
ATOM     26  C   UNL     1      -5.118 -11.316   0.822  0.00  0.00    +0.099 C 
BRANCH  26  27
ATOM     27  C   UNL     1      -6.003 -11.910   1.887  0.00  0.00    +0.211 C 
ATOM     28  O   UNL     1      -6.322 -11.246   2.850  0.00  0.00    -0.276 OA
ATOM     29  N   UNL     1      -6.441 -13.180   1.768  0.00  0.00    -0.329 N 
ATOM     30  H   UNL     1      -6.186 -13.711   0.997  0.00  0.00    +0.145 HD
ATOM     31  H   UNL     1      -7.011 -13.562   2.453  0.00  0.00    +0.145 HD
ENDBRANCH  26  27
ENDBRANCH  22  26
ENDBRANCH  18  19
ENDBRANCH   2  18
TORSDOF 7
