REMARK  Name = ZINC66528148
REMARK  10 active torsions:
REMARK  status: ('A' for Active; 'I' for Inactive)
REMARK    1  A    between atoms: C_3  and  C_22
REMARK    2  A    between atoms: C_4  and  N_8
REMARK    3  A    between atoms: C_9  and  C_11
REMARK    4  A    between atoms: C_11  and  N_12
REMARK    5  A    between atoms: N_12  and  C_13
REMARK    6  A    between atoms: N_12  and  C_17
REMARK    7  A    between atoms: C_13  and  C_14
REMARK    8  A    between atoms: C_14  and  C_15
REMARK    9  A    between atoms: C_15  and  O_16
REMARK   10  A    between atoms: C_17  and  C_18
REMARK                            x       y       z     vdW  Elec       q    Type
REMARK                         _______ _______ _______ _____ _____    ______ ____
ROOT
ATOM      1  N   UNL     1       2.835  -0.966   0.619  0.00  0.00    -0.285 N 
ATOM      2  C   UNL     1       3.108  -2.282   0.721  0.00  0.00    +0.201 C 
ATOM      3  O   UNL     1       2.245  -3.101   0.485  0.00  0.00    -0.278 OA
ATOM      4  H   UNL     1       3.536  -0.312   0.764  0.00  0.00    +0.155 HD
ENDROOT
BRANCH   1   8
ATOM      5  C   UNL     1      -1.024   0.293  -0.326  0.00  0.00    +0.002 A 
ATOM      6  C   UNL     1       0.066   0.896  -0.926  0.00  0.00    +0.014 A 
ATOM      7  C   UNL     1       1.346   0.481  -0.616  0.00  0.00    +0.077 A 
ATOM      8  C   UNL     1       1.539  -0.543   0.302  0.00  0.00    +0.064 A 
ATOM      9  C   UNL     1       0.442  -1.148   0.904  0.00  0.00    +0.063 A 
ATOM     10  C   UNL     1      -0.836  -0.728   0.588  0.00  0.00    +0.022 A 
ATOM     11 CL   UNL     1       0.677  -2.429   2.051  0.00  0.00    -0.082 Cl
BRANCH   7  12
ATOM     12  C   UNL     1       2.532   1.140  -1.271  0.00  0.00    +0.419 C 
ATOM     13  F   UNL     1       2.088   2.134  -2.149  0.00  0.00    -0.166 F 
ATOM     14  F   UNL     1       3.348   1.714  -0.291  0.00  0.00    -0.166 F 
ATOM     15  F   UNL     1       3.263   0.182  -1.983  0.00  0.00    -0.166 F 
ENDBRANCH   7  12
ENDBRANCH   1   8
BRANCH   2  16
ATOM     16  C   UNL     1       4.486  -2.736   1.128  0.00  0.00    +0.019 C 
BRANCH  16  17
ATOM     17  N   UNL     1       4.527  -4.204   1.165  0.00  0.00    +0.391 N 
ATOM     18  H   UNL     1       3.796  -4.545   1.771  0.00  0.00    -0.081 HD
BRANCH  17  19
ATOM     19  C   UNL     1       5.832  -4.645   1.677  0.00  0.00    -0.076 C 
BRANCH  19  20
ATOM     20  C   UNL     1       6.010  -4.150   3.113  0.00  0.00    +0.009 C 
BRANCH  20  21
ATOM     21  C   UNL     1       7.409  -4.520   3.610  0.00  0.00    +0.154 C 
BRANCH  21  22
ATOM     22  O   UNL     1       7.576  -4.058   4.952  0.00  0.00    -0.395 OA
ATOM     23  H   UNL     1       8.442  -4.258   5.332  0.00  0.00    +0.209 HD
ENDBRANCH  21  22
ENDBRANCH  20  21
ENDBRANCH  19  20
ENDBRANCH  17  19
BRANCH  17  24
ATOM     24  C   UNL     1       4.327  -4.734  -0.190  0.00  0.00    +0.037 C 
BRANCH  24  25
ATOM     25  C   UNL     1       4.179  -6.256  -0.126  0.00  0.00    +0.376 C 
ATOM     26  F   UNL     1       3.184  -6.589   0.800  0.00  0.00    -0.173 F 
ATOM     27  F   UNL     1       3.824  -6.744  -1.388  0.00  0.00    -0.173 F 
ATOM     28  F   UNL     1       5.394  -6.826   0.270  0.00  0.00    -0.173 F 
ENDBRANCH  24  25
ENDBRANCH  17  24
ENDBRANCH  16  17
ENDBRANCH   2  16
TORSDOF 10
