REMARK  Name = ZINC07520823
REMARK  16 active torsions:
REMARK  status: ('A' for Active; 'I' for Inactive)
REMARK    1  A    between atoms: C_1  and  C_2
REMARK    2  A    between atoms: C_2  and  O_3
REMARK    3  A    between atoms: O_3  and  C_4
REMARK    4  A    between atoms: C_6  and  C_16
REMARK    5  A    between atoms: C_9  and  O_10
REMARK    6  A    between atoms: O_10  and  C_11
REMARK    7  A    between atoms: C_11  and  C_12
REMARK    8  A    between atoms: C_16  and  N_55
REMARK    9  A    between atoms: C_17  and  C_18
REMARK   10  A    between atoms: C_17  and  C_19
REMARK   11  A    between atoms: C_17  and  C_20
REMARK   12  A    between atoms: C_17  and  N_55
REMARK   13  A    between atoms: C_20  and  C_21
REMARK   14  A    between atoms: C_21  and  C_22
REMARK   15  A    between atoms: C_21  and  C_23
REMARK   16  A    between atoms: C_21  and  C_24
REMARK                            x       y       z     vdW  Elec       q    Type
REMARK                         _______ _______ _______ _____ _____    ______ ____
ROOT
ATOM      1  C   UNL     1       1.231   3.785   4.723  0.00  0.00    +0.164 A 
ATOM      2  C   UNL     1       1.610   2.862   5.685  0.00  0.00    +0.051 A 
ATOM      3  C   UNL     1       0.863   1.714   5.874  0.00  0.00    -0.059 A 
ATOM      4  C   UNL     1      -0.262   1.483   5.106  0.00  0.00    +0.025 A 
ATOM      5  C   UNL     1      -0.650   2.403   4.148  0.00  0.00    +0.086 A 
ATOM      6  C   UNL     1       0.098   3.554   3.950  0.00  0.00    +0.181 A 
ATOM      7 CL   UNL     1      -2.069   2.114   3.190  0.00  0.00    -0.080 Cl
ENDROOT
BRANCH   1   8
ATOM      8  O   UNL     1       1.965   4.915   4.537  0.00  0.00    -0.489 OA
BRANCH   8  10
ATOM      9  C   UNL     1       3.807   6.404   5.014  0.00  0.00    +0.048 C 
ATOM     10  C   UNL     1       3.115   5.086   5.367  0.00  0.00    +0.226 C 
ENDBRANCH   8  10
ENDBRANCH   1   8
BRANCH   6  11
ATOM     11  O   UNL     1      -0.278   4.457   3.005  0.00  0.00    -0.478 OA
BRANCH  11  12
ATOM     12  C   UNL     1       0.256   4.281   1.691  0.00  0.00    +0.324 C 
BRANCH  12  13
ATOM     13  C   UNL     1      -0.267   5.367   0.786  0.00  0.00    +0.248 C 
ATOM     14  O   UNL     1      -1.023   6.209   1.224  0.00  0.00    -0.272 OA
ATOM     15  N   UNL     1       0.104   5.404  -0.508  0.00  0.00    -0.327 N 
ATOM     16  H   UNL     1       0.709   4.731  -0.859  0.00  0.00    +0.145 HD
ATOM     17  H   UNL     1      -0.233   6.103  -1.090  0.00  0.00    +0.145 HD
ENDBRANCH  12  13
ENDBRANCH  11  12
ENDBRANCH   6  11
BRANCH   3  18
ATOM     18  C   UNL     1       1.277   0.712   6.921  0.00  0.00    -0.046 C 
BRANCH  18  19
ATOM     19  N   UNL     1       0.630   1.054   8.201  0.00  0.00    +0.385 N 
ATOM     20  H   UNL     1      -0.390   1.032   8.081  0.00  0.00    -0.085 HD
ATOM     21  H   UNL     1       0.920   1.997   8.486  0.00  0.00    -0.085 HD
BRANCH  19  22
ATOM     22  C   UNL     1       1.018   0.088   9.246  0.00  0.00    -0.073 C 
ATOM     23  C   UNL     1       0.583  -1.319   8.832  0.00  0.00    -0.010 C 
ATOM     24  C   UNL     1       2.536   0.118   9.436  0.00  0.00    -0.010 C 
BRANCH  22  25
ATOM     25  C   UNL     1       0.332   0.468  10.560  0.00  0.00    -0.007 C 
BRANCH  25  26
ATOM     26  C   UNL     1       0.445   1.979  10.776  0.00  0.00    -0.039 C 
ATOM     27  C   UNL     1      -0.436   2.707   9.759  0.00  0.00    +0.010 C 
ATOM     28  C   UNL     1      -0.016   2.327  12.193  0.00  0.00    +0.010 C 
ATOM     29  C   UNL     1       1.901   2.413  10.592  0.00  0.00    +0.010 C 
ENDBRANCH  25  26
ENDBRANCH  22  25
ENDBRANCH  19  22
ENDBRANCH  18  19
ENDBRANCH   3  18
TORSDOF 10
