REMARK  Name = ZINC13556010
REMARK  16 active torsions:
REMARK  status: ('A' for Active; 'I' for Inactive)
REMARK    1  A    between atoms: C_1  and  C_2
REMARK    2  A    between atoms: C_4  and  C_28
REMARK    3  A    between atoms: C_9  and  C_26
REMARK    4  A    between atoms: C_10  and  N_12
REMARK    5  A    between atoms: N_12  and  C_13
REMARK    6  A    between atoms: C_13  and  C_14
REMARK    7  A    between atoms: C_14  and  C_15
REMARK    8  A    between atoms: C_15  and  N_16
REMARK    9  A    between atoms: N_16  and  C_17
REMARK   10  A    between atoms: C_17  and  N_19
REMARK   11  A    between atoms: N_19  and  C_20
REMARK   12  A    between atoms: C_20  and  C_21
REMARK   13  A    between atoms: C_21  and  C_22
REMARK   14  A    between atoms: C_22  and  N_23
REMARK   15  A    between atoms: N_23  and  C_24
REMARK   16  A    between atoms: N_23  and  C_25
REMARK                            x       y       z     vdW  Elec       q    Type
REMARK                         _______ _______ _______ _____ _____    ______ ____
ROOT
ATOM      1  N   UNL     1       0.090  -6.209   0.950  0.00  0.00    -0.328 N 
ATOM      2  H   UNL     1       0.101  -6.740   1.762  0.00  0.00    +0.147 HD
ENDROOT
BRANCH   1  12
ATOM      3  C   UNL     1      -0.018   1.503   0.010  0.00  0.00    +0.044 C 
ATOM      4  C   UNL     1       0.002  -0.004   0.002  0.00  0.00    -0.050 A 
ATOM      5  C   UNL     1       0.006  -0.685  -1.213  0.00  0.00    +0.008 A 
ATOM      6  C   UNL     1       0.023  -2.046  -1.256  0.00  0.00    -0.024 A 
ATOM      7  C   UNL     1       0.039  -2.783  -0.059  0.00  0.00    +0.076 A 
ATOM      8  C   UNL     1       0.036  -2.088   1.176  0.00  0.00    +0.002 A 
ATOM      9  C   UNL     1       0.022  -0.683   1.182  0.00  0.00    +0.013 A 
ATOM     10  C   UNL     1       0.052  -2.819   2.377  0.00  0.00    +0.032 A 
ATOM     11  C   UNL     1       0.070  -4.205   2.298  0.00  0.00    +0.092 A 
ATOM     12  C   UNL     1       0.072  -4.829   1.028  0.00  0.00    +0.137 A 
ATOM     13  N   UNL     1       0.057  -4.121  -0.081  0.00  0.00    -0.231 NA
ATOM     14  C   UNL     1       0.026  -2.760  -2.583  0.00  0.00    +0.046 C 
BRANCH  11  15
ATOM     15  C   UNL     1       0.087  -4.997   3.492  0.00  0.00    +0.103 C 
ATOM     16  N   UNL     1       0.100  -5.625   4.438  0.00  0.00    -0.191 NA
ENDBRANCH  11  15
ENDBRANCH   1  12
BRANCH   1  17
ATOM     17  C   UNL     1       0.092  -6.869  -0.358  0.00  0.00    +0.104 C 
BRANCH  17  18
ATOM     18  C   UNL     1       0.114  -8.387  -0.163  0.00  0.00    +0.037 C 
BRANCH  18  19
ATOM     19  C   UNL     1       0.116  -9.076  -1.529  0.00  0.00    +0.105 C 
BRANCH  19  20
ATOM     20  N   UNL     1       0.137 -10.529  -1.342  0.00  0.00    -0.327 N 
ATOM     21  H   UNL     1       0.147 -10.903  -0.447  0.00  0.00    +0.148 HD
BRANCH  20  22
ATOM     22  C   UNL     1       0.143 -11.346  -2.414  0.00  0.00    +0.130 C 
ATOM     23  S   UNL     1       0.126 -10.686  -3.994  0.00  0.00    -0.019 S 
BRANCH  22  24
ATOM     24  N   UNL     1       0.162 -12.683  -2.243  0.00  0.00    -0.327 N 
ATOM     25  H   UNL     1       0.172 -13.057  -1.348  0.00  0.00    +0.148 HD
BRANCH  24  26
ATOM     26  C   UNL     1       0.168 -13.571  -3.408  0.00  0.00    +0.101 C 
BRANCH  26  27
ATOM     27  C   UNL     1       0.190 -15.027  -2.939  0.00  0.00    +0.000 C 
BRANCH  27  28
ATOM     28  C   UNL     1       0.197 -15.954  -4.156  0.00  0.00    -0.078 C 
BRANCH  28  29
ATOM     29  N   UNL     1       0.218 -17.353  -3.706  0.00  0.00    +0.376 N 
ATOM     30  C   UNL     1       0.103 -18.243  -4.869  0.00  0.00    -0.097 C 
ATOM     31  C   UNL     1       1.481 -17.622  -3.005  0.00  0.00    -0.097 C 
ATOM     32  H   UNL     1      -0.556 -17.516  -3.080  0.00  0.00    -0.083 HD
ENDBRANCH  28  29
ENDBRANCH  27  28
ENDBRANCH  26  27
ENDBRANCH  24  26
ENDBRANCH  22  24
ENDBRANCH  20  22
ENDBRANCH  19  20
ENDBRANCH  18  19
ENDBRANCH  17  18
ENDBRANCH   1  17
TORSDOF 12
