REMARK  Name = ZINC62999783
REMARK  6 active torsions:
REMARK  status: ('A' for Active; 'I' for Inactive)
REMARK    1  A    between atoms: C_4  and  CA_7
REMARK    2  A    between atoms: CA_7  and  C_9
REMARK    3  A    between atoms: CA_7  and  N_11
REMARK    4  A    between atoms: C_9  and  O_10
REMARK    5  A    between atoms: N_11  and  C_12
REMARK    6  A    between atoms: C_12  and  C_13
REMARK                            x       y       z     vdW  Elec       q    Type
REMARK                         _______ _______ _______ _____ _____    ______ ____
ROOT
ATOM      1  N   UNL     1       3.611  -1.868  -0.933  0.00  0.00    +0.388 N 
ATOM      2  H1  UNL     1       2.943  -2.525  -0.558  0.00  0.00    -0.084 HD
ATOM      3  H2  UNL     1       3.308  -1.563  -1.846  0.00  0.00    -0.084 HD
ENDROOT
BRANCH   1   4
ATOM      4  CA  UNL     1       3.711  -0.707  -0.038  0.00  0.00    -0.015 C 
BRANCH   4   8
ATOM      5  C   UNL     1      -0.017   1.378   0.010  0.00  0.00    +0.000 A 
ATOM      6  C   UNL     1       1.171   2.086   0.002  0.00  0.00    +0.000 A 
ATOM      7  C   UNL     1       2.377   1.411  -0.013  0.00  0.00    +0.002 A 
ATOM      8  C   UNL     1       2.396   0.029  -0.020  0.00  0.00    -0.059 A 
ATOM      9  C   UNL     1       1.208  -0.679  -0.012  0.00  0.00    +0.002 A 
ATOM     10  C   UNL     1       0.002  -0.004   0.002  0.00  0.00    +0.000 A 
ENDBRANCH   4   8
BRANCH   4  11
ATOM     11  C   UNL     1       4.049  -1.182   1.377  0.00  0.00    +0.144 C 
BRANCH  11  12
ATOM     12  O   UNL     1       2.966  -1.962   1.889  0.00  0.00    -0.396 OA
ATOM     13  H   UNL     1       3.112  -2.297   2.784  0.00  0.00    +0.209 HD
ENDBRANCH  11  12
ENDBRANCH   4  11
ENDBRANCH   1   4
BRANCH   1  14
ATOM     14  C   UNL     1       4.925  -2.515  -1.043  0.00  0.00    -0.046 C 
BRANCH  14  15
ATOM     15  C   UNL     1       4.823  -3.706  -1.961  0.00  0.00    -0.060 A 
ATOM     16  C   UNL     1       4.504  -4.949  -1.446  0.00  0.00    +0.051 A 
ATOM     17  C   UNL     1       4.409  -6.045  -2.288  0.00  0.00    +0.168 A 
ATOM     18  C   UNL     1       4.635  -5.891  -3.654  0.00  0.00    +0.180 A 
ATOM     19  C   UNL     1       4.954  -4.643  -4.163  0.00  0.00    +0.063 A 
ATOM     20  C   UNL     1       5.041  -3.552  -3.317  0.00  0.00    +0.021 A 
ATOM     21 BR   UNL     1       5.262  -4.429  -6.017  0.00  0.00    -0.046 Br
ATOM     22  O   UNL     1       4.483  -7.105  -4.260  0.00  0.00    -0.451 OA
ATOM     23  C   UNL     1       4.564  -8.077  -3.201  0.00  0.00    +0.466 C 
ATOM     24  O   UNL     1       4.116  -7.355  -2.039  0.00  0.00    -0.453 OA
ENDBRANCH  14  15
ENDBRANCH   1  14
TORSDOF 6
