REMARK  Name = ZINC14461325
REMARK  10 active torsions:
REMARK  status: ('A' for Active; 'I' for Inactive)
REMARK    1  A    between atoms: C_1  and  C_2
REMARK    2  A    between atoms: C_2  and  N_61
REMARK    3  A    between atoms: C_3  and  C_4
REMARK    4  A    between atoms: C_3  and  N_61
REMARK    5  A    between atoms: C_5  and  C_6
REMARK    6  A    between atoms: C_5  and  N_61
REMARK    7  A    between atoms: C_6  and  N_7
REMARK    8  A    between atoms: C_8  and  C_10
REMARK    9  A    between atoms: C_23  and  C_26
REMARK   10  A    between atoms: C_31  and  O_32
REMARK                            x       y       z     vdW  Elec       q    Type
REMARK                         _______ _______ _______ _____ _____    ______ ____
ROOT
ATOM      1  C   UNL     1       2.657   9.520   0.334  0.00  0.00    +0.037 A 
ATOM      2  C   UNL     1       3.144   8.841  -0.787  0.00  0.00    +0.015 A 
ATOM      3  C   UNL     1       2.913   7.491  -0.915  0.00  0.00    +0.024 A 
ATOM      4  C   UNL     1       2.200   6.805   0.065  0.00  0.00    +0.031 A 
ATOM      5  C   UNL     1       1.713   7.470   1.184  0.00  0.00    -0.019 A 
ATOM      6  C   UNL     1       1.943   8.828   1.313  0.00  0.00    +0.019 A 
ATOM      7  C   UNL     1       0.948   6.769   2.262  0.00  0.00    +0.049 C 
ATOM      8  C   UNL     1      -0.528   7.082   2.184  0.00  0.00    -0.023 C 
ATOM      9  C   UNL     1      -1.233   6.026   2.506  0.00  0.00    -0.030 C 
ATOM     10  C   UNL     1      -0.322   4.862   2.848  0.00  0.00    +0.033 C 
ATOM     11  C   UNL     1       1.014   5.234   2.145  0.00  0.00    +0.029 C 
ATOM     12  C   UNL     1       0.891   4.818   0.676  0.00  0.00    +0.108 C 
ATOM     13  N   UNL     1       1.977   5.438  -0.088  0.00  0.00    -0.336 N 
ATOM     14  H   UNL     1       2.528   4.910  -0.686  0.00  0.00    +0.147 HD
ENDROOT
BRANCH  12  15
ATOM     15  C   UNL     1       0.989   3.318   0.566  0.00  0.00    +0.015 A 
ATOM     16  C   UNL     1      -0.142   2.568   0.305  0.00  0.00    +0.024 A 
ATOM     17  C   UNL     1      -0.053   1.192   0.204  0.00  0.00    +0.018 A 
ATOM     18  C   UNL     1       1.169   0.563   0.364  0.00  0.00    +0.019 A 
ATOM     19  C   UNL     1       2.301   1.308   0.632  0.00  0.00    +0.047 A 
ATOM     20  C   UNL     1       2.215   2.689   0.728  0.00  0.00    +0.122 A 
ATOM     21 BR   UNL     1      -1.602   0.169  -0.153  0.00  0.00    -0.050 Br
BRANCH  20  22
ATOM     22  O   UNL     1       3.328   3.425   0.984  0.00  0.00    -0.506 OA
ATOM     23  H   UNL     1       3.499   3.565   1.925  0.00  0.00    +0.292 HD
ENDBRANCH  20  22
ENDBRANCH  12  15
BRANCH   1  25
ATOM     24  N   UNL     1       3.586  11.636  -0.466  0.00  0.00    -0.313 N 
ATOM     25  C   UNL     1       2.897  10.968   0.481  0.00  0.00    +0.244 C 
ATOM     26  O   UNL     1       2.473  11.559   1.455  0.00  0.00    -0.270 OA
ATOM     27  H   UNL     1       3.924  11.165  -1.243  0.00  0.00    +0.149 HD
BRANCH  24  28
ATOM     28  C   UNL     1       3.824  13.075  -0.320  0.00  0.00    +0.086 C 
BRANCH  28  29
ATOM     29  C   UNL     1       4.623  13.584  -1.521  0.00  0.00    -0.060 C 
BRANCH  29  30
ATOM     30  N   UNL     1       4.837  15.038  -1.370  0.00  0.00    +0.380 N 
ATOM     31  H   UNL     1       3.933  15.491  -1.190  0.00  0.00    -0.082 HD
BRANCH  30  33
ATOM     32  C   UNL     1       7.080  14.589  -0.432  0.00  0.00    -0.017 C 
ATOM     33  C   UNL     1       5.740  15.300  -0.230  0.00  0.00    -0.082 C 
ENDBRANCH  30  33
BRANCH  30  34
ATOM     34  C   UNL     1       5.415  15.595  -2.611  0.00  0.00    -0.082 C 
ATOM     35  C   UNL     1       5.405  17.123  -2.517  0.00  0.00    -0.017 C 
ENDBRANCH  30  34
ENDBRANCH  29  30
ENDBRANCH  28  29
ENDBRANCH  24  28
ENDBRANCH   1  25
TORSDOF 8
