REMARK  Name = ZINC43093354
REMARK  13 active torsions:
REMARK  status: ('A' for Active; 'I' for Inactive)
REMARK    1  A    between atoms: C_1  and  C_2
REMARK    2  A    between atoms: C_2  and  C_3
REMARK    3  A    between atoms: C_3  and  C_4
REMARK    4  A    between atoms: C_3  and  N_6
REMARK    5  A    between atoms: C_4  and  C_5
REMARK    6  A    between atoms: N_6  and  C_7
REMARK    7  A    between atoms: N_6  and  C_10
REMARK    8  A    between atoms: C_7  and  C_8
REMARK    9  A    between atoms: C_8  and  O_9
REMARK   10  A    between atoms: C_10  and  C_12
REMARK   11  A    between atoms: C_10  and  C_19
REMARK   12  A    between atoms: C_19  and  C_21
REMARK   13  A    between atoms: C_19  and  N_22
REMARK                            x       y       z     vdW  Elec       q    Type
REMARK                         _______ _______ _______ _____ _____    ______ ____
ROOT
ATOM      1  C   UNL     1       1.470   1.282   1.731  0.00  0.00    +0.074 C 
ENDROOT
BRANCH   1   2
ATOM      2  C   UNL     1       1.379   1.618   3.197  0.00  0.00    -0.018 A 
ATOM      3  C   UNL     1       2.194   0.970   4.106  0.00  0.00    +0.006 A 
ATOM      4  C   UNL     1       2.111   1.277   5.451  0.00  0.00    +0.000 A 
ATOM      5  C   UNL     1       1.212   2.234   5.888  0.00  0.00    +0.001 A 
ATOM      6  C   UNL     1       0.397   2.882   4.979  0.00  0.00    +0.015 A 
ATOM      7  C   UNL     1       0.484   2.578   3.632  0.00  0.00    +0.022 A 
ATOM      8 BR   UNL     1      -0.626   3.470   2.388  0.00  0.00    -0.050 Br
ENDBRANCH   1   2
BRANCH   1   9
ATOM      9  C   UNL     1       2.667   2.009   1.115  0.00  0.00    -0.056 C 
ATOM     10  C   UNL     1       2.447   2.167  -0.391  0.00  0.00    -0.012 C 
BRANCH   9  11
ATOM     11  N   UNL     1       2.805   3.335   1.732  0.00  0.00    +0.381 N 
ATOM     12  H   UNL     1       2.950   3.231   2.725  0.00  0.00    -0.090 HD
ATOM     13  H   UNL     1       3.594   3.814   1.325  0.00  0.00    -0.090 HD
ATOM     14  H   UNL     1       1.966   3.871   1.568  0.00  0.00    -0.090 HD
ENDBRANCH   9  11
ENDBRANCH   1   9
BRANCH   1  15
ATOM     15  N   UNL     1       1.642  -0.168   1.570  0.00  0.00    -0.292 NA
BRANCH  15  16
ATOM     16  C   UNL     1       0.471  -0.896   2.076  0.00  0.00    +0.057 C 
BRANCH  16  18
ATOM     17  C   UNL     1      -0.972   0.387   0.491  0.00  0.00    +0.005 C 
ATOM     18  C   UNL     1      -0.577  -1.012   0.967  0.00  0.00    +0.015 C 
ENDBRANCH  16  18
BRANCH  16  19
ATOM     19  C   UNL     1       0.896  -2.296   2.525  0.00  0.00    +0.015 C 
ATOM     20  C   UNL     1       1.958  -2.180   3.620  0.00  0.00    +0.005 C 
ENDBRANCH  16  19
ENDBRANCH  15  16
BRANCH  15  21
ATOM     21  C   UNL     1       1.911  -0.514   0.168  0.00  0.00    +0.113 C 
BRANCH  21  22
ATOM     22  C   UNL     1       3.420  -0.500  -0.081  0.00  0.00    +0.171 C 
BRANCH  22  23
ATOM     23  O   UNL     1       4.045  -1.501   0.725  0.00  0.00    -0.394 OA
ATOM     24  H   UNL     1       5.005  -1.550   0.619  0.00  0.00    +0.209 HD
ENDBRANCH  22  23
ENDBRANCH  21  22
ENDBRANCH  15  21
ENDBRANCH   1  15
TORSDOF 10
