REMARK  Name = ZINC33326674
REMARK  8 active torsions:
REMARK  status: ('A' for Active; 'I' for Inactive)
REMARK    1  A    between atoms: C_1  and  C_2
REMARK    2  A    between atoms: C_5  and  N_9
REMARK    3  A    between atoms: N_12  and  C_13
REMARK    4  A    between atoms: C_16  and  N_19
REMARK    5  A    between atoms: C_22  and  N_27
REMARK    6  A    between atoms: C_24  and  C_26
REMARK    7  A    between atoms: N_27  and  C_28
REMARK    8  A    between atoms: N_27  and  C_29
REMARK                            x       y       z     vdW  Elec       q    Type
REMARK                         _______ _______ _______ _____ _____    ______ ____
ROOT
ATOM      1  C   UNL     1      -5.669   2.408   0.728  0.00  0.00    +0.035 A 
ATOM      2  C   UNL     1      -5.836   1.050   0.491  0.00  0.00    +0.025 A 
ATOM      3  C   UNL     1      -7.105   0.527   0.340  0.00  0.00    +0.025 A 
ATOM      4  C   UNL     1      -8.213   1.361   0.413  0.00  0.00    +0.032 A 
ATOM      5  C   UNL     1      -8.045   2.720   0.644  0.00  0.00    +0.025 A 
ATOM      6  C   UNL     1      -6.777   3.242   0.801  0.00  0.00    +0.025 A 
ENDROOT
BRANCH   4   7
ATOM      7  N   UNL     1      -9.499   0.831   0.255  0.00  0.00    -0.301 N 
ATOM      8  C   UNL     1      -9.745  -0.110  -0.734  0.00  0.00    +0.105 A 
ATOM      9  C   UNL     1      -8.767  -0.415  -1.677  0.00  0.00    +0.085 A 
ATOM     10  C   UNL     1      -9.061  -1.370  -2.645  0.00  0.00    +0.126 A 
ATOM     11  N   UNL     1     -10.261  -1.947  -2.641  0.00  0.00    -0.219 NA
ATOM     12  C   UNL     1     -11.162  -1.627  -1.734  0.00  0.00    +0.107 A 
ATOM     13  N   UNL     1     -10.921  -0.732  -0.798  0.00  0.00    -0.332 N 
ATOM     14  C   UNL     1     -12.507  -2.305  -1.768  0.00  0.00    +0.086 C 
ATOM     15  H   UNL     1     -10.315   1.162   0.914  0.00  0.00    +0.154 HD
ATOM     16  H   UNL     1     -11.706  -0.500  -0.064  0.00  0.00    +0.168 HD
BRANCH  10  17
ATOM     17  N   UNL     1      -8.120  -1.712  -3.603  0.00  0.00    -0.321 N 
ATOM     18  C   UNL     1      -6.767  -1.155  -3.534  0.00  0.00    +0.130 C 
ATOM     19  C   UNL     1      -8.477  -2.632  -4.686  0.00  0.00    +0.130 C 
ENDBRANCH  10  17
ENDBRANCH   4   7
BRANCH   1  23
ATOM     20  N   UNL     1      -2.954   4.519   1.841  0.00  0.00    -0.269 N 
ATOM     21  C   UNL     1      -4.169   3.942   1.761  0.00  0.00    +0.308 C 
ATOM     22  O   UNL     1      -5.074   4.327   2.476  0.00  0.00    -0.252 OA
ATOM     23  N   UNL     1      -4.381   2.939   0.886  0.00  0.00    -0.269 N 
ATOM     24  H   UNL     1      -2.161   4.234   1.135  0.00  0.00    +0.156 HD
ATOM     25  H   UNL     1      -3.544   2.536   0.298  0.00  0.00    +0.156 HD
BRANCH  20  30
ATOM     26  C   UNL     1      -1.930   8.422   5.832  0.00  0.00    +0.047 C 
ATOM     27  C   UNL     1      -2.202   7.386   4.772  0.00  0.00    -0.015 A 
ATOM     28  C   UNL     1      -3.026   6.312   5.052  0.00  0.00    +0.008 A 
ATOM     29  C   UNL     1      -3.273   5.358   4.084  0.00  0.00    +0.024 A 
ATOM     30  C   UNL     1      -2.701   5.483   2.825  0.00  0.00    +0.038 A 
ATOM     31  C   UNL     1      -1.873   6.561   2.545  0.00  0.00    +0.062 A 
ATOM     32  C   UNL     1      -1.625   7.511   3.519  0.00  0.00    +0.128 A 
ATOM     33  F   UNL     1      -0.819   8.562   3.248  0.00  0.00    -0.205 F 
ENDBRANCH  20  30
ENDBRANCH   1  23
TORSDOF 4
