REMARK  Name = ZINC37306772
REMARK  5 active torsions:
REMARK  status: ('A' for Active; 'I' for Inactive)
REMARK    1  A    between atoms: C_1  and  C_2
REMARK    2  A    between atoms: C_7  and  O_10
REMARK    3  A    between atoms: O_10  and  C_11
REMARK    4  A    between atoms: C_14  and  C_21
REMARK    5  A    between atoms: C_15  and  C_17
REMARK                            x       y       z     vdW  Elec       q    Type
REMARK                         _______ _______ _______ _____ _____    ______ ____
ROOT
ATOM      1  C   UNL     1      -0.711  -3.769   1.719  0.00  0.00    +0.121 A 
ATOM      2  C   UNL     1       0.276  -4.530   2.334  0.00  0.00    +0.046 A 
ATOM      3  C   UNL     1      -0.032  -5.764   2.862  0.00  0.00    +0.015 A 
ATOM      4  C   UNL     1      -1.339  -6.251   2.778  0.00  0.00    +0.024 A 
ATOM      5  C   UNL     1      -2.328  -5.484   2.160  0.00  0.00    +0.069 A 
ATOM      6  C   UNL     1      -2.013  -4.248   1.639  0.00  0.00    +0.058 A 
ENDROOT
BRANCH   4   7
ATOM      7  C   UNL     1      -1.674  -7.575   3.343  0.00  0.00    +0.095 C 
ATOM      8  N   UNL     1      -2.185  -8.523   2.559  0.00  0.00    -0.387 N 
ATOM      9  N   UNL     1      -1.464  -7.821   4.635  0.00  0.00    -0.345 N 
ATOM     10  H   UNL     1      -2.488  -9.360   2.944  0.00  0.00    +0.157 HD
ATOM     11  H   UNL     1      -1.092  -7.130   5.206  0.00  0.00    +0.144 HD
ATOM     12  H   UNL     1      -1.684  -8.690   5.006  0.00  0.00    +0.144 HD
ATOM     13  H   UNL     1      -2.255  -8.377   1.602  0.00  0.00    +0.157 HD
ENDBRANCH   4   7
BRANCH   5  14
ATOM     14  C   UNL     1      -3.739  -6.004   2.067  0.00  0.00    +0.418 C 
ATOM     15  F   UNL     1      -4.569  -5.011   1.536  0.00  0.00    -0.166 F 
ATOM     16  F   UNL     1      -3.767  -7.129   1.234  0.00  0.00    -0.166 F 
ATOM     17  F   UNL     1      -4.191  -6.357   3.343  0.00  0.00    -0.166 F 
ENDBRANCH   5  14
BRANCH   1  18
ATOM     18  O   UNL     1      -0.404  -2.553   1.200  0.00  0.00    -0.489 OA
BRANCH  18  24
ATOM     19  C   UNL     1       0.522   1.391  -0.182  0.00  0.00    +0.007 C 
ATOM     20  C   UNL     1       0.429  -0.135  -0.119  0.00  0.00    -0.011 C 
ATOM     21  C   UNL     1       1.173  -0.740  -1.312  0.00  0.00    +0.003 C 
ATOM     22  C   UNL     1       1.080  -2.266  -1.249  0.00  0.00    +0.004 C 
ATOM     23  C   UNL     1       1.713  -2.763   0.052  0.00  0.00    +0.044 C 
ATOM     24  C   UNL     1       0.969  -2.158   1.244  0.00  0.00    +0.174 C 
ATOM     25  C   UNL     1       1.062  -0.632   1.182  0.00  0.00    +0.047 C 
ENDBRANCH  18  24
ENDBRANCH   1  18
TORSDOF 4
