REMARK  Name = ZINC39631279
REMARK  13 active torsions:
REMARK  status: ('A' for Active; 'I' for Inactive)
REMARK    1  A    between atoms: C_1  and  C_2
REMARK    2  A    between atoms: C_2  and  C_4
REMARK    3  A    between atoms: C_2  and  N_11
REMARK    4  A    between atoms: C_4  and  C_5
REMARK    5  A    between atoms: C_5  and  C_6
REMARK    6  A    between atoms: C_6  and  C_7
REMARK    7  A    between atoms: C_7  and  C_8
REMARK    8  A    between atoms: C_7  and  C_9
REMARK    9  A    between atoms: C_7  and  O_10
REMARK   10  A    between atoms: C_12  and  C_14
REMARK   11  A    between atoms: C_25  and  C_27
REMARK   12  A    between atoms: C_27  and  C_28
REMARK   13  A    between atoms: C_28  and  C_29
REMARK                            x       y       z     vdW  Elec       q    Type
REMARK                         _______ _______ _______ _____ _____    ______ ____
ROOT
ATOM      1  C   UNL     1       1.352  -0.638  -3.974  0.00  0.00    +0.100 C 
ATOM      2  C   UNL     1       1.603  -2.161  -4.043  0.00  0.00    +0.121 C 
ATOM      3  N   UNL     1       0.655  -2.649  -5.074  0.00  0.00    -0.300 N 
ATOM      4  C   UNL     1       0.678  -1.600  -6.122  0.00  0.00    +0.115 C 
ATOM      5  C   UNL     1       0.749  -0.273  -5.340  0.00  0.00    -0.004 C 
ATOM      6  C   UNL     1       1.650   0.720  -6.068  0.00  0.00    -0.010 C 
ATOM      7  C   UNL     1       1.001   1.112  -7.398  0.00  0.00    -0.082 C 
ATOM      8  N   UNL     1      -0.316   1.710  -7.145  0.00  0.00    +0.379 N 
ATOM      9  C   UNL     1      -1.206   0.718  -6.529  0.00  0.00    -0.082 C 
ATOM     10  C   UNL     1      -0.650   0.309  -5.162  0.00  0.00    -0.010 C 
ATOM     11  C   UNL     1      -0.064  -3.789  -5.061  0.00  0.00    +0.216 C 
ATOM     12  O   UNL     1      -0.731  -4.096  -6.026  0.00  0.00    -0.276 OA
ATOM     13  H   UNL     1      -0.212   2.498  -6.524  0.00  0.00    -0.086 HD
ATOM     14  H   UNL     1      -0.715   2.022  -8.017  0.00  0.00    -0.086 HD
ENDROOT
BRANCH   1  16
ATOM     15  N   UNL     1       0.419   0.889  -2.266  0.00  0.00    -0.312 N 
ATOM     16  C   UNL     1       0.380  -0.316  -2.868  0.00  0.00    +0.218 C 
ATOM     17  O   UNL     1      -0.438  -1.141  -2.521  0.00  0.00    -0.275 OA
ATOM     18  H   UNL     1       1.022   1.575  -2.592  0.00  0.00    +0.149 HD
BRANCH  15  20
ATOM     19  C   UNL     1      -1.800   1.682  -1.611  0.00  0.00    +0.028 C 
ATOM     20  C   UNL     1      -0.449   1.162  -1.117  0.00  0.00    +0.070 C 
BRANCH  20  21
ATOM     21  C   UNL     1       0.207   2.215  -0.222  0.00  0.00    +0.022 C 
BRANCH  21  22
ATOM     22  C   UNL     1       1.498   1.648   0.371  0.00  0.00    +0.005 C 
BRANCH  22  23
ATOM     23  C   UNL     1       2.089   2.654   1.362  0.00  0.00    +0.034 C 
BRANCH  23  24
ATOM     24  C   UNL     1       3.357   2.069   1.987  0.00  0.00    +0.061 C 
ATOM     25  C   UNL     1       3.961   3.084   2.960  0.00  0.00    +0.041 C 
ATOM     26  C   UNL     1       3.008   0.785   2.742  0.00  0.00    +0.041 C 
BRANCH  24  27
ATOM     27  O   UNL     1       4.303   1.774   0.958  0.00  0.00    -0.389 OA
ATOM     28  H   UNL     1       4.571   2.543   0.437  0.00  0.00    +0.210 HD
ENDBRANCH  24  27
ENDBRANCH  23  24
ENDBRANCH  22  23
ENDBRANCH  21  22
ENDBRANCH  20  21
ENDBRANCH  15  20
ENDBRANCH   1  16
BRANCH  11  29
ATOM     29  C   UNL     1      -0.039  -4.681  -3.847  0.00  0.00    +0.100 C 
BRANCH  29  30
ATOM     30  C   UNL     1      -0.825  -5.961  -4.139  0.00  0.00    +0.044 C 
BRANCH  30  31
ATOM     31  C   UNL     1      -0.884  -6.810  -2.895  0.00  0.00    -0.047 A 
ATOM     32  C   UNL     1       0.054  -7.805  -2.692  0.00  0.00    +0.003 A 
ATOM     33  C   UNL     1      -0.001  -8.583  -1.551  0.00  0.00    +0.000 A 
ATOM     34  C   UNL     1      -0.992  -8.366  -0.613  0.00  0.00    +0.000 A 
ATOM     35  C   UNL     1      -1.929  -7.370  -0.815  0.00  0.00    +0.000 A 
ATOM     36  C   UNL     1      -1.873  -6.589  -1.955  0.00  0.00    +0.003 A 
ENDBRANCH  30  31
ENDBRANCH  29  30
ENDBRANCH  11  29
TORSDOF 10
