REMARK  Name = ZINC23355891
REMARK  10 active torsions:
REMARK  status: ('A' for Active; 'I' for Inactive)
REMARK    1  A    between atoms: C_1  and  C_2
REMARK    2  A    between atoms: C_6  and  N_9
REMARK    3  A    between atoms: C_7  and  C_8
REMARK    4  A    between atoms: C_13  and  C_15
REMARK    5  A    between atoms: C_15  and  N_16
REMARK    6  A    between atoms: N_19  and  C_22
REMARK    7  A    between atoms: C_22  and  C_23
REMARK    8  A    between atoms: N_28  and  C_29
REMARK    9  A    between atoms: C_33  and  C_36
REMARK   10  A    between atoms: C_34  and  C_35
REMARK                            x       y       z     vdW  Elec       q    Type
REMARK                         _______ _______ _______ _____ _____    ______ ____
ROOT
ATOM      1  N   UNL     1      -2.575   8.157  -0.455  0.00  0.00    +0.387 N 
ATOM      2  C   UNL     1      -3.212   7.712  -1.702  0.00  0.00    -0.063 C 
ATOM      3  C   UNL     1      -4.676   8.157  -1.712  0.00  0.00    +0.066 C 
ATOM      4  N   UNL     1      -4.742   9.619  -1.583  0.00  0.00    -0.298 NA
ATOM      5  C   UNL     1      -4.106  10.064  -0.335  0.00  0.00    +0.066 C 
ATOM      6  C   UNL     1      -2.642   9.620  -0.326  0.00  0.00    -0.063 C 
ATOM      7  H   UNL     1      -3.131   7.717   0.386  0.00  0.00    -0.081 HD
ENDROOT
BRANCH   1   8
ATOM      8  C   UNL     1      -1.187   7.684  -0.374  0.00  0.00    +0.019 C 
BRANCH   8  13
ATOM      9  N   UNL     1       1.181   3.518   0.012  0.00  0.00    -0.269 N 
ATOM     10  C   UNL     1       0.009   4.178  -0.075  0.00  0.00    +0.310 C 
ATOM     11  O   UNL     1      -1.038   3.560  -0.065  0.00  0.00    -0.252 OA
ATOM     12  N   UNL     1      -0.002   5.522  -0.175  0.00  0.00    -0.241 N 
ATOM     13  C   UNL     1      -1.175   6.181  -0.262  0.00  0.00    +0.204 C 
ATOM     14  O   UNL     1      -2.219   5.565  -0.252  0.00  0.00    -0.277 OA
ATOM     15  H   UNL     1       2.123   4.080   0.096  0.00  0.00    +0.156 HD
ATOM     16  H   UNL     1       0.945   6.080  -0.185  0.00  0.00    +0.159 HD
BRANCH   9  22
ATOM     17  C   UNL     1       3.416  -0.699   1.193  0.00  0.00    +0.044 C 
ATOM     18  C   UNL     1       2.271   0.050   0.561  0.00  0.00    -0.046 A 
ATOM     19  C   UNL     1       1.237  -0.647  -0.037  0.00  0.00    +0.004 A 
ATOM     20  C   UNL     1       0.184   0.035  -0.618  0.00  0.00    +0.002 A 
ATOM     21  C   UNL     1       0.163   1.416  -0.604  0.00  0.00    +0.023 A 
ATOM     22  C   UNL     1       1.200   2.119  -0.004  0.00  0.00    +0.038 A 
ATOM     23  C   UNL     1       2.255   1.431   0.579  0.00  0.00    -0.026 A 
ATOM     24  C   UNL     1       3.383   2.189   1.231  0.00  0.00    +0.046 C 
ENDBRANCH   9  22
ENDBRANCH   8  13
ENDBRANCH   1   8
BRANCH   4  25
ATOM     25  C   UNL     1      -6.131  10.092  -1.664  0.00  0.00    +0.180 C 
BRANCH  25  26
ATOM     26  C   UNL     1      -6.670   9.833  -3.047  0.00  0.00    +0.234 C 
ATOM     27  O   UNL     1      -5.968   9.306  -3.882  0.00  0.00    -0.274 OA
ATOM     28  N   UNL     1      -7.934  10.187  -3.355  0.00  0.00    -0.239 N 
ATOM     29  C   UNL     1      -8.416   9.955  -4.591  0.00  0.00    +0.310 C 
ATOM     30  O   UNL     1      -7.712   9.427  -5.429  0.00  0.00    -0.252 OA
ATOM     31  N   UNL     1      -9.679  10.309  -4.899  0.00  0.00    -0.269 N 
ATOM     32  H   UNL     1      -8.571  10.665  -2.596  0.00  0.00    +0.159 HD
ATOM     33  H   UNL     1     -10.291  10.856  -4.167  0.00  0.00    +0.156 HD
BRANCH  31  34
ATOM     34  C   UNL     1     -10.213   9.980  -6.151  0.00  0.00    +0.038 A 
ATOM     35  C   UNL     1      -9.399   9.979  -7.276  0.00  0.00    +0.023 A 
ATOM     36  C   UNL     1      -9.929   9.654  -8.509  0.00  0.00    +0.002 A 
ATOM     37  C   UNL     1     -11.268   9.330  -8.624  0.00  0.00    +0.004 A 
ATOM     38  C   UNL     1     -12.081   9.330  -7.506  0.00  0.00    -0.046 A 
ATOM     39  C   UNL     1     -11.556   9.649  -6.269  0.00  0.00    -0.026 A 
ATOM     40  C   UNL     1     -12.442   9.642  -5.049  0.00  0.00    +0.046 C 
ATOM     41  C   UNL     1     -13.541   8.977  -7.636  0.00  0.00    +0.044 C 
ENDBRANCH  31  34
ENDBRANCH  25  26
ENDBRANCH   4  25
TORSDOF 6
