REMARK  Name = ZINC35646539
REMARK  12 active torsions:
REMARK  status: ('A' for Active; 'I' for Inactive)
REMARK    1  A    between atoms: C_1  and  C_2
REMARK    2  A    between atoms: C_2  and  N_3
REMARK    3  A    between atoms: C_4  and  C_24
REMARK    4  A    between atoms: C_5  and  C_19
REMARK    5  A    between atoms: C_6  and  C_11
REMARK    6  A    between atoms: C_14  and  O_17
REMARK    7  A    between atoms: O_17  and  C_18
REMARK    8  A    between atoms: C_19  and  O_21
REMARK    9  A    between atoms: O_21  and  C_22
REMARK   10  A    between atoms: C_22  and  C_23
REMARK   11  A    between atoms: C_24  and  N_25
REMARK   12  A    between atoms: C_32  and  C_34
REMARK                            x       y       z     vdW  Elec       q    Type
REMARK                         _______ _______ _______ _____ _____    ______ ____
ROOT
ATOM      1  N   UNL     1      -1.696  -0.603  -0.115  0.00  0.00    -0.261 N 
ATOM      2  C   UNL     1      -2.055  -1.082   1.113  0.00  0.00    +0.010 C 
ATOM      3  C   UNL     1      -3.167  -1.832   1.271  0.00  0.00    +0.076 C 
ATOM      4  C   UNL     1      -4.002  -2.123   0.041  0.00  0.00    +0.143 C 
ATOM      5  N   UNL     1      -3.529  -1.560  -1.235  0.00  0.00    -0.288 N 
ATOM      6  C   UNL     1      -2.399  -0.825  -1.232  0.00  0.00    +0.307 C 
ATOM      7  O   UNL     1      -2.002  -0.352  -2.280  0.00  0.00    -0.252 OA
ATOM      8  H   UNL     1      -4.020  -1.711  -2.058  0.00  0.00    +0.151 HD
ENDROOT
BRANCH   4   9
ATOM      9  C   UNL     1      -4.091  -3.619  -0.117  0.00  0.00    -0.022 A 
ATOM     10  C   UNL     1      -3.038  -4.317  -0.678  0.00  0.00    +0.009 A 
ATOM     11  C   UNL     1      -3.117  -5.689  -0.825  0.00  0.00    +0.046 A 
ATOM     12  C   UNL     1      -4.254  -6.365  -0.408  0.00  0.00    +0.120 A 
ATOM     13  C   UNL     1      -5.309  -5.662   0.155  0.00  0.00    +0.046 A 
ATOM     14  C   UNL     1      -5.223  -4.291   0.304  0.00  0.00    +0.009 A 
BRANCH  12  15
ATOM     15  O   UNL     1      -4.335  -7.714  -0.551  0.00  0.00    -0.495 OA
ATOM     16  C   UNL     1      -5.535  -8.344  -0.099  0.00  0.00    +0.277 C 
ENDBRANCH  12  15
ENDBRANCH   4   9
BRANCH   1  18
ATOM     17  C   UNL     1      -0.840   1.688  -0.126  0.00  0.00    +0.025 C 
ATOM     18  C   UNL     1      -0.478   0.204  -0.213  0.00  0.00    +0.111 C 
ENDBRANCH   1  18
BRANCH   3  19
ATOM     19  C   UNL     1      -3.539  -2.329   2.542  0.00  0.00    +0.339 C 
ATOM     20  O   UNL     1      -2.895  -2.022   3.528  0.00  0.00    -0.245 OA
BRANCH  19  21
ATOM     21  O   UNL     1      -4.608  -3.144   2.661  0.00  0.00    -0.462 OA
BRANCH  21  22
ATOM     22  C   UNL     1      -4.926  -3.609   3.974  0.00  0.00    +0.229 C 
ATOM     23  C   UNL     1      -6.159  -4.513   3.910  0.00  0.00    +0.048 C 
ENDBRANCH  21  22
ENDBRANCH  19  21
ENDBRANCH   3  19
BRANCH   2  24
ATOM     24  C   UNL     1      -1.196  -0.768   2.311  0.00  0.00    -0.026 C 
BRANCH  24  25
ATOM     25  N   UNL     1      -0.327  -1.916   2.604  0.00  0.00    +0.384 N 
ATOM     26  C   UNL     1       0.325  -1.684   3.891  0.00  0.00    -0.077 C 
ATOM     27  C   UNL     1       0.610  -3.014   4.553  0.00  0.00    +0.000 C 
ATOM     28  C   UNL     1       2.037  -3.469   4.198  0.00  0.00    +0.106 C 
ATOM     29  N   UNL     1       2.354  -3.170   2.787  0.00  0.00    -0.299 N 
ATOM     30  C   UNL     1       1.399  -3.377   1.718  0.00  0.00    +0.089 C 
ATOM     31  C   UNL     1       0.554  -2.098   1.514  0.00  0.00    -0.059 C 
ATOM     32  C   UNL     1       3.575  -2.687   2.483  0.00  0.00    +0.253 C 
ATOM     33  O   UNL     1       4.429  -2.606   3.347  0.00  0.00    -0.269 OA
ATOM     34  H   UNL     1      -0.905  -2.739   2.687  0.00  0.00    -0.081 HD
BRANCH  32  35
ATOM     35  C   UNL     1       3.874  -2.261   1.113  0.00  0.00    +0.074 A 
ATOM     36  C   UNL     1       5.085  -1.863   0.567  0.00  0.00    +0.021 A 
ATOM     37  C   UNL     1       5.055  -1.516  -0.762  0.00  0.00    +0.008 A 
ATOM     38  C   UNL     1       3.879  -1.582  -1.434  0.00  0.00    +0.046 A 
ATOM     39  S   UNL     1       2.779  -2.125  -0.286  0.00  0.00    -0.092 S 
ENDBRANCH  32  35
ENDBRANCH  24  25
ENDBRANCH   2  24
TORSDOF 9
