REMARK  Name = ZINC08718877
REMARK  8 active torsions:
REMARK  status: ('A' for Active; 'I' for Inactive)
REMARK    1  A    between atoms: C_1  and  C_2
REMARK    2  A    between atoms: C_7  and  N_8
REMARK    3  A    between atoms: C_9  and  C_11
REMARK    4  A    between atoms: C_11  and  N_41
REMARK    5  A    between atoms: C_12  and  N_41
REMARK    6  A    between atoms: C_13  and  C_15
REMARK    7  A    between atoms: C_13  and  C_16
REMARK    8  A    between atoms: C_13  and  N_41
REMARK                            x       y       z     vdW  Elec       q    Type
REMARK                         _______ _______ _______ _____ _____    ______ ____
ROOT
ATOM      1  C   UNL     1      -2.184   0.259   1.018  0.00  0.00    -0.094 C 
ATOM      2  N   UNL     1      -2.402   1.107  -0.173  0.00  0.00    +0.391 N 
ATOM      3  H   UNL     1      -2.450   0.508  -1.005  0.00  0.00    -0.080 HD
ENDROOT
BRANCH   2   4
ATOM      4  C   UNL     1      -1.280   2.056  -0.328  0.00  0.00    +0.017 C 
ATOM      5  C   UNL     1      -1.361   3.160   0.728  0.00  0.00    -0.004 C 
BRANCH   4   6
ATOM      6  C   UNL     1      -1.351   2.670  -1.703  0.00  0.00    +0.207 C 
ATOM      7  O   UNL     1      -2.311   2.458  -2.412  0.00  0.00    -0.277 OA
ATOM      8  N   UNL     1      -0.351   3.461  -2.141  0.00  0.00    -0.242 N 
ATOM      9  C   UNL     1      -0.418   4.014  -3.368  0.00  0.00    +0.303 C 
ATOM     10  O   UNL     1      -1.380   3.801  -4.079  0.00  0.00    -0.253 OA
ATOM     11  N   UNL     1       0.582   4.804  -3.806  0.00  0.00    -0.313 N 
ATOM     12  H   UNL     1       0.417   3.631  -1.573  0.00  0.00    +0.159 HD
ATOM     13  H   UNL     1       1.350   4.974  -3.239  0.00  0.00    +0.146 HD
ATOM     14  H   UNL     1       0.534   5.203  -4.689  0.00  0.00    +0.146 HD
ENDBRANCH   4   6
ENDBRANCH   2   4
BRANCH   2  15
ATOM     15  C   UNL     1      -3.674   1.847  -0.040  0.00  0.00    +0.020 C 
BRANCH  15  17
ATOM     16  N   UNL     1      -6.088   1.305  -0.023  0.00  0.00    -0.287 N 
ATOM     17  C   UNL     1      -4.816   0.866  -0.104  0.00  0.00    +0.201 C 
ATOM     18  O   UNL     1      -4.591  -0.319  -0.230  0.00  0.00    -0.278 OA
ATOM     19  H   UNL     1      -6.267   2.242   0.156  0.00  0.00    +0.155 HD
BRANCH  16  26
ATOM     20  C   UNL     1      -8.643   2.041   0.989  0.00  0.00    +0.046 C 
ATOM     21  C   UNL     1      -8.414   0.730   0.282  0.00  0.00    -0.028 A 
ATOM     22  C   UNL     1      -9.461  -0.153   0.105  0.00  0.00    +0.020 A 
ATOM     23  C   UNL     1      -9.250  -1.359  -0.539  0.00  0.00    +0.018 A 
ATOM     24  C   UNL     1      -7.990  -1.682  -1.012  0.00  0.00    +0.017 A 
ATOM     25  C   UNL     1      -6.941  -0.801  -0.843  0.00  0.00    +0.024 A 
ATOM     26  C   UNL     1      -7.150   0.410  -0.197  0.00  0.00    +0.036 A 
ATOM     27 BR   UNL     1     -10.684  -2.568  -0.772  0.00  0.00    -0.050 Br
ENDBRANCH  16  26
ENDBRANCH  15  17
ENDBRANCH   2  15
TORSDOF 5
