REMARK  Name = ZINC39658424
REMARK  8 active torsions:
REMARK  status: ('A' for Active; 'I' for Inactive)
REMARK    1  A    between atoms: C_4  and  C_7
REMARK    2  A    between atoms: C_7  and  S_8
REMARK    3  A    between atoms: S_8  and  C_9
REMARK    4  A    between atoms: C_9  and  C_10
REMARK    5  A    between atoms: C_10  and  N_11
REMARK    6  A    between atoms: C_12  and  C_14
REMARK    7  A    between atoms: C_25  and  C_27
REMARK    8  A    between atoms: C_30  and  C_34
REMARK                            x       y       z     vdW  Elec       q    Type
REMARK                         _______ _______ _______ _____ _____    ______ ____
ROOT
ATOM      1  C   UNL     1      10.205  -4.356   3.295  0.00  0.00    +0.100 C 
ATOM      2  C   UNL     1      10.980  -3.235   2.568  0.00  0.00    +0.121 C 
ATOM      3  N   UNL     1      11.718  -2.532   3.644  0.00  0.00    -0.296 N 
ATOM      4  C   UNL     1      12.175  -3.616   4.546  0.00  0.00    +0.115 C 
ATOM      5  C   UNL     1      10.994  -4.606   4.591  0.00  0.00    -0.004 C 
ATOM      6  C   UNL     1      11.510  -6.042   4.627  0.00  0.00    -0.010 C 
ATOM      7  C   UNL     1      12.241  -6.283   5.951  0.00  0.00    -0.082 C 
ATOM      8  N   UNL     1      11.322  -6.043   7.070  0.00  0.00    +0.379 N 
ATOM      9  C   UNL     1      10.904  -4.636   7.082  0.00  0.00    -0.082 C 
ATOM     10  C   UNL     1      10.116  -4.325   5.806  0.00  0.00    -0.010 C 
ATOM     11  C   UNL     1      11.928  -1.207   3.773  0.00  0.00    +0.247 C 
ATOM     12  O   UNL     1      11.381  -0.429   3.015  0.00  0.00    -0.270 OA
ATOM     13  H   UNL     1      10.510  -6.634   6.969  0.00  0.00    -0.086 HD
ATOM     14  H   UNL     1      11.788  -6.262   7.938  0.00  0.00    -0.086 HD
ENDROOT
BRANCH  11  15
ATOM     15  C   UNL     1      12.822  -0.699   4.835  0.00  0.00    +0.040 A 
ATOM     16  C   UNL     1      13.772  -1.543   5.413  0.00  0.00    +0.014 A 
ATOM     17  C   UNL     1      14.605  -1.064   6.403  0.00  0.00    +0.016 A 
ATOM     18  C   UNL     1      14.500   0.249   6.825  0.00  0.00    +0.090 A 
ATOM     19  C   UNL     1      13.559   1.093   6.256  0.00  0.00    +0.136 A 
ATOM     20  C   UNL     1      12.724   0.626   5.259  0.00  0.00    +0.052 A 
ATOM     21  F   UNL     1      13.462   2.374   6.674  0.00  0.00    -0.205 F 
BRANCH  18  22
ATOM     22  C   UNL     1      15.413   0.765   7.907  0.00  0.00    +0.420 C 
ATOM     23  F   UNL     1      16.270  -0.261   8.323  0.00  0.00    -0.166 F 
ATOM     24  F   UNL     1      16.170   1.831   7.411  0.00  0.00    -0.166 F 
ATOM     25  F   UNL     1      14.648   1.202   8.994  0.00  0.00    -0.166 F 
ENDBRANCH  18  22
ENDBRANCH  11  15
BRANCH   1  27
ATOM     26  N   UNL     1       7.827  -4.814   3.795  0.00  0.00    -0.314 N 
ATOM     27  C   UNL     1       8.803  -3.904   3.613  0.00  0.00    +0.218 C 
ATOM     28  O   UNL     1       8.554  -2.721   3.705  0.00  0.00    -0.275 OA
ATOM     29  H   UNL     1       8.026  -5.761   3.722  0.00  0.00    +0.149 HD
BRANCH  26  30
ATOM     30  C   UNL     1       6.464  -4.375   4.105  0.00  0.00    +0.115 C 
BRANCH  30  31
ATOM     31  C   UNL     1       5.557  -5.597   4.262  0.00  0.00    +0.088 C 
BRANCH  31  32
ATOM     32  S   UNL     1       3.869  -5.052   4.645  0.00  0.00    -0.155 S 
BRANCH  32  33
ATOM     33  C   UNL     1       2.933  -6.599   4.798  0.00  0.00    +0.104 C 
BRANCH  33  37
ATOM     34  C   UNL     1      -1.145  -5.713   5.710  0.00  0.00    +0.000 A 
ATOM     35  C   UNL     1      -0.738  -5.818   4.394  0.00  0.00    +0.000 A 
ATOM     36  C   UNL     1       0.582  -6.104   4.098  0.00  0.00    +0.004 A 
ATOM     37  C   UNL     1       1.495  -6.285   5.120  0.00  0.00    -0.038 A 
ATOM     38  C   UNL     1       1.088  -6.180   6.437  0.00  0.00    +0.004 A 
ATOM     39  C   UNL     1      -0.232  -5.895   6.732  0.00  0.00    +0.000 A 
ENDBRANCH  33  37
ENDBRANCH  32  33
ENDBRANCH  31  32
ENDBRANCH  30  31
ENDBRANCH  26  30
ENDBRANCH   1  27
TORSDOF 8
