REMARK  Name = ZINC12734800
REMARK  7 active torsions:
REMARK  status: ('A' for Active; 'I' for Inactive)
REMARK    1  A    between atoms: C_3  and  O_28
REMARK    2  A    between atoms: C_6  and  C_7
REMARK    3  A    between atoms: C_12  and  C_13
REMARK    4  A    between atoms: C_12  and  N_51
REMARK    5  A    between atoms: N_15  and  C_16
REMARK    6  A    between atoms: C_18  and  C_25
REMARK    7  A    between atoms: C_20  and  C_22
REMARK                            x       y       z     vdW  Elec       q    Type
REMARK                         _______ _______ _______ _____ _____    ______ ____
ROOT
ATOM      1  C   UNL     1      -1.240   5.922  -0.025  0.00  0.00    +0.201 C 
ATOM      2  O   UNL     1      -2.269   5.324   0.206  0.00  0.00    -0.278 OA
ATOM      3  N   UNL     1      -0.083   5.245  -0.160  0.00  0.00    -0.287 N 
ATOM      4  H   UNL     1       0.752   5.728  -0.269  0.00  0.00    +0.155 HD
ENDROOT
BRANCH   3   5
ATOM      5  C   UNL     1      -0.084   3.846  -0.143  0.00  0.00    +0.035 A 
ATOM      6  C   UNL     1       0.785   3.143  -0.964  0.00  0.00    +0.036 A 
ATOM      7  C   UNL     1       0.786   1.747  -0.950  0.00  0.00    +0.039 A 
ATOM      8  C   UNL     1      -0.088   1.060  -0.110  0.00  0.00    +0.026 A 
ATOM      9  C   UNL     1      -0.964   1.769   0.710  0.00  0.00    +0.039 A 
ATOM     10  C   UNL     1      -0.955   3.165   0.695  0.00  0.00    +0.036 A 
BRANCH   9  11
ATOM     11  C   UNL     1      -1.897   1.044   1.598  0.00  0.00    +0.242 C 
ATOM     12  O   UNL     1      -2.661   1.663   2.313  0.00  0.00    -0.270 OA
ATOM     13  N   UNL     1      -1.901  -0.304   1.616  0.00  0.00    -0.325 N 
ATOM     14  H   UNL     1      -1.292  -0.798   1.045  0.00  0.00    +0.145 HD
ATOM     15  H   UNL     1      -2.513  -0.779   2.198  0.00  0.00    +0.145 HD
ENDBRANCH   9  11
BRANCH   7  16
ATOM     16  C   UNL     1       1.712   0.998  -1.827  0.00  0.00    +0.242 C 
ATOM     17  O   UNL     1       2.474   1.599  -2.559  0.00  0.00    -0.270 OA
ATOM     18  N   UNL     1       1.712  -0.349  -1.812  0.00  0.00    -0.325 N 
ATOM     19  H   UNL     1       1.104  -0.828  -1.228  0.00  0.00    +0.145 HD
ATOM     20  H   UNL     1       2.320  -0.840  -2.387  0.00  0.00    +0.145 HD
ENDBRANCH   7  16
ENDBRANCH   3   5
BRANCH   1  21
ATOM     21  C   UNL     1      -1.256   7.423  -0.162  0.00  0.00    +0.019 C 
BRANCH  21  27
ATOM     22  C   UNL     1      -5.091   9.104  -0.585  0.00  0.00    -0.048 C 
ATOM     23  C   UNL     1      -4.110   9.850  -0.126  0.00  0.00    -0.041 C 
ATOM     24  C   UNL     1      -2.691   9.368  -0.033  0.00  0.00    -0.050 C 
ATOM     25  C   UNL     1      -3.396   7.441  -1.301  0.00  0.00    -0.073 C 
ATOM     26  C   UNL     1      -4.886   7.692  -1.056  0.00  0.00    +0.017 C 
ATOM     27  N   UNL     1      -2.658   7.896  -0.105  0.00  0.00    +0.388 N 
ATOM     28  H   UNL     1      -3.107   7.509   0.733  0.00  0.00    -0.081 HD
BRANCH  22  34
ATOM     29  C   UNL     1      -7.471   9.144   0.147  0.00  0.00    +0.012 A 
ATOM     30  C   UNL     1      -8.737   9.686   0.096  0.00  0.00    +0.046 A 
ATOM     31  C   UNL     1      -9.002  10.757  -0.748  0.00  0.00    +0.117 A 
ATOM     32  C   UNL     1      -7.992  11.289  -1.538  0.00  0.00    +0.046 A 
ATOM     33  C   UNL     1      -6.722  10.756  -1.488  0.00  0.00    +0.012 A 
ATOM     34  C   UNL     1      -6.452   9.679  -0.642  0.00  0.00    -0.022 A 
BRANCH  31  35
ATOM     35  O   UNL     1     -10.252  11.286  -0.799  0.00  0.00    -0.507 OA
ATOM     36  H   UNL     1     -10.825  10.877  -1.462  0.00  0.00    +0.292 HD
ENDBRANCH  31  35
ENDBRANCH  22  34
ENDBRANCH  21  27
ENDBRANCH   1  21
TORSDOF 7
