REMARK  Name = ZINC22278227
REMARK  10 active torsions:
REMARK  status: ('A' for Active; 'I' for Inactive)
REMARK    1  A    between atoms: C_4  and  C_7
REMARK    2  A    between atoms: C_7  and  N_8
REMARK    3  A    between atoms: C_9  and  C_11
REMARK    4  A    between atoms: C_11  and  N_12
REMARK    5  A    between atoms: N_15  and  C_18
REMARK    6  A    between atoms: C_18  and  C_19
REMARK    7  A    between atoms: N_21  and  C_22
REMARK    8  A    between atoms: C_27  and  C_28
REMARK    9  A    between atoms: N_30  and  C_31
REMARK   10  A    between atoms: C_31  and  C_32
REMARK                            x       y       z     vdW  Elec       q    Type
REMARK                         _______ _______ _______ _____ _____    ______ ____
ROOT
ATOM      1  C   UNL     1      -0.018   1.465   0.019  0.00  0.00    +0.180 C 
ENDROOT
BRANCH   1   5
ATOM      2  N   UNL     1      -0.722  -2.585  -0.955  0.00  0.00    +0.387 N 
ATOM      3  C   UNL     1      -1.258  -2.079   0.317  0.00  0.00    -0.063 C 
ATOM      4  C   UNL     1      -1.336  -0.552   0.263  0.00  0.00    +0.066 C 
ATOM      5  N   UNL     1       0.003  -0.004   0.003  0.00  0.00    -0.298 NA
ATOM      6  C   UNL     1       0.538  -0.510  -1.269  0.00  0.00    +0.066 C 
ATOM      7  C   UNL     1       0.616  -2.037  -1.215  0.00  0.00    -0.063 C 
ATOM      8  H   UNL     1      -1.390  -2.249  -1.762  0.00  0.00    -0.081 HD
BRANCH   2   9
ATOM      9  C   UNL     1      -0.702  -4.054  -0.971  0.00  0.00    +0.019 C 
BRANCH   9  11
ATOM     10  N   UNL     1      -0.312  -5.859  -2.617  0.00  0.00    -0.313 N 
ATOM     11  C   UNL     1      -0.385  -4.537  -2.363  0.00  0.00    +0.197 C 
ATOM     12  O   UNL     1      -0.194  -3.737  -3.254  0.00  0.00    -0.278 OA
ATOM     13  H   UNL     1      -0.486  -6.585  -1.809  0.00  0.00    +0.149 HD
BRANCH  10  14
ATOM     14  C   UNL     1      -0.004  -6.328  -3.970  0.00  0.00    +0.139 C 
BRANCH  14  18
ATOM     15  C   UNL     1       0.055 -10.599  -4.017  0.00  0.00    +0.000 A 
ATOM     16  C   UNL     1      -1.123  -9.921  -4.271  0.00  0.00    +0.000 A 
ATOM     17  C   UNL     1      -1.142  -8.539  -4.256  0.00  0.00    +0.005 A 
ATOM     18  C   UNL     1       0.017  -7.835  -3.986  0.00  0.00    -0.030 A 
ATOM     19  C   UNL     1       1.196  -8.513  -3.737  0.00  0.00    +0.005 A 
ATOM     20  C   UNL     1       1.214  -9.895  -3.748  0.00  0.00    +0.000 A 
ENDBRANCH  14  18
ENDBRANCH  10  14
ENDBRANCH   9  11
ENDBRANCH   2   9
ENDBRANCH   1   5
BRANCH   1  21
ATOM     21  C   UNL     1       1.396   1.987  -0.004  0.00  0.00    +0.231 C 
ATOM     22  O   UNL     1       2.328   1.212  -0.032  0.00  0.00    -0.274 OA
ATOM     23  N   UNL     1       1.624   3.315   0.005  0.00  0.00    -0.284 N 
ATOM     24  H   UNL     1       0.781   4.018  -0.062  0.00  0.00    +0.155 HD
BRANCH  23  25
ATOM     25  C   UNL     1       2.927   3.797   0.100  0.00  0.00    +0.046 A 
ATOM     26  C   UNL     1       3.916   3.023   0.692  0.00  0.00    +0.024 A 
ATOM     27  C   UNL     1       5.208   3.500   0.780  0.00  0.00    +0.002 A 
ATOM     28  C   UNL     1       5.527   4.757   0.290  0.00  0.00    +0.001 A 
ATOM     29  C   UNL     1       4.557   5.542  -0.295  0.00  0.00    +0.015 A 
ATOM     30  C   UNL     1       3.246   5.070  -0.397  0.00  0.00    +0.058 A 
BRANCH  30  31
ATOM     31  C   UNL     1       2.203   5.905  -1.022  0.00  0.00    +0.246 C 
ATOM     32  O   UNL     1       1.046   5.530  -1.027  0.00  0.00    -0.270 OA
ATOM     33  N   UNL     1       2.532   7.083  -1.587  0.00  0.00    -0.304 N 
ATOM     34  H   UNL     1       3.579   7.422  -1.583  0.00  0.00    +0.149 HD
BRANCH  33  35
ATOM     35  C   UNL     1       1.496   7.912  -2.208  0.00  0.00    +0.179 C 
BRANCH  35  36
ATOM     36  C   UNL     1       2.122   9.167  -2.762  0.00  0.00    +0.122 A 
ATOM     37  C   UNL     1       2.616   9.317  -4.004  0.00  0.00    +0.046 A 
ATOM     38  C   UNL     1       3.101  10.642  -4.094  0.00  0.00    +0.041 A 
ATOM     39  C   UNL     1       2.874  11.222  -2.902  0.00  0.00    +0.195 A 
ATOM     40  O   UNL     1       2.276  10.325  -2.101  0.00  0.00    -0.466 OA
ENDBRANCH  35  36
ENDBRANCH  33  35
ENDBRANCH  30  31
ENDBRANCH  23  25
ENDBRANCH   1  21
TORSDOF 10
