REMARK  Name = ZINC09165161
REMARK  10 active torsions:
REMARK  status: ('A' for Active; 'I' for Inactive)
REMARK    1  A    between atoms: C_1  and  C_2
REMARK    2  A    between atoms: C_2  and  O_3
REMARK    3  A    between atoms: O_3  and  C_4
REMARK    4  A    between atoms: C_9  and  N_10
REMARK    5  A    between atoms: C_11  and  C_13
REMARK    6  A    between atoms: N_15  and  C_16
REMARK    7  A    between atoms: C_16  and  C_17
REMARK    8  A    between atoms: C_17  and  C_19
REMARK    9  A    between atoms: C_17  and  N_70
REMARK   10  A    between atoms: N_28  and  C_29
REMARK                            x       y       z     vdW  Elec       q    Type
REMARK                         _______ _______ _______ _____ _____    ______ ____
ROOT
ATOM      1  C   UNL     1      -2.594  -0.919   0.531  0.00  0.00    -0.020 C 
ENDROOT
BRANCH   1   2
ATOM      2  C   UNL     1      -1.320  -0.136   0.346  0.00  0.00    -0.059 A 
ATOM      3  C   UNL     1      -1.250   0.855  -0.617  0.00  0.00    +0.004 A 
ATOM      4  C   UNL     1      -0.081   1.565  -0.790  0.00  0.00    +0.023 A 
ATOM      5  C   UNL     1       1.037   1.289   0.000  0.00  0.00    +0.033 A 
ATOM      6  C   UNL     1       0.960   0.299   0.964  0.00  0.00    -0.026 A 
ATOM      7  C   UNL     1      -0.219  -0.410   1.132  0.00  0.00    +0.007 A 
ATOM      8  C   UNL     1       2.127  -0.040   1.857  0.00  0.00    +0.038 C 
ATOM      9  C   UNL     1       3.410   0.559   1.276  0.00  0.00    +0.024 C 
ATOM     10  C   UNL     1       3.123   2.018   0.900  0.00  0.00    +0.105 C 
ATOM     11  N   UNL     1       2.192   2.035  -0.230  0.00  0.00    -0.333 N 
ATOM     12  C   UNL     1       1.860   3.413  -0.618  0.00  0.00    +0.129 C 
ENDBRANCH   1   2
BRANCH   1  18
ATOM     13  C   UNL     1      -4.863  -0.413   1.205  0.00  0.00    -0.078 C 
ATOM     14  C   UNL     1      -5.989   0.615   1.075  0.00  0.00    -0.019 C 
ATOM     15  C   UNL     1      -6.456   0.671  -0.383  0.00  0.00    -0.004 C 
ATOM     16  C   UNL     1      -5.265   1.022  -1.279  0.00  0.00    -0.019 C 
ATOM     17  C   UNL     1      -4.160  -0.018  -1.080  0.00  0.00    -0.078 C 
ATOM     18  N   UNL     1      -3.738  -0.005   0.337  0.00  0.00    +0.385 N 
ATOM     19  H   UNL     1      -3.450   0.948   0.590  0.00  0.00    -0.081 HD
ENDBRANCH   1  18
BRANCH   1  20
ATOM     20  C   UNL     1      -2.643  -2.061  -0.487  0.00  0.00    +0.094 C 
BRANCH  20  23
ATOM     21  C   UNL     1      -4.134  -3.900  -1.064  0.00  0.00    +0.299 C 
ATOM     22  O   UNL     1      -3.480  -4.076  -2.070  0.00  0.00    -0.265 OA
ATOM     23  N   UNL     1      -3.799  -2.916  -0.205  0.00  0.00    -0.309 N 
ATOM     24  H   UNL     1      -4.322  -2.776   0.599  0.00  0.00    +0.149 HD
BRANCH  21  26
ATOM     25  N   UNL     1      -5.647  -5.755  -1.635  0.00  0.00    -0.275 N 
ATOM     26  C   UNL     1      -5.312  -4.772  -0.776  0.00  0.00    +0.303 C 
ATOM     27  O   UNL     1      -5.966  -4.596   0.231  0.00  0.00    -0.265 OA
ATOM     28  H   UNL     1      -5.082  -5.945  -2.400  0.00  0.00    +0.155 HD
BRANCH  25  34
ATOM     29  C   UNL     1      -6.971  -7.739  -2.045  0.00  0.00    +0.142 A 
ATOM     30  C   UNL     1      -8.126  -8.473  -1.831  0.00  0.00    +0.047 A 
ATOM     31  C   UNL     1      -9.117  -7.979  -1.002  0.00  0.00    +0.004 A 
ATOM     32  C   UNL     1      -8.959  -6.752  -0.385  0.00  0.00    +0.002 A 
ATOM     33  C   UNL     1      -7.808  -6.015  -0.589  0.00  0.00    +0.027 A 
ATOM     34  C   UNL     1      -6.811  -6.501  -1.423  0.00  0.00    +0.076 A 
BRANCH  29  35
ATOM     35  O   UNL     1      -5.996  -8.223  -2.859  0.00  0.00    -0.490 OA
BRANCH  35  37
ATOM     36  C   UNL     1      -5.031  -9.874  -4.336  0.00  0.00    +0.048 C 
ATOM     37  C   UNL     1      -6.229  -9.498  -3.462  0.00  0.00    +0.226 C 
ENDBRANCH  35  37
ENDBRANCH  29  35
ENDBRANCH  25  34
ENDBRANCH  21  26
ENDBRANCH  20  23
ENDBRANCH   1  20
TORSDOF 8
