REMARK  Name = ZINC14158041
REMARK  12 active torsions:
REMARK  status: ('A' for Active; 'I' for Inactive)
REMARK    1  A    between atoms: C_1  and  C_2
REMARK    2  A    between atoms: C_2  and  C_3
REMARK    3  A    between atoms: C_8  and  N_9
REMARK    4  A    between atoms: N_9  and  C_10
REMARK    5  A    between atoms: C_10  and  N_12
REMARK    6  A    between atoms: C_17  and  C_22
REMARK    7  A    between atoms: C_19  and  C_21
REMARK    8  A    between atoms: N_23  and  C_24
REMARK    9  A    between atoms: C_26  and  C_32
REMARK   10  A    between atoms: C_26  and  C_33
REMARK   11  A    between atoms: C_28  and  C_30
REMARK   12  A    between atoms: C_28  and  C_31
REMARK                            x       y       z     vdW  Elec       q    Type
REMARK                         _______ _______ _______ _____ _____    ______ ____
ROOT
ATOM      1  N   UNL     1      -3.921   0.658   4.622  0.00  0.00    -0.159 NA
ATOM      2  C   UNL     1      -4.120  -0.603   4.963  0.00  0.00    +0.196 C 
ATOM      3  N   UNL     1      -3.505  -1.117   6.073  0.00  0.00    -0.297 N 
ATOM      4  C   UNL     1      -2.126  -1.278   6.090  0.00  0.00    +0.231 A 
ATOM      5  N   UNL     1      -1.417  -0.890   5.042  0.00  0.00    -0.217 NA
ATOM      6  C   UNL     1      -0.101  -1.029   5.026  0.00  0.00    +0.044 A 
ATOM      7  C   UNL     1       0.533  -1.588   6.124  0.00  0.00    +0.046 A 
ATOM      8  C   UNL     1      -0.240  -1.983   7.205  0.00  0.00    +0.044 A 
ATOM      9  N   UNL     1      -1.551  -1.811   7.158  0.00  0.00    -0.217 NA
ATOM     10  C   UNL     1       0.405  -2.596   8.421  0.00  0.00    +0.066 C 
ATOM     11  C   UNL     1       0.698  -0.585   3.828  0.00  0.00    +0.066 C 
ATOM     12  N   UNL     1      -4.939  -1.394   4.209  0.00  0.00    -0.355 N 
ATOM     13  H   UNL     1      -4.032  -1.369   6.847  0.00  0.00    +0.171 HD
ATOM     14  H   UNL     1      -5.318  -1.052   3.384  0.00  0.00    +0.163 HD
ENDROOT
BRANCH  12  15
ATOM     15  C   UNL     1      -5.245  -2.762   4.646  0.00  0.00    +0.079 C 
ATOM     16  C   UNL     1      -4.126  -3.698   4.186  0.00  0.00    +0.011 C 
ATOM     17  C   UNL     1      -4.437  -5.130   4.623  0.00  0.00    -0.071 C 
ATOM     18  N   UNL     1      -5.750  -5.567   4.175  0.00  0.00    +0.386 N 
ATOM     19  C   UNL     1      -6.869  -4.660   4.375  0.00  0.00    -0.071 C 
ATOM     20  C   UNL     1      -6.550  -3.218   3.995  0.00  0.00    +0.011 C 
ATOM     21  C   UNL     1      -8.021  -5.133   3.456  0.00  0.00    -0.010 C 
ATOM     22  C   UNL     1      -7.394  -4.717   5.812  0.00  0.00    -0.010 C 
ATOM     23  C   UNL     1      -4.270  -5.268   6.136  0.00  0.00    -0.010 C 
ATOM     24  C   UNL     1      -3.386  -6.050   3.960  0.00  0.00    -0.010 C 
ATOM     25  H   UNL     1      -5.691  -5.789   3.178  0.00  0.00    -0.084 HD
ATOM     26  H   UNL     1      -5.968  -6.454   4.635  0.00  0.00    -0.084 HD
ENDBRANCH  12  15
BRANCH   1  27
ATOM     27  C   UNL     1      -3.300   1.492   5.468  0.00  0.00    +0.161 C 
ATOM     28  S   UNL     1      -2.815   0.938   7.014  0.00  0.00    -0.016 S 
BRANCH  27  29
ATOM     29  N   UNL     1      -3.056   2.766   5.102  0.00  0.00    -0.295 N 
ATOM     30  H   UNL     1      -3.390   3.099   4.255  0.00  0.00    +0.154 HD
BRANCH  29  36
ATOM     31  C   UNL     1      -1.284   4.373   5.430  0.00  0.00    -0.026 A 
ATOM     32  C   UNL     1      -0.564   5.207   6.263  0.00  0.00    +0.005 A 
ATOM     33  C   UNL     1      -0.873   5.275   7.609  0.00  0.00    +0.000 A 
ATOM     34  C   UNL     1      -1.902   4.510   8.126  0.00  0.00    +0.002 A 
ATOM     35  C   UNL     1      -2.626   3.674   7.298  0.00  0.00    +0.023 A 
ATOM     36  C   UNL     1      -2.322   3.607   5.944  0.00  0.00    +0.036 A 
BRANCH  31  38
ATOM     37  C   UNL     1      -1.848   5.261   3.184  0.00  0.00    +0.009 C 
ATOM     38  C   UNL     1      -0.948   4.299   3.962  0.00  0.00    +0.033 C 
ENDBRANCH  31  38
ENDBRANCH  29  36
ENDBRANCH  27  29
ENDBRANCH   1  27
TORSDOF 5
