REMARK  Name = ZINC39322056
REMARK  11 active torsions:
REMARK  status: ('A' for Active; 'I' for Inactive)
REMARK    1  A    between atoms: C_1  and  C_2
REMARK    2  A    between atoms: C_5  and  N_8
REMARK    3  A    between atoms: C_9  and  O_10
REMARK    4  A    between atoms: C_11  and  C_15
REMARK    5  A    between atoms: C_12  and  C_14
REMARK    6  A    between atoms: C_15  and  C_17
REMARK    7  A    between atoms: C_15  and  C_24
REMARK    8  A    between atoms: C_25  and  C_38
REMARK    9  A    between atoms: N_27  and  C_31
REMARK   10  A    between atoms: C_28  and  O_30
REMARK   11  A    between atoms: C_34  and  C_37
REMARK                            x       y       z     vdW  Elec       q    Type
REMARK                         _______ _______ _______ _____ _____    ______ ____
ROOT
ATOM      1  C   UNL     1       0.694  -7.744   1.443  0.00  0.00    +0.089 C 
ENDROOT
BRANCH   1   2
ATOM      2  C   UNL     1       2.093  -7.397   1.883  0.00  0.00    -0.017 A 
ATOM      3  C   UNL     1       2.340  -6.194   2.517  0.00  0.00    +0.006 A 
ATOM      4  C   UNL     1       3.623  -5.875   2.920  0.00  0.00    +0.000 A 
ATOM      5  C   UNL     1       4.661  -6.760   2.689  0.00  0.00    +0.001 A 
ATOM      6  C   UNL     1       4.415  -7.963   2.055  0.00  0.00    +0.020 A 
ATOM      7  C   UNL     1       3.130  -8.285   1.656  0.00  0.00    +0.045 A 
ATOM      8 CL   UNL     1       2.820  -9.799   0.865  0.00  0.00    -0.083 Cl
ENDBRANCH   1   2
BRANCH   1   9
ATOM      9  C   UNL     1      -0.185  -7.917   2.655  0.00  0.00    +0.008 C 
ATOM     10  C   UNL     1      -0.953  -8.952   2.918  0.00  0.00    +0.023 C 
ATOM     11  N   UNL     1      -1.632  -8.800   4.112  0.00  0.00    -0.266 N 
ATOM     12  N   UNL     1      -1.304  -7.574   4.706  0.00  0.00    -0.221 N 
ATOM     13  C   UNL     1      -0.340  -6.934   3.795  0.00  0.00    +0.250 C 
ATOM     14  C   UNL     1      -1.078 -10.159   2.024  0.00  0.00    +0.062 C 
ATOM     15  H   UNL     1      -2.249  -9.450   4.485  0.00  0.00    +0.170 HD
BRANCH  12  16
ATOM     16  C   UNL     1      -1.787  -7.065   5.913  0.00  0.00    +0.051 A 
ATOM     17  C   UNL     1      -1.365  -5.821   6.364  0.00  0.00    +0.025 A 
ATOM     18  C   UNL     1      -1.845  -5.322   7.559  0.00  0.00    +0.005 A 
ATOM     19  C   UNL     1      -2.745  -6.059   8.306  0.00  0.00    -0.050 A 
ATOM     20  C   UNL     1      -3.168  -7.298   7.861  0.00  0.00    +0.005 A 
ATOM     21  C   UNL     1      -2.696  -7.801   6.664  0.00  0.00    +0.025 A 
ATOM     22  C   UNL     1      -3.267  -5.511   9.610  0.00  0.00    +0.044 C 
ENDBRANCH  12  16
BRANCH  13  23
ATOM     23  O   UNL     1      -0.859  -5.692   3.315  0.00  0.00    -0.369 OA
ATOM     24  H   UNL     1      -0.898  -4.997   3.986  0.00  0.00    +0.212 HD
ENDBRANCH  13  23
ENDBRANCH   1   9
BRANCH   1  27
ATOM     25  N   UNL     1      -1.209  -5.182  -0.342  0.00  0.00    -0.200 N 
ATOM     26  C   UNL     1      -1.134  -6.186   0.572  0.00  0.00    +0.220 A 
ATOM     27  C   UNL     1       0.149  -6.635   0.581  0.00  0.00    +0.048 A 
ATOM     28  C   UNL     1       0.873  -5.886  -0.352  0.00  0.00    +0.068 A 
ATOM     29  N   UNL     1       0.062  -5.022  -0.907  0.00  0.00    -0.168 NA
ATOM     30  C   UNL     1       2.337  -6.050  -0.667  0.00  0.00    +0.068 C 
BRANCH  25  35
ATOM     31  C   UNL     1      -5.852  -2.192  -1.654  0.00  0.00    +0.044 C 
ATOM     32  C   UNL     1      -4.619  -2.986  -1.305  0.00  0.00    -0.050 A 
ATOM     33  C   UNL     1      -3.379  -2.374  -1.314  0.00  0.00    +0.005 A 
ATOM     34  C   UNL     1      -2.247  -3.099  -0.995  0.00  0.00    +0.028 A 
ATOM     35  C   UNL     1      -2.356  -4.444  -0.665  0.00  0.00    +0.069 A 
ATOM     36  C   UNL     1      -3.602  -5.055  -0.657  0.00  0.00    +0.028 A 
ATOM     37  C   UNL     1      -4.731  -4.324  -0.972  0.00  0.00    +0.005 A 
ENDBRANCH  25  35
BRANCH  26  38
ATOM     38  O   UNL     1      -2.154  -6.654   1.336  0.00  0.00    -0.492 OA
ATOM     39  H   UNL     1      -2.694  -7.328   0.901  0.00  0.00    +0.294 HD
ENDBRANCH  26  38
ENDBRANCH   1  27
TORSDOF 7
