REMARK  Name = ZINC34758028
REMARK  5 active torsions:
REMARK  status: ('A' for Active; 'I' for Inactive)
REMARK    1  A    between atoms: C_1  and  N_2
REMARK    2  A    between atoms: C_15  and  S_17
REMARK    3  A    between atoms: S_17  and  C_18
REMARK    4  A    between atoms: C_18  and  C_19
REMARK    5  A    between atoms: N_21  and  C_22
REMARK                            x       y       z     vdW  Elec       q    Type
REMARK                         _______ _______ _______ _____ _____    ______ ____
ROOT
ATOM      1  C   UNL     1      -1.411   0.151  -1.940  0.00  0.00    -0.096 C 
ATOM      2  N   UNL     1      -0.654  -0.623  -0.947  0.00  0.00    +0.380 N 
ATOM      3  C   UNL     1      -0.951  -2.051  -1.112  0.00  0.00    -0.060 C 
ATOM      4  C   UNL     1      -0.253  -2.849  -0.006  0.00  0.00    +0.088 C 
ATOM      5  N   UNL     1       1.181  -2.521  -0.029  0.00  0.00    -0.318 N 
ATOM      6  C   UNL     1       1.567  -1.102  -0.031  0.00  0.00    +0.088 C 
ATOM      7  C   UNL     1       0.783  -0.387  -1.136  0.00  0.00    -0.060 C 
ATOM      8  C   UNL     1       2.138  -3.519  -0.047  0.00  0.00    +0.134 A 
ATOM      9  C   UNL     1       2.731  -3.971   1.165  0.00  0.00    +0.051 A 
ATOM     10  C   UNL     1       2.466  -3.511   2.539  0.00  0.00    -0.025 A 
ATOM     11  C   UNL     1       3.163  -4.102   3.522  0.00  0.00    -0.004 A 
ATOM     12  S   UNL     1       4.199  -5.294   2.703  0.00  0.00    -0.073 S 
ATOM     13  C   UNL     1       3.691  -4.989   1.032  0.00  0.00    +0.115 A 
ATOM     14  N   UNL     1       4.015  -5.485  -0.148  0.00  0.00    -0.214 NA
ATOM     15  C   UNL     1       3.430  -5.026  -1.246  0.00  0.00    +0.191 A 
ATOM     16  N   UNL     1       2.511  -4.069  -1.190  0.00  0.00    -0.206 NA
ATOM     17  C   UNL     1       2.815  -3.550   4.878  0.00  0.00    +0.043 C 
ATOM     18  C   UNL     1       2.101  -2.213   4.580  0.00  0.00    +0.010 C 
ATOM     19  C   UNL     1       1.538  -2.467   3.167  0.00  0.00    +0.037 C 
ATOM     20  H   UNL     1      -0.922  -0.331  -0.019  0.00  0.00    -0.082 HD
ENDROOT
BRANCH  15  21
ATOM     21  S   UNL     1       3.879  -5.703  -2.810  0.00  0.00    -0.077 S 
BRANCH  21  22
ATOM     22  C   UNL     1       5.131  -6.951  -2.405  0.00  0.00    +0.173 C 
BRANCH  22  23
ATOM     23  C   UNL     1       5.606  -7.615  -3.672  0.00  0.00    +0.227 C 
ATOM     24  O   UNL     1       5.145  -7.279  -4.742  0.00  0.00    -0.275 OA
ATOM     25  N   UNL     1       6.543  -8.582  -3.615  0.00  0.00    -0.285 N 
ATOM     26  H   UNL     1       6.856  -8.905  -2.756  0.00  0.00    +0.155 HD
BRANCH  25  27
ATOM     27  C   UNL     1       7.066  -9.119  -4.797  0.00  0.00    +0.033 A 
ATOM     28  C   UNL     1       7.409 -10.464  -4.857  0.00  0.00    +0.024 A 
ATOM     29  C   UNL     1       7.925 -10.992  -6.025  0.00  0.00    +0.017 A 
ATOM     30  C   UNL     1       8.100 -10.183  -7.134  0.00  0.00    +0.018 A 
ATOM     31  C   UNL     1       7.759  -8.843  -7.076  0.00  0.00    +0.017 A 
ATOM     32  C   UNL     1       7.238  -8.311  -5.913  0.00  0.00    +0.024 A 
ATOM     33 BR   UNL     1       8.806 -10.909  -8.730  0.00  0.00    -0.050 Br
ENDBRANCH  25  27
ENDBRANCH  22  23
ENDBRANCH  21  22
ENDBRANCH  15  21
TORSDOF 4
