REMARK  Name = ZINC09952459
REMARK  9 active torsions:
REMARK  status: ('A' for Active; 'I' for Inactive)
REMARK    1  A    between atoms: C_1  and  O_2
REMARK    2  A    between atoms: O_2  and  C_3
REMARK    3  A    between atoms: C_6  and  O_29
REMARK    4  A    between atoms: C_7  and  C_9
REMARK    5  A    between atoms: C_14  and  C_15
REMARK    6  A    between atoms: C_14  and  N_57
REMARK    7  A    between atoms: N_17  and  C_18
REMARK    8  A    between atoms: C_19  and  C_26
REMARK    9  A    between atoms: O_29  and  C_30
REMARK                            x       y       z     vdW  Elec       q    Type
REMARK                         _______ _______ _______ _____ _____    ______ ____
ROOT
ATOM      1  C   UNL     1      -4.375   4.192   3.800  0.00  0.00    +0.020 C 
ENDROOT
BRANCH   1   6
ATOM      2  C   UNL     1      -2.225   5.335   3.845  0.00  0.00    -0.033 C 
ATOM      3  C   UNL     1      -1.192   5.711   4.929  0.00  0.00    -0.012 C 
ATOM      4  C   UNL     1      -1.861   5.338   6.268  0.00  0.00    -0.020 C 
ATOM      5  C   UNL     1      -3.243   4.769   5.881  0.00  0.00    -0.077 C 
ATOM      6  N   UNL     1      -3.057   4.321   4.502  0.00  0.00    +0.390 N 
ATOM      7  H   UNL     1      -2.579   3.412   4.490  0.00  0.00    -0.080 HD
BRANCH   2  12
ATOM      8  C   UNL     1      -0.787   2.893   1.346  0.00  0.00    +0.121 A 
ATOM      9  C   UNL     1      -0.253   3.750   0.396  0.00  0.00    +0.049 A 
ATOM     10  C   UNL     1      -0.366   5.117   0.558  0.00  0.00    +0.049 A 
ATOM     11  C   UNL     1      -1.003   5.633   1.677  0.00  0.00    +0.122 A 
ATOM     12  C   UNL     1      -1.532   4.775   2.630  0.00  0.00    -0.016 A 
ATOM     13  C   UNL     1      -1.425   3.408   2.465  0.00  0.00    +0.051 A 
BRANCH   8  15
ATOM     14  C   UNL     1      -0.013   1.086   0.008  0.00  0.00    +0.277 C 
ATOM     15  O   UNL     1      -0.682   1.547   1.184  0.00  0.00    -0.495 OA
ENDBRANCH   8  15
BRANCH  11  16
ATOM     16  O   UNL     1      -1.109   6.979   1.840  0.00  0.00    -0.495 OA
ATOM     17  C   UNL     1      -0.541   7.802   0.819  0.00  0.00    +0.277 C 
ENDBRANCH  11  16
ENDBRANCH   2  12
ENDBRANCH   1   6
BRANCH   1  18
ATOM     18  C   UNL     1      -5.110   2.977   4.305  0.00  0.00    +0.201 C 
ATOM     19  O   UNL     1      -4.602   2.268   5.148  0.00  0.00    -0.278 OA
ATOM     20  N   UNL     1      -6.330   2.678   3.819  0.00  0.00    -0.281 N 
ATOM     21  H   UNL     1      -6.736   3.245   3.144  0.00  0.00    +0.155 HD
BRANCH  20  22
ATOM     22  C   UNL     1      -7.007   1.560   4.283  0.00  0.00    +0.084 A 
ATOM     23  C   UNL     1      -8.255   1.093   3.910  0.00  0.00    +0.068 A 
ATOM     24  C   UNL     1      -8.745  -0.123   4.557  0.00  0.00    -0.023 A 
ATOM     25  C   UNL     1      -7.911  -0.663   5.464  0.00  0.00    -0.004 A 
ATOM     26  S   UNL     1      -6.492   0.405   5.464  0.00  0.00    -0.077 S 
ATOM     27  C   UNL     1      -8.484  -1.907   6.088  0.00  0.00    +0.043 C 
ATOM     28  C   UNL     1      -9.993  -1.846   5.762  0.00  0.00    +0.010 C 
ATOM     29  C   UNL     1     -10.003  -0.990   4.480  0.00  0.00    +0.037 C 
BRANCH  23  30
ATOM     30  C   UNL     1      -9.058   1.793   2.902  0.00  0.00    +0.244 C 
ATOM     31  O   UNL     1      -8.947   1.501   1.726  0.00  0.00    -0.270 OA
ATOM     32  N   UNL     1      -9.919   2.760   3.279  0.00  0.00    -0.325 N 
ATOM     33  H   UNL     1     -10.007   2.992   4.216  0.00  0.00    +0.145 HD
ATOM     34  H   UNL     1     -10.450   3.223   2.612  0.00  0.00    +0.145 HD
ENDBRANCH  23  30
ENDBRANCH  20  22
ENDBRANCH   1  18
TORSDOF 7
