REMARK  Name = ZINC64166455
REMARK  8 active torsions:
REMARK  status: ('A' for Active; 'I' for Inactive)
REMARK    1  A    between atoms: C_1  and  C_2
REMARK    2  A    between atoms: C_7  and  C_8
REMARK    3  A    between atoms: C_8  and  N_9
REMARK    4  A    between atoms: C_12  and  C_15
REMARK    5  A    between atoms: C_15  and  N_16
REMARK    6  A    between atoms: N_16  and  C_17
REMARK    7  A    between atoms: C_17  and  C_18
REMARK    8  A    between atoms: C_24  and  C_26
REMARK                            x       y       z     vdW  Elec       q    Type
REMARK                         _______ _______ _______ _____ _____    ______ ____
ROOT
ATOM      1  N   UNL     1      -4.702   1.460   6.895  0.00  0.00    -0.297 N 
ATOM      2  C   UNL     1      -5.794   0.877   7.428  0.00  0.00    +0.242 C 
ATOM      3  O   UNL     1      -6.410   0.047   6.793  0.00  0.00    -0.273 OA
ENDROOT
BRANCH   2   4
ATOM      4  C   UNL     1      -6.250   1.256   8.814  0.00  0.00    +0.190 C 
ATOM      5  C   UNL     1      -7.477   2.137   8.736  0.00  0.00    +0.016 C 
ATOM      6  C   UNL     1      -8.460   1.468   9.382  0.00  0.00    -0.004 A 
ATOM      7  C   UNL     1      -9.868   1.785   9.650  0.00  0.00    +0.010 A 
ATOM      8  C   UNL     1     -10.620   0.897  10.339  0.00  0.00    +0.001 A 
ATOM      9  C   UNL     1     -10.090  -0.315  10.802  0.00  0.00    +0.002 A 
ATOM     10  C   UNL     1      -8.806  -0.676  10.595  0.00  0.00    +0.026 A 
ATOM     11  C   UNL     1      -7.924   0.182   9.881  0.00  0.00    +0.043 A 
ATOM     12  N   UNL     1      -6.658   0.059   9.557  0.00  0.00    -0.370 N 
ATOM     13  H   UNL     1      -6.088  -0.695   9.773  0.00  0.00    +0.161 HD
ENDBRANCH   2   4
BRANCH   1  14
ATOM     14  C   UNL     1      -4.152   0.966   5.630  0.00  0.00    +0.111 C 
BRANCH  14  18
ATOM     15  N   UNL     1      -0.622  -1.445   5.565  0.00  0.00    +0.382 N 
ATOM     16  C   UNL     1      -1.794  -1.977   4.860  0.00  0.00    -0.078 C 
ATOM     17  C   UNL     1      -2.783  -0.844   4.580  0.00  0.00    -0.014 C 
ATOM     18  C   UNL     1      -3.224  -0.219   5.906  0.00  0.00    +0.003 C 
ATOM     19  C   UNL     1      -1.986   0.266   6.667  0.00  0.00    -0.014 C 
ATOM     20  C   UNL     1      -1.026  -0.908   6.870  0.00  0.00    -0.078 C 
ATOM     21  H   UNL     1      -0.206  -0.709   5.014  0.00  0.00    -0.081 HD
BRANCH  15  22
ATOM     22  C   UNL     1       0.360  -2.520   5.762  0.00  0.00    -0.043 C 
BRANCH  22  29
ATOM     23  C   UNL     1       2.400  -1.010   4.382  0.00  0.00    +0.044 C 
ATOM     24  C   UNL     1       1.844  -2.266   3.763  0.00  0.00    -0.049 A 
ATOM     25  C   UNL     1       2.314  -2.699   2.537  0.00  0.00    +0.003 A 
ATOM     26  C   UNL     1       1.804  -3.852   1.969  0.00  0.00    +0.000 A 
ATOM     27  C   UNL     1       0.824  -4.571   2.627  0.00  0.00    +0.000 A 
ATOM     28  C   UNL     1       0.354  -4.139   3.853  0.00  0.00    +0.002 A 
ATOM     29  C   UNL     1       0.868  -2.989   4.423  0.00  0.00    -0.061 A 
ENDBRANCH  22  29
ENDBRANCH  15  22
ENDBRANCH  14  18
ENDBRANCH   1  14
BRANCH   1  30
ATOM     30  C   UNL     1      -4.066   2.588   7.580  0.00  0.00    +0.139 C 
BRANCH  30  31
ATOM     31  C   UNL     1      -4.540   3.900   6.951  0.00  0.00    +0.136 C 
ATOM     32  C   UNL     1      -3.788   5.088   7.589  0.00  0.00    +0.035 C 
ATOM     33  C   UNL     1      -4.905   6.161   7.704  0.00  0.00    +0.031 C 
ATOM     34  C   UNL     1      -6.140   5.271   7.990  0.00  0.00    +0.160 C 
ATOM     35  O   UNL     1      -5.938   4.083   7.205  0.00  0.00    -0.375 OA
ENDBRANCH  30  31
ENDBRANCH   1  30
TORSDOF 7
