REMARK  Name = ZINC37317941
REMARK  6 active torsions:
REMARK  status: ('A' for Active; 'I' for Inactive)
REMARK    1  A    between atoms: C_2  and  C_3
REMARK    2  A    between atoms: C_3  and  N_4
REMARK    3  A    between atoms: C_7  and  N_10
REMARK    4  A    between atoms: N_10  and  C_11
REMARK    5  A    between atoms: C_13  and  S_18
REMARK    6  A    between atoms: S_18  and  N_21
REMARK                            x       y       z     vdW  Elec       q    Type
REMARK                         _______ _______ _______ _____ _____    ______ ____
ROOT
ATOM      1  C   UNL     1       5.269   5.312  -1.349  0.00  0.00    +0.048 A 
ATOM      2  C   UNL     1       4.296   6.197  -1.796  0.00  0.00    +0.053 A 
ATOM      3  C   UNL     1       4.646   7.484  -2.155  0.00  0.00    +0.107 A 
ATOM      4  C   UNL     1       5.965   7.892  -2.071  0.00  0.00    +0.030 A 
ATOM      5  C   UNL     1       6.937   7.015  -1.627  0.00  0.00    +0.024 A 
ATOM      6  C   UNL     1       6.593   5.728  -1.261  0.00  0.00    +0.062 A 
ATOM      7 CL   UNL     1       7.813   4.629  -0.697  0.00  0.00    -0.082 Cl
ENDROOT
BRANCH   3   8
ATOM      8  S   UNL     1       3.411   8.606  -2.721  0.00  0.00    +0.056 S 
ATOM      9  O   UNL     1       4.079   9.579  -3.513  0.00  0.00    -0.153 OA
ATOM     10  O   UNL     1       2.345   7.815  -3.227  0.00  0.00    -0.153 OA
BRANCH   8  11
ATOM     11  N   UNL     1       2.824   9.399  -1.392  0.00  0.00    -0.204 NA
ATOM     12  H   UNL     1       2.490  10.306  -1.476  0.00  0.00    +0.144 HD
ATOM     13  H   UNL     1       2.813   8.957  -0.529  0.00  0.00    +0.144 HD
ENDBRANCH   8  11
ENDBRANCH   3   8
BRANCH   1  14
ATOM     14  N   UNL     1       4.918   4.010  -0.985  0.00  0.00    -0.340 N 
ATOM     15  H   UNL     1       5.598   3.395  -0.669  0.00  0.00    +0.146 HD
BRANCH  14  19
ATOM     16  N   UNL     1       1.360   1.976  -0.000  0.00  0.00    +0.387 N 
ATOM     17  C   UNL     1       2.011   1.595  -1.260  0.00  0.00    -0.076 C 
ATOM     18  C   UNL     1       3.472   2.052  -1.242  0.00  0.00    +0.003 C 
ATOM     19  C   UNL     1       3.523   3.574  -1.079  0.00  0.00    +0.067 C 
ATOM     20  C   UNL     1       2.776   3.966   0.200  0.00  0.00    +0.003 C 
ATOM     21  C   UNL     1       1.342   3.438   0.128  0.00  0.00    -0.076 C 
ATOM     22  H   UNL     1       1.871   1.578   0.774  0.00  0.00    -0.080 HD
BRANCH  16  23
ATOM     23  C   UNL     1      -0.018   1.468   0.010  0.00  0.00    +0.012 C 
BRANCH  23  25
ATOM     24  C   UNL     1       0.018  -1.178  -0.004  0.00  0.00    +0.002 C 
ATOM     25  C   UNL     1       0.002  -0.004   0.002  0.00  0.00    -0.124 C 
ENDBRANCH  23  25
ENDBRANCH  16  23
ENDBRANCH  14  19
ENDBRANCH   1  14
TORSDOF 6
