REMARK  Name = ZINC63490422
REMARK  9 active torsions:
REMARK  status: ('A' for Active; 'I' for Inactive)
REMARK    1  A    between atoms: C_1  and  C_2
REMARK    2  A    between atoms: C_6  and  N_8
REMARK    3  A    between atoms: N_8  and  C_9
REMARK    4  A    between atoms: C_9  and  N_11
REMARK    5  A    between atoms: N_11  and  C_12
REMARK    6  A    between atoms: C_12  and  C_13
REMARK    7  A    between atoms: C_13  and  C_14
REMARK    8  A    between atoms: C_17  and  C_25
REMARK    9  A    between atoms: C_22  and  C_24
REMARK                            x       y       z     vdW  Elec       q    Type
REMARK                         _______ _______ _______ _____ _____    ______ ____
ROOT
ATOM      1  C   UNL     1      -0.210  -6.281   3.540  0.00  0.00    +0.107 C 
ENDROOT
BRANCH   1   2
ATOM      2  N   UNL     1      -0.119  -4.819   3.548  0.00  0.00    -0.326 N 
ATOM      3  H   UNL     1      -0.121  -4.337   4.390  0.00  0.00    +0.148 HD
BRANCH   2   4
ATOM      4  C   UNL     1      -0.032  -4.143   2.385  0.00  0.00    +0.135 C 
ATOM      5  S   UNL     1      -0.028  -4.992   0.899  0.00  0.00    -0.019 S 
BRANCH   4   6
ATOM      6  N   UNL     1       0.051  -2.797   2.392  0.00  0.00    -0.297 N 
ATOM      7  H   UNL     1       0.130  -2.321   3.233  0.00  0.00    +0.154 HD
BRANCH   6  13
ATOM      8  C   UNL     1      -1.841  -2.157  -2.100  0.00  0.00    +0.044 C 
ATOM      9  C   UNL     1      -0.883  -1.756  -1.008  0.00  0.00    -0.049 A 
ATOM     10  C   UNL     1      -0.028  -0.686  -1.198  0.00  0.00    +0.003 A 
ATOM     11  C   UNL     1       0.853  -0.315  -0.199  0.00  0.00    +0.002 A 
ATOM     12  C   UNL     1       0.882  -1.013   0.993  0.00  0.00    +0.023 A 
ATOM     13  C   UNL     1       0.025  -2.088   1.187  0.00  0.00    +0.033 A 
ATOM     14  C   UNL     1      -0.863  -2.455   0.183  0.00  0.00    +0.026 A 
ENDBRANCH   6  13
ENDBRANCH   4   6
ENDBRANCH   2   4
ENDBRANCH   1   2
BRANCH   1  15
ATOM     15  C   UNL     1      -0.297  -6.794   4.979  0.00  0.00    +0.052 C 
BRANCH  15  16
ATOM     16  C   UNL     1      -0.391  -8.298   4.971  0.00  0.00    -0.037 C 
ATOM     17  C   UNL     1      -0.393  -9.107   3.886  0.00  0.00    -0.001 A 
ATOM     18  C   UNL     1      -0.314  -8.838   2.446  0.00  0.00    +0.013 A 
ATOM     19  C   UNL     1      -0.342  -9.879   1.582  0.00  0.00    -0.050 A 
ATOM     20  C   UNL     1      -0.444 -11.204   2.028  0.00  0.00    +0.005 A 
ATOM     21  C   UNL     1      -0.521 -11.530   3.335  0.00  0.00    +0.026 A 
ATOM     22  C   UNL     1      -0.500 -10.515   4.331  0.00  0.00    +0.043 A 
ATOM     23  N   UNL     1      -0.561 -10.574   5.639  0.00  0.00    -0.378 N 
ATOM     24  C   UNL     1      -0.494  -9.209   6.173  0.00  0.00    +0.103 C 
ATOM     25  C   UNL     1       0.740  -9.048   7.064  0.00  0.00    +0.035 C 
ATOM     26  C   UNL     1      -0.261  -9.607   0.102  0.00  0.00    +0.044 C 
ATOM     27  H   UNL     1      -0.634 -11.385   6.167  0.00  0.00    +0.160 HD
ENDBRANCH  15  16
ENDBRANCH   1  15
TORSDOF 6
