REMARK  Name = ZINC20069148
REMARK  10 active torsions:
REMARK  status: ('A' for Active; 'I' for Inactive)
REMARK    1  A    between atoms: C_1  and  C_2
REMARK    2  A    between atoms: C_2  and  C_3
REMARK    3  A    between atoms: C_3  and  C_4
REMARK    4  A    between atoms: C_4  and  N_5
REMARK    5  A    between atoms: C_6  and  C_8
REMARK    6  A    between atoms: C_10  and  C_25
REMARK    7  A    between atoms: C_14  and  C_19
REMARK    8  A    between atoms: C_28  and  O_31
REMARK    9  A    between atoms: O_31  and  C_32
REMARK   10  A    between atoms: C_32  and  C_33
REMARK                            x       y       z     vdW  Elec       q    Type
REMARK                         _______ _______ _______ _____ _____    ______ ____
ROOT
ATOM      1  C   UNL     1       0.406  -4.782  -1.507  0.00  0.00    +0.166 C 
ATOM      2  C   UNL     1       0.169  -4.255  -0.085  0.00  0.00    +0.140 C 
ATOM      3  N   UNL     1       1.208  -4.748   0.819  0.00  0.00    -0.272 N 
ATOM      4  N   UNL     1       1.265  -6.103   0.899  0.00  0.00    -0.221 N 
ATOM      5  C   UNL     1       1.803  -6.861   1.910  0.00  0.00    +0.182 A 
ATOM      6  N   UNL     1       1.655  -8.121   1.567  0.00  0.00    -0.127 NA
ATOM      7  N   UNL     1       1.065  -8.202   0.425  0.00  0.00    -0.121 NA
ATOM      8  C   UNL     1       0.801  -7.002  -0.019  0.00  0.00    +0.210 A 
ATOM      9  S   UNL     1      -0.012  -6.552  -1.520  0.00  0.00    -0.069 S 
ATOM     10  H   UNL     1       1.853  -4.037   1.356  0.00  0.00    +0.167 HD
ENDROOT
BRANCH   5  11
ATOM     11  C   UNL     1       2.430  -6.355   3.150  0.00  0.00    +0.021 A 
ATOM     12  C   UNL     1       2.861  -5.030   3.227  0.00  0.00    +0.011 A 
ATOM     13  C   UNL     1       3.441  -4.563   4.388  0.00  0.00    +0.001 A 
ATOM     14  C   UNL     1       3.605  -5.408   5.471  0.00  0.00    +0.000 A 
ATOM     15  C   UNL     1       3.184  -6.724   5.400  0.00  0.00    +0.001 A 
ATOM     16  C   UNL     1       2.598  -7.202   4.246  0.00  0.00    +0.011 A 
ENDBRANCH   5  11
BRANCH   2  17
ATOM     17  C   UNL     1       0.197  -2.748  -0.102  0.00  0.00    -0.024 A 
ATOM     18  C   UNL     1      -0.989  -2.036  -0.113  0.00  0.00    +0.009 A 
ATOM     19  C   UNL     1      -0.966  -0.655  -0.128  0.00  0.00    +0.046 A 
ATOM     20  C   UNL     1       0.248   0.018  -0.131  0.00  0.00    +0.121 A 
ATOM     21  C   UNL     1       1.435  -0.699  -0.125  0.00  0.00    +0.046 A 
ATOM     22  C   UNL     1       1.407  -2.080  -0.104  0.00  0.00    +0.009 A 
BRANCH  20  23
ATOM     23  O   UNL     1       0.273   1.376  -0.145  0.00  0.00    -0.492 OA
BRANCH  23  24
ATOM     24  C   UNL     1       1.558   2.002  -0.148  0.00  0.00    +0.225 C 
ATOM     25  C   UNL     1       1.385   3.522  -0.165  0.00  0.00    +0.048 C 
ENDBRANCH  23  24
ENDBRANCH  20  23
ENDBRANCH   2  17
BRANCH   1  27
ATOM     26  N   UNL     1      -0.077  -3.862  -3.752  0.00  0.00    -0.314 N 
ATOM     27  C   UNL     1      -0.479  -4.044  -2.478  0.00  0.00    +0.229 C 
ATOM     28  O   UNL     1      -1.553  -3.614  -2.114  0.00  0.00    -0.275 OA
ATOM     29  H   UNL     1       0.897  -4.252  -4.082  0.00  0.00    +0.149 HD
BRANCH  26  30
ATOM     30  C   UNL     1      -0.937  -3.145  -4.696  0.00  0.00    +0.104 C 
BRANCH  30  31
ATOM     31  C   UNL     1      -0.250  -3.078  -6.062  0.00  0.00    +0.018 C 
BRANCH  31  33
ATOM     32  C   UNL     1      -0.462  -2.262  -8.414  0.00  0.00    +0.004 C 
ATOM     33  C   UNL     1      -1.149  -2.329  -7.048  0.00  0.00    -0.002 C 
ENDBRANCH  31  33
ENDBRANCH  30  31
ENDBRANCH  26  30
ENDBRANCH   1  27
TORSDOF 8
