REMARK  Name = ZINC66683839
REMARK  12 active torsions:
REMARK  status: ('A' for Active; 'I' for Inactive)
REMARK    1  A    between atoms: C_1  and  C_2
REMARK    2  A    between atoms: C_4  and  N_14
REMARK    3  A    between atoms: C_7  and  C_8
REMARK    4  A    between atoms: N_10  and  C_11
REMARK    5  A    between atoms: C_11  and  C_12
REMARK    6  A    between atoms: C_11  and  C_13
REMARK    7  A    between atoms: N_17  and  C_18
REMARK    8  A    between atoms: C_18  and  C_19
REMARK    9  A    between atoms: C_19  and  C_20
REMARK   10  A    between atoms: C_19  and  C_21
REMARK   11  A    between atoms: C_19  and  N_22
REMARK   12  A    between atoms: C_26  and  C_29
REMARK                            x       y       z     vdW  Elec       q    Type
REMARK                         _______ _______ _______ _____ _____    ______ ____
ROOT
ATOM      1  N   UNL     1       0.564  -2.669  -2.557  0.00  0.00    -0.269 N 
ATOM      2  C   UNL     1       0.469  -4.003  -2.394  0.00  0.00    +0.304 C 
ATOM      3  O   UNL     1       0.414  -4.477  -1.275  0.00  0.00    -0.253 OA
ATOM      4  N   UNL     1       0.434  -4.813  -3.471  0.00  0.00    -0.300 N 
ATOM      5  H   UNL     1       0.682  -2.296  -3.445  0.00  0.00    +0.156 HD
ATOM      6  H   UNL     1       0.478  -4.436  -4.363  0.00  0.00    +0.150 HD
ENDROOT
BRANCH   1  10
ATOM      7  C   UNL     1      -1.308  -1.669   1.870  0.00  0.00    +0.044 C 
ATOM      8  C   UNL     1      -0.408  -1.317   0.713  0.00  0.00    -0.037 A 
ATOM      9  C   UNL     1      -0.337  -2.148  -0.382  0.00  0.00    +0.027 A 
ATOM     10  C   UNL     1       0.493  -1.824  -1.450  0.00  0.00    +0.035 A 
ATOM     11  C   UNL     1       1.254  -0.659  -1.416  0.00  0.00    +0.024 A 
ATOM     12  C   UNL     1       1.187   0.176  -0.324  0.00  0.00    +0.015 A 
ATOM     13  C   UNL     1       0.350  -0.144   0.749  0.00  0.00    +0.040 A 
BRANCH  13  14
ATOM     14  C   UNL     1       0.271   0.753   1.918  0.00  0.00    +0.245 C 
ATOM     15  O   UNL     1      -0.434   0.458   2.864  0.00  0.00    -0.270 OA
ATOM     16  N   UNL     1       0.981   1.898   1.938  0.00  0.00    -0.309 N 
ATOM     17  H   UNL     1       1.544   2.134   1.184  0.00  0.00    +0.149 HD
BRANCH  16  18
ATOM     18  C   UNL     1       0.903   2.788   3.099  0.00  0.00    +0.067 C 
ATOM     19  C   UNL     1       1.899   2.325   4.165  0.00  0.00    +0.027 C 
ATOM     20  C   UNL     1       1.244   4.217   2.671  0.00  0.00    +0.027 C 
ENDBRANCH  16  18
ENDBRANCH  13  14
ENDBRANCH   1  10
BRANCH   4  21
ATOM     21  C   UNL     1       0.331  -6.264  -3.293  0.00  0.00    +0.093 C 
BRANCH  21  22
ATOM     22  C   UNL     1       0.429  -6.952  -4.656  0.00  0.00    -0.055 C 
ATOM     23  C   UNL     1       1.803  -6.675  -5.270  0.00  0.00    -0.008 C 
ATOM     24  C   UNL     1       0.245  -8.461  -4.479  0.00  0.00    -0.008 C 
BRANCH  22  25
ATOM     25  N   UNL     1      -0.618  -6.432  -5.545  0.00  0.00    +0.384 N 
ATOM     26  C   UNL     1      -1.932  -6.634  -4.921  0.00  0.00    -0.078 C 
ATOM     27  C   UNL     1      -3.020  -6.021  -5.805  0.00  0.00    -0.018 C 
ATOM     28  C   UNL     1      -2.995  -6.697  -7.179  0.00  0.00    -0.001 C 
ATOM     29  C   UNL     1      -1.598  -6.545  -7.788  0.00  0.00    -0.031 C 
ATOM     30  C   UNL     1      -0.563  -7.138  -6.830  0.00  0.00    -0.075 C 
ATOM     31  C   UNL     1      -1.541  -7.283  -9.126  0.00  0.00    +0.005 C 
ATOM     32  H   UNL     1      -0.469  -5.446  -5.697  0.00  0.00    -0.081 HD
ENDBRANCH  22  25
ENDBRANCH  21  22
ENDBRANCH   4  21
TORSDOF 6
