REMARK  Name = ZINC10774817
REMARK  9 active torsions:
REMARK  status: ('A' for Active; 'I' for Inactive)
REMARK    1  A    between atoms: C_1  and  C_2
REMARK    2  A    between atoms: C_2  and  O_3
REMARK    3  A    between atoms: O_3  and  C_4
REMARK    4  A    between atoms: C_4  and  C_6
REMARK    5  A    between atoms: C_10  and  N_11
REMARK    6  A    between atoms: C_12  and  C_14
REMARK    7  A    between atoms: N_20  and  S_21
REMARK    8  A    between atoms: S_21  and  C_24
REMARK    9  A    between atoms: C_32  and  N_59
REMARK                            x       y       z     vdW  Elec       q    Type
REMARK                         _______ _______ _______ _____ _____    ______ ____
ROOT
ATOM      1  N   UNL     1       0.805  -6.268   1.962  0.00  0.00    -0.278 N 
ATOM      2  C   UNL     1       1.905  -6.444   2.720  0.00  0.00    +0.236 C 
ATOM      3  O   UNL     1       2.590  -5.491   3.026  0.00  0.00    -0.274 OA
ATOM      4  H   UNL     1       0.258  -7.030   1.717  0.00  0.00    +0.155 HD
ENDROOT
BRANCH   1   9
ATOM      5  C   UNL     1      -0.630  -4.617   0.753  0.00  0.00    +0.091 A 
ATOM      6  C   UNL     1      -0.769  -3.206   0.443  0.00  0.00    -0.025 A 
ATOM      7  C   UNL     1       0.192  -2.405   0.955  0.00  0.00    -0.021 A 
ATOM      8  S   UNL     1       1.267  -3.496   1.839  0.00  0.00    -0.079 S 
ATOM      9  C   UNL     1       0.456  -4.997   1.532  0.00  0.00    +0.086 A 
ATOM     10  C   UNL     1       0.292  -0.921   0.790  0.00  0.00    -0.036 C 
ATOM     11  C   UNL     1      -1.943  -1.104  -0.127  0.00  0.00    -0.074 C 
ATOM     12  C   UNL     1      -1.896  -2.611  -0.393  0.00  0.00    +0.018 C 
ATOM     13  C   UNL     1      -0.686   0.946  -0.413  0.00  0.00    -0.096 C 
ATOM     14  N   UNL     1      -0.598  -0.528  -0.330  0.00  0.00    +0.381 N 
ATOM     15  H   UNL     1      -0.209  -0.889  -1.209  0.00  0.00    -0.082 HD
BRANCH   5  16
ATOM     16  C   UNL     1      -1.596  -5.602   0.263  0.00  0.00    +0.342 C 
ATOM     17  O   UNL     1      -1.420  -6.146  -0.811  0.00  0.00    -0.245 OA
BRANCH  16  18
ATOM     18  O   UNL     1      -2.682  -5.907   1.003  0.00  0.00    -0.461 OA
BRANCH  18  20
ATOM     19  C   UNL     1      -4.759  -7.105   1.428  0.00  0.00    +0.048 C 
ATOM     20  C   UNL     1      -3.598  -6.892   0.455  0.00  0.00    +0.229 C 
ENDBRANCH  18  20
ENDBRANCH  16  18
ENDBRANCH   5  16
ENDBRANCH   1   9
BRANCH   2  21
ATOM     21  C   UNL     1       2.285  -7.826   3.187  0.00  0.00    +0.166 C 
ATOM     22  C   UNL     1       3.648  -8.210   2.601  0.00  0.00    +0.030 C 
ATOM     23  C   UNL     1       4.091  -9.552   3.187  0.00  0.00    +0.003 C 
ATOM     24  C   UNL     1       4.237  -9.424   4.705  0.00  0.00    +0.017 C 
ATOM     25  C   UNL     1       2.881  -9.054   5.315  0.00  0.00    +0.110 C 
ATOM     26  N   UNL     1       2.376  -7.843   4.653  0.00  0.00    -0.164 NA
BRANCH  26  27
ATOM     27  S   UNL     1       1.922  -6.521   5.542  0.00  0.00    +0.068 S 
ATOM     28  O   UNL     1       1.017  -5.780   4.735  0.00  0.00    -0.152 OA
ATOM     29  O   UNL     1       1.574  -7.001   6.833  0.00  0.00    -0.152 OA
BRANCH  27  30
ATOM     30  C   UNL     1       3.354  -5.515   5.747  0.00  0.00    +0.143 A 
ATOM     31  C   UNL     1       3.734  -4.419   5.047  0.00  0.00    +0.036 A 
ATOM     32  C   UNL     1       4.911  -3.780   5.389  0.00  0.00    +0.010 A 
ATOM     33  C   UNL     1       5.651  -4.269   6.414  0.00  0.00    +0.047 A 
ATOM     34  S   UNL     1       4.676  -5.670   6.937  0.00  0.00    -0.077 S 
ENDBRANCH  27  30
ENDBRANCH  26  27
ENDBRANCH   2  21
TORSDOF 7
