REMARK  Name = ZINC38917997
REMARK  11 active torsions:
REMARK  status: ('A' for Active; 'I' for Inactive)
REMARK    1  A    between atoms: C_1  and  C_2
REMARK    2  A    between atoms: C_19  and  C_21
REMARK    3  A    between atoms: C_21  and  N_22
REMARK    4  A    between atoms: N_22  and  C_23
REMARK    5  A    between atoms: C_23  and  C_24
REMARK    6  A    between atoms: C_24  and  C_25
REMARK    7  A    between atoms: C_25  and  C_33
REMARK    8  A    between atoms: C_29  and  C_31
REMARK    9  A    between atoms: C_29  and  C_32
REMARK   10  A    between atoms: C_36  and  O_39
REMARK   11  A    between atoms: O_39  and  C_40
REMARK                            x       y       z     vdW  Elec       q    Type
REMARK                         _______ _______ _______ _____ _____    ______ ____
ROOT
ATOM      1  N   UNL     1       4.811  -4.279  -0.811  0.00  0.00    +0.380 N 
ATOM      2  H   UNL     1       5.352  -3.920  -1.583  0.00  0.00    -0.086 HD
ATOM      3  H   UNL     1       4.445  -3.510  -0.270  0.00  0.00    -0.086 HD
ENDROOT
BRANCH   1   4
ATOM      4  C   UNL     1       3.699  -5.089  -1.325  0.00  0.00    -0.068 C 
BRANCH   4  20
ATOM      5  C   UNL     1      -0.843  -1.482  -3.477  0.00  0.00    +0.012 C 
ATOM      6  C   UNL     1      -0.379  -2.936  -3.370  0.00  0.00    -0.022 C 
ATOM      7  C   UNL     1      -1.481  -3.856  -3.891  0.00  0.00    +0.007 C 
ATOM      8  C   UNL     1      -2.784  -3.569  -3.140  0.00  0.00    +0.005 C 
ATOM      9  C   UNL     1      -2.601  -3.881  -1.652  0.00  0.00    +0.030 C 
ATOM     10  C   UNL     1      -1.396  -3.124  -1.138  0.00  0.00    -0.073 C 
ATOM     11  C   UNL     1      -1.476  -2.369  -0.071  0.00  0.00    +0.008 C 
ATOM     12  C   UNL     1      -0.091  -3.269  -1.900  0.00  0.00    +0.021 C 
ATOM     13  C   UNL     1       0.346  -4.733  -1.823  0.00  0.00    +0.016 C 
ATOM     14  C   UNL     1       1.561  -5.008  -2.668  0.00  0.00    +0.042 C 
ATOM     15  C   UNL     1       1.425  -4.521  -4.126  0.00  0.00    +0.181 C 
ATOM     16  C   UNL     1       0.890  -3.117  -4.187  0.00  0.00    +0.052 C 
ATOM     17  O   UNL     1       2.823  -4.456  -4.529  0.00  0.00    -0.461 OA
ATOM     18  C   UNL     1       3.513  -3.898  -3.510  0.00  0.00    +0.309 C 
ATOM     19  O   UNL     1       4.522  -3.243  -3.618  0.00  0.00    -0.251 OA
ATOM     20  C   UNL     1       2.805  -4.221  -2.213  0.00  0.00    +0.087 C 
ENDBRANCH   4  20
ENDBRANCH   1   4
BRANCH   1  21
ATOM     21  C   UNL     1       5.670  -5.113   0.042  0.00  0.00    -0.082 C 
BRANCH  21  22
ATOM     22  C   UNL     1       6.828  -4.270   0.578  0.00  0.00    -0.007 C 
BRANCH  22  23
ATOM     23  C   UNL     1       7.801  -5.168   1.345  0.00  0.00    -0.001 C 
ATOM     24  C   UNL     1       9.006  -4.343   1.806  0.00  0.00    +0.039 C 
ATOM     25  C   UNL     1       9.751  -3.812   0.578  0.00  0.00    +0.161 C 
ATOM     26  O   UNL     1      10.149  -4.909  -0.247  0.00  0.00    -0.374 OA
ATOM     27  C   UNL     1       9.061  -5.689  -0.746  0.00  0.00    +0.065 C 
ATOM     28  C   UNL     1       8.288  -6.295   0.428  0.00  0.00    +0.046 C 
ATOM     29  C   UNL     1       8.127  -4.795  -1.565  0.00  0.00    +0.041 C 
ATOM     30  C   UNL     1       9.602  -6.811  -1.634  0.00  0.00    +0.041 C 
BRANCH  23  31
ATOM     31  C   UNL     1       7.104  -5.759   2.543  0.00  0.00    -0.041 A 
ATOM     32  C   UNL     1       6.897  -7.125   2.617  0.00  0.00    +0.008 A 
ATOM     33  C   UNL     1       6.258  -7.669   3.715  0.00  0.00    +0.046 A 
ATOM     34  C   UNL     1       5.824  -6.844   4.742  0.00  0.00    +0.120 A 
ATOM     35  C   UNL     1       6.033  -5.475   4.665  0.00  0.00    +0.046 A 
ATOM     36  C   UNL     1       6.677  -4.936   3.568  0.00  0.00    +0.008 A 
BRANCH  34  37
ATOM     37  O   UNL     1       5.194  -7.377   5.822  0.00  0.00    -0.495 OA
ATOM     38  C   UNL     1       4.775  -6.468   6.842  0.00  0.00    +0.277 C 
ENDBRANCH  34  37
ENDBRANCH  23  31
ENDBRANCH  22  23
ENDBRANCH  21  22
ENDBRANCH   1  21
TORSDOF 7
