REMARK  Name = ZINC02970688
REMARK  10 active torsions:
REMARK  status: ('A' for Active; 'I' for Inactive)
REMARK    1  A    between atoms: N_9  and  C_29
REMARK    2  A    between atoms: C_10  and  S_12
REMARK    3  A    between atoms: S_12  and  C_13
REMARK    4  A    between atoms: C_13  and  C_14
REMARK    5  A    between atoms: N_16  and  C_17
REMARK    6  A    between atoms: C_17  and  C_18
REMARK    7  A    between atoms: C_18  and  C_19
REMARK    8  A    between atoms: C_22  and  S_25
REMARK    9  A    between atoms: S_25  and  N_28
REMARK   10  A    between atoms: C_29  and  C_30
REMARK                            x       y       z     vdW  Elec       q    Type
REMARK                         _______ _______ _______ _____ _____    ______ ____
ROOT
ATOM      1  C   UNL     1      -3.800  -1.496   0.030  0.00  0.00    +0.173 C 
ENDROOT
BRANCH   1   2
ATOM      2  C   UNL     1      -5.218  -2.007   0.041  0.00  0.00    +0.223 C 
ATOM      3  O   UNL     1      -5.434  -3.200   0.037  0.00  0.00    -0.275 OA
ATOM      4  N   UNL     1      -6.248  -1.137   0.055  0.00  0.00    -0.314 N 
ATOM      5  H   UNL     1      -6.076  -0.182   0.058  0.00  0.00    +0.149 HD
BRANCH   4   6
ATOM      6  C   UNL     1      -7.626  -1.632   0.066  0.00  0.00    +0.109 C 
BRANCH   6   7
ATOM      7  C   UNL     1      -8.594  -0.448   0.081  0.00  0.00    +0.054 C 
BRANCH   7   8
ATOM      8  C   UNL     1     -10.012  -0.958   0.091  0.00  0.00    -0.046 A 
ATOM      9  C   UNL     1     -10.676  -1.181  -1.101  0.00  0.00    +0.005 A 
ATOM     10  C   UNL     1     -11.975  -1.653  -1.091  0.00  0.00    +0.029 A 
ATOM     11  C   UNL     1     -12.614  -1.894   0.111  0.00  0.00    +0.105 A 
ATOM     12  C   UNL     1     -11.952  -1.666   1.303  0.00  0.00    +0.029 A 
ATOM     13  C   UNL     1     -10.651  -1.198   1.293  0.00  0.00    +0.005 A 
BRANCH  11  14
ATOM     14  S   UNL     1     -14.271  -2.491   0.123  0.00  0.00    +0.056 S 
ATOM     15  O   UNL     1     -14.478  -3.140  -1.124  0.00  0.00    -0.153 OA
ATOM     16  O   UNL     1     -14.454  -3.154   1.367  0.00  0.00    -0.153 OA
BRANCH  14  17
ATOM     17  N   UNL     1     -15.268  -1.169   0.140  0.00  0.00    -0.204 NA
ATOM     18  H   UNL     1     -16.145  -1.218  -0.272  0.00  0.00    +0.144 HD
ATOM     19  H   UNL     1     -14.975  -0.346   0.562  0.00  0.00    +0.144 HD
ENDBRANCH  14  17
ENDBRANCH  11  14
ENDBRANCH   7   8
ENDBRANCH   6   7
ENDBRANCH   4   6
ENDBRANCH   1   2
BRANCH   1  20
ATOM     20  S   UNL     1      -2.655  -2.898   0.013  0.00  0.00    -0.078 S 
BRANCH  20  30
ATOM     21  C   UNL     1       2.381   1.422  -0.013  0.00  0.00    +0.001 A 
ATOM     22  C   UNL     1       1.161   2.086   0.002  0.00  0.00    +0.002 A 
ATOM     23  C   UNL     1      -0.017   1.394   0.010  0.00  0.00    +0.028 A 
ATOM     24  C   UNL     1       0.002  -0.004   0.002  0.00  0.00    +0.079 A 
ATOM     25  C   UNL     1       1.245  -0.677  -0.013  0.00  0.00    +0.065 A 
ATOM     26  C   UNL     1       2.432   0.055  -0.021  0.00  0.00    +0.015 A 
ATOM     27  C   UNL     1       1.240  -2.146  -0.021  0.00  0.00    +0.263 A 
ATOM     28  O   UNL     1       2.278  -2.781  -0.035  0.00  0.00    -0.267 OA
ATOM     29  N   UNL     1       0.037  -2.766  -0.012  0.00  0.00    -0.282 N 
ATOM     30  C   UNL     1      -1.118  -2.037   0.003  0.00  0.00    +0.173 A 
ATOM     31  N   UNL     1      -1.136  -0.727   0.009  0.00  0.00    -0.223 NA
BRANCH  29  32
ATOM     32  C   UNL     1      -0.027  -4.229  -0.018  0.00  0.00    +0.169 C 
BRANCH  32  33
ATOM     33  C   UNL     1      -0.063  -4.725  -1.441  0.00  0.00    +0.010 A 
ATOM     34  C   UNL     1       0.968  -5.046  -2.260  0.00  0.00    +0.013 A 
ATOM     35  C   UNL     1       0.695  -5.487  -3.541  0.00  0.00    +0.008 A 
ATOM     36  C   UNL     1      -0.596  -5.576  -3.944  0.00  0.00    +0.045 A 
ATOM     37  S   UNL     1      -1.476  -5.033  -2.489  0.00  0.00    -0.100 S 
ENDBRANCH  32  33
ENDBRANCH  29  32
ENDBRANCH  20  30
ENDBRANCH   1  20
TORSDOF 10
