REMARK  Name = ZINC11769307
REMARK  6 active torsions:
REMARK  status: ('A' for Active; 'I' for Inactive)
REMARK    1  A    between atoms: C_5  and  C_7
REMARK    2  A    between atoms: C_7  and  N_52
REMARK    3  A    between atoms: C_13  and  C_15
REMARK    4  A    between atoms: C_15  and  C_16
REMARK    5  A    between atoms: N_18  and  C_19
REMARK    6  A    between atoms: C_19  and  C_20
REMARK                            x       y       z     vdW  Elec       q    Type
REMARK                         _______ _______ _______ _____ _____    ______ ____
ROOT
ATOM      1  C   UNL     1       2.235   1.151   0.558  0.00  0.00    -0.058 C 
ATOM      2  C   UNL     1       0.966   2.000   0.462  0.00  0.00    +0.085 C 
ATOM      3  N   UNL     1      -0.210   1.137   0.396  0.00  0.00    -0.318 N 
ATOM      4  C   UNL     1      -0.144  -0.157   0.069  0.00  0.00    +0.200 C 
ATOM      5  O   UNL     1      -1.175  -0.794   0.008  0.00  0.00    -0.278 OA
ATOM      6  C   UNL     1       1.153  -0.856  -0.228  0.00  0.00    +0.028 C 
ATOM      7  H   UNL     1      -1.079   1.522   0.595  0.00  0.00    +0.149 HD
ATOM      8  N   UNL     1       2.195   0.146  -0.522  0.00  0.00    +0.391 N 
ATOM      9  H   UNL     1       1.970   0.614  -1.408  0.00  0.00    -0.080 HD
ENDROOT
BRANCH   8  10
ATOM     10  C   UNL     1       3.513  -0.517  -0.649  0.00  0.00    -0.039 C 
BRANCH  10  15
ATOM     11  C   UNL     1       6.409   1.808   0.029  0.00  0.00    +0.000 A 
ATOM     12  C   UNL     1       6.531   2.460  -1.184  0.00  0.00    +0.003 A 
ATOM     13  C   UNL     1       5.677   2.150  -2.225  0.00  0.00    +0.038 A 
ATOM     14  C   UNL     1       4.701   1.182  -2.054  0.00  0.00    +0.125 A 
ATOM     15  C   UNL     1       4.577   0.533  -0.838  0.00  0.00    -0.029 A 
ATOM     16  C   UNL     1       5.433   0.845   0.202  0.00  0.00    +0.004 A 
ATOM     17  F   UNL     1       3.869   0.875  -3.073  0.00  0.00    -0.205 F 
ENDBRANCH  10  15
ENDBRANCH   8  10
BRANCH   6  18
ATOM     18  C   UNL     1       0.975  -1.760  -1.449  0.00  0.00    +0.089 C 
BRANCH  18  19
ATOM     19  C   UNL     1       0.661  -0.916  -2.657  0.00  0.00    +0.212 C 
ATOM     20  O   UNL     1       0.700   0.294  -2.579  0.00  0.00    -0.276 OA
ATOM     21  N   UNL     1       0.339  -1.505  -3.826  0.00  0.00    -0.310 N 
ATOM     22  H   UNL     1       0.308  -2.472  -3.889  0.00  0.00    +0.149 HD
BRANCH  21  23
ATOM     23  C   UNL     1       0.034  -0.684  -5.000  0.00  0.00    +0.157 C 
BRANCH  23  24
ATOM     24  C   UNL     1      -0.292  -1.580  -6.168  0.00  0.00    +0.034 A 
ATOM     25  C   UNL     1      -1.530  -1.946  -6.535  0.00  0.00    +0.032 A 
ATOM     26  C   UNL     1      -1.391  -2.811  -7.709  0.00  0.00    +0.001 A 
ATOM     27  C   UNL     1      -2.296  -3.489  -8.528  0.00  0.00    +0.030 A 
ATOM     28  C   UNL     1      -1.835  -4.236  -9.576  0.00  0.00    +0.042 A 
ATOM     29  C   UNL     1      -0.472  -4.327  -9.832  0.00  0.00    +0.022 A 
ATOM     30  C   UNL     1       0.437  -3.665  -9.037  0.00  0.00    +0.027 A 
ATOM     31  C   UNL     1      -0.010  -2.899  -7.965  0.00  0.00    +0.047 A 
ATOM     32  N   UNL     1       0.629  -2.135  -7.013  0.00  0.00    -0.357 N 
ATOM     33  H   UNL     1       1.589  -2.012  -6.951  0.00  0.00    +0.166 HD
ATOM     34 CL   UNL     1      -2.960  -5.079 -10.594  0.00  0.00    -0.084 Cl
ENDBRANCH  23  24
ENDBRANCH  21  23
ENDBRANCH  18  19
ENDBRANCH   6  18
TORSDOF 6
