REMARK  Name = ZINC10039544
REMARK  12 active torsions:
REMARK  status: ('A' for Active; 'I' for Inactive)
REMARK    1  A    between atoms: C_1  and  C_2
REMARK    2  A    between atoms: C_5  and  N_8
REMARK    3  A    between atoms: C_9  and  C_11
REMARK    4  A    between atoms: C_11  and  C_13
REMARK    5  A    between atoms: C_11  and  S_14
REMARK    6  A    between atoms: S_14  and  C_15
REMARK    7  A    between atoms: C_20  and  N_24
REMARK    8  A    between atoms: C_25  and  C_27
REMARK    9  A    between atoms: C_30  and  O_35
REMARK   10  A    between atoms: C_31  and  O_33
REMARK   11  A    between atoms: O_33  and  C_34
REMARK   12  A    between atoms: O_35  and  C_36
REMARK                            x       y       z     vdW  Elec       q    Type
REMARK                         _______ _______ _______ _____ _____    ______ ____
ROOT
ATOM      1  C   UNL     1      -5.909   7.785   0.803  0.00  0.00    +0.136 A 
ATOM      2  N   UNL     1      -5.995   6.484   0.641  0.00  0.00    -0.233 NA
ATOM      3  C   UNL     1      -4.904   5.691   0.541  0.00  0.00    +0.080 A 
ATOM      4  C   UNL     1      -4.859   4.289   0.367  0.00  0.00    +0.031 A 
ATOM      5  C   UNL     1      -3.670   3.633   0.284  0.00  0.00    +0.025 A 
ATOM      6  C   UNL     1      -2.456   4.310   0.365  0.00  0.00    +0.035 A 
ATOM      7  C   UNL     1      -2.461   5.689   0.542  0.00  0.00    +0.040 A 
ATOM      8  C   UNL     1      -3.658   6.353   0.621  0.00  0.00    +0.042 A 
ATOM      9  S   UNL     1      -4.142   8.050   0.833  0.00  0.00    -0.061 S 
ENDROOT
BRANCH   6  10
ATOM     10  N   UNL     1      -1.246   3.611   0.277  0.00  0.00    -0.281 N 
ATOM     11  C   UNL     1      -0.168   4.198  -0.279  0.00  0.00    +0.248 C 
ATOM     12  O   UNL     1      -0.268   5.298  -0.786  0.00  0.00    -0.270 OA
ATOM     13  H   UNL     1      -1.184   2.704   0.615  0.00  0.00    +0.155 HD
BRANCH  11  14
ATOM     14  C   UNL     1       1.136   3.505  -0.271  0.00  0.00    +0.041 A 
ATOM     15  C   UNL     1       1.254   2.244   0.317  0.00  0.00    +0.017 A 
ATOM     16  C   UNL     1       2.473   1.601   0.329  0.00  0.00    +0.050 A 
ATOM     17  C   UNL     1       3.585   2.204  -0.243  0.00  0.00    +0.162 A 
ATOM     18  C   UNL     1       3.474   3.463  -0.831  0.00  0.00    +0.162 A 
ATOM     19  C   UNL     1       2.255   4.113  -0.846  0.00  0.00    +0.062 A 
BRANCH  18  20
ATOM     20  O   UNL     1       4.565   4.051  -1.391  0.00  0.00    -0.491 OA
ATOM     21  C   UNL     1       4.378   5.341  -1.976  0.00  0.00    +0.277 C 
ENDBRANCH  18  20
BRANCH  17  22
ATOM     22  O   UNL     1       4.784   1.566  -0.229  0.00  0.00    -0.491 OA
ATOM     23  C   UNL     1       4.827   0.279   0.391  0.00  0.00    +0.277 C 
ENDBRANCH  17  22
ENDBRANCH  11  14
ENDBRANCH   6  10
BRANCH   1  24
ATOM     24  S   UNL     1      -7.207   8.968   0.952  0.00  0.00    -0.086 S 
BRANCH  24  25
ATOM     25  C   UNL     1      -8.644   7.876   0.819  0.00  0.00    +0.136 C 
ATOM     26  C   UNL     1      -8.677   6.927   2.018  0.00  0.00    +0.029 C 
BRANCH  25  28
ATOM     27  N   UNL     1     -11.046   8.181   0.311  0.00  0.00    -0.285 N 
ATOM     28  C   UNL     1      -9.903   8.704   0.799  0.00  0.00    +0.230 C 
ATOM     29  O   UNL     1      -9.889   9.841   1.222  0.00  0.00    -0.274 OA
ATOM     30  H   UNL     1     -11.077   7.250   0.042  0.00  0.00    +0.155 HD
BRANCH  27  35
ATOM     31  C   UNL     1     -15.674  11.428  -0.169  0.00  0.00    +0.044 C 
ATOM     32  C   UNL     1     -14.444  10.565  -0.042  0.00  0.00    -0.050 A 
ATOM     33  C   UNL     1     -13.191  11.119  -0.225  0.00  0.00    +0.005 A 
ATOM     34  C   UNL     1     -12.062  10.332  -0.109  0.00  0.00    +0.023 A 
ATOM     35  C   UNL     1     -12.187   8.982   0.193  0.00  0.00    +0.033 A 
ATOM     36  C   UNL     1     -13.448   8.428   0.373  0.00  0.00    +0.023 A 
ATOM     37  C   UNL     1     -14.572   9.222   0.260  0.00  0.00    +0.005 A 
ENDBRANCH  27  35
ENDBRANCH  25  28
ENDBRANCH  24  25
ENDBRANCH   1  24
TORSDOF 8
