REMARK  Name = ZINC37616280
REMARK  6 active torsions:
REMARK  status: ('A' for Active; 'I' for Inactive)
REMARK    1  A    between atoms: C_4  and  C_6
REMARK    2  A    between atoms: C_4  and  N_23
REMARK    3  A    between atoms: N_8  and  C_9
REMARK    4  A    between atoms: C_14  and  O_17
REMARK    5  A    between atoms: O_17  and  C_18
REMARK    6  A    between atoms: C_18  and  C_19
REMARK                            x       y       z     vdW  Elec       q    Type
REMARK                         _______ _______ _______ _____ _____    ______ ____
ROOT
ATOM      1  C   UNL     1       1.946  -0.681  -1.426  0.00  0.00    +0.202 C 
ATOM      2  O   UNL     1       2.412   0.224  -2.086  0.00  0.00    -0.277 OA
ATOM      3  N   UNL     1       1.840  -1.915  -1.956  0.00  0.00    -0.314 N 
ATOM      4  H   UNL     1       1.468  -2.639  -1.429  0.00  0.00    +0.149 HD
ENDROOT
BRANCH   3   5
ATOM      5  C   UNL     1       2.287  -2.165  -3.329  0.00  0.00    +0.075 C 
ATOM      6  C   UNL     1       1.163  -1.809  -4.304  0.00  0.00    +0.022 C 
ATOM      7  C   UNL     1      -0.065  -2.671  -4.003  0.00  0.00    +0.004 C 
ATOM      8  C   UNL     1       0.299  -4.149  -4.161  0.00  0.00    +0.032 C 
ATOM      9  C   UNL     1       1.423  -4.505  -3.186  0.00  0.00    +0.120 C 
ATOM     10  C   UNL     1       2.651  -3.642  -3.486  0.00  0.00    +0.054 C 
BRANCH   9  11
ATOM     11  O   UNL     1       1.763  -5.885  -3.333  0.00  0.00    -0.368 OA
BRANCH  11  12
ATOM     12  C   UNL     1       1.016  -6.761  -2.487  0.00  0.00    +0.273 C 
BRANCH  12  13
ATOM     13  C   UNL     1       1.460  -8.205  -2.728  0.00  0.00    +0.413 C 
ATOM     14  F   UNL     1       2.824  -8.328  -2.438  0.00  0.00    -0.168 F 
ATOM     15  F   UNL     1       0.729  -9.062  -1.899  0.00  0.00    -0.168 F 
ATOM     16  F   UNL     1       1.235  -8.545  -4.066  0.00  0.00    -0.168 F 
ENDBRANCH  12  13
ENDBRANCH  11  12
ENDBRANCH   9  11
ENDBRANCH   3   5
BRANCH   1  20
ATOM     17  C   UNL     1      -0.019   1.534   0.011  0.00  0.00    -0.001 C 
ATOM     18  C   UNL     1       1.453   1.995  -0.001  0.00  0.00    -0.001 C 
ATOM     19  C   UNL     1       2.232   0.792   0.586  0.00  0.00    -0.004 C 
ATOM     20  C   UNL     1       1.486  -0.425  -0.014  0.00  0.00    +0.007 C 
ATOM     21  C   UNL     1       0.002  -0.004   0.002  0.00  0.00    -0.004 C 
BRANCH  20  22
ATOM     22  N   UNL     1       1.692  -1.617   0.819  0.00  0.00    +0.388 N 
ATOM     23  H   UNL     1       1.340  -1.442   1.748  0.00  0.00    -0.089 HD
ATOM     24  H   UNL     1       1.200  -2.399   0.414  0.00  0.00    -0.089 HD
ATOM     25  H   UNL     1       2.678  -1.827   0.867  0.00  0.00    -0.089 HD
ENDBRANCH  20  22
ENDBRANCH   1  20
TORSDOF 6
