REMARK  Name = ZINC64697771
REMARK  9 active torsions:
REMARK  status: ('A' for Active; 'I' for Inactive)
REMARK    1  A    between atoms: C_1  and  O_2
REMARK    2  A    between atoms: O_2  and  C_3
REMARK    3  A    between atoms: C_6  and  C_9
REMARK    4  A    between atoms: C_9  and  C_11
REMARK    5  A    between atoms: C_9  and  C_30
REMARK    6  A    between atoms: C_11  and  N_12
REMARK    7  A    between atoms: C_13  and  C_15
REMARK    8  A    between atoms: C_15  and  N_16
REMARK    9  A    between atoms: C_25  and  C_27
REMARK                            x       y       z     vdW  Elec       q    Type
REMARK                         _______ _______ _______ _____ _____    ______ ____
ROOT
ATOM      1  C   UNL     1       2.815  -2.331   6.235  0.00  0.00    +0.116 C 
ENDROOT
BRANCH   1   2
ATOM      2  N   UNL     1       3.182  -3.267   7.301  0.00  0.00    -0.313 N 
ATOM      3  C   UNL     1       2.277  -4.152   7.761  0.00  0.00    +0.227 C 
ATOM      4  O   UNL     1       1.158  -4.175   7.293  0.00  0.00    -0.274 OA
ATOM      5  H   UNL     1       4.077  -3.248   7.675  0.00  0.00    +0.149 HD
BRANCH   3   6
ATOM      6  C   UNL     1       2.654  -5.114   8.858  0.00  0.00    +0.181 C 
BRANCH   6   7
ATOM      7  N   UNL     1       1.502  -5.967   9.179  0.00  0.00    -0.278 NA
ATOM      8  C   UNL     1       0.481  -5.216   9.916  0.00  0.00    +0.121 C 
ATOM      9  C   UNL     1      -0.650  -6.124  10.324  0.00  0.00    -0.030 A 
ATOM     10  C   UNL     1      -1.858  -5.549  10.691  0.00  0.00    +0.005 A 
ATOM     11  C   UNL     1      -2.920  -6.343  11.076  0.00  0.00    +0.000 A 
ATOM     12  C   UNL     1      -2.779  -7.718  11.096  0.00  0.00    +0.000 A 
ATOM     13  C   UNL     1      -1.578  -8.291  10.729  0.00  0.00    +0.004 A 
ATOM     14  C   UNL     1      -0.512  -7.495  10.340  0.00  0.00    -0.041 A 
ATOM     15  C   UNL     1       0.777  -8.165   9.938  0.00  0.00    +0.063 C 
ATOM     16  C   UNL     1       1.919  -7.150   9.949  0.00  0.00    +0.148 C 
BRANCH  16  17
ATOM     17  C   UNL     1       3.145  -7.759   9.318  0.00  0.00    +0.228 C 
ATOM     18  O   UNL     1       3.282  -7.733   8.113  0.00  0.00    -0.274 OA
ATOM     19  N   UNL     1       4.088  -8.332  10.092  0.00  0.00    -0.328 N 
ATOM     20  H   UNL     1       3.978  -8.352  11.055  0.00  0.00    +0.145 HD
ATOM     21  H   UNL     1       4.876  -8.724   9.685  0.00  0.00    +0.145 HD
ENDBRANCH  16  17
ENDBRANCH   6   7
ENDBRANCH   3   6
ENDBRANCH   1   2
BRANCH   1  22
ATOM     22  C   UNL     1       4.015  -1.443   5.900  0.00  0.00    +0.064 C 
BRANCH  22  23
ATOM     23  C   UNL     1       5.122  -2.289   5.325  0.00  0.00    -0.033 C 
ATOM     24  C   UNL     1       6.368  -2.447   5.826  0.00  0.00    -0.000 A 
ATOM     25  C   UNL     1       7.041  -1.900   7.010  0.00  0.00    +0.010 A 
ATOM     26  C   UNL     1       8.325  -2.249   7.255  0.00  0.00    +0.001 A 
ATOM     27  C   UNL     1       9.026  -3.119   6.408  0.00  0.00    +0.002 A 
ATOM     28  C   UNL     1       8.476  -3.662   5.302  0.00  0.00    +0.026 A 
ATOM     29  C   UNL     1       7.131  -3.364   4.948  0.00  0.00    +0.043 A 
ATOM     30  N   UNL     1       6.385  -3.756   3.944  0.00  0.00    -0.380 N 
ATOM     31  C   UNL     1       5.061  -3.137   4.075  0.00  0.00    +0.145 C 
ATOM     32  H   UNL     1       6.661  -4.359   3.235  0.00  0.00    +0.160 HD
ENDBRANCH  22  23
BRANCH  22  36
ATOM     33  C   UNL     1       2.848   1.512   3.042  0.00  0.00    +0.120 A 
ATOM     34  C   UNL     1       3.334   1.899   4.282  0.00  0.00    +0.046 A 
ATOM     35  C   UNL     1       3.710   0.942   5.205  0.00  0.00    +0.008 A 
ATOM     36  C   UNL     1       3.603  -0.401   4.892  0.00  0.00    -0.038 A 
ATOM     37  C   UNL     1       3.120  -0.789   3.656  0.00  0.00    +0.008 A 
ATOM     38  C   UNL     1       2.737   0.164   2.733  0.00  0.00    +0.046 A 
BRANCH  33  40
ATOM     39  C   UNL     1       2.619   3.820   2.519  0.00  0.00    +0.277 C 
ATOM     40  O   UNL     1       2.477   2.451   2.133  0.00  0.00    -0.495 OA
ENDBRANCH  33  40
ENDBRANCH  22  36
ENDBRANCH   1  22
TORSDOF 8
