REMARK  Name = ZINC45654567
REMARK  7 active torsions:
REMARK  status: ('A' for Active; 'I' for Inactive)
REMARK    1  A    between atoms: C_1  and  C_2
REMARK    2  A    between atoms: C_2  and  C_3
REMARK    3  A    between atoms: C_2  and  N_4
REMARK    4  A    between atoms: C_7  and  N_10
REMARK    5  A    between atoms: N_10  and  C_11
REMARK    6  A    between atoms: C_14  and  S_18
REMARK    7  A    between atoms: S_18  and  N_21
REMARK                            x       y       z     vdW  Elec       q    Type
REMARK                         _______ _______ _______ _____ _____    ______ ____
ROOT
ATOM      1  C   UNL     1      -4.350  -1.841  -3.588  0.00  0.00    +0.042 A 
ATOM      2  C   UNL     1      -3.526  -2.821  -4.125  0.00  0.00    +0.026 A 
ATOM      3  C   UNL     1      -3.970  -3.592  -5.181  0.00  0.00    +0.030 A 
ATOM      4  C   UNL     1      -5.234  -3.391  -5.704  0.00  0.00    +0.106 A 
ATOM      5  C   UNL     1      -6.059  -2.416  -5.171  0.00  0.00    +0.045 A 
ATOM      6  C   UNL     1      -5.623  -1.644  -4.111  0.00  0.00    +0.041 A 
ATOM      7 BR   UNL     1      -6.753  -0.317  -3.379  0.00  0.00    -0.048 Br
ENDROOT
BRANCH   4   8
ATOM      8  S   UNL     1      -5.796  -4.377  -7.051  0.00  0.00    +0.056 S 
ATOM      9  O   UNL     1      -6.806  -3.626  -7.711  0.00  0.00    -0.153 OA
ATOM     10  O   UNL     1      -4.635  -4.848  -7.722  0.00  0.00    -0.153 OA
BRANCH   8  11
ATOM     11  N   UNL     1      -6.542  -5.708  -6.406  0.00  0.00    -0.204 NA
ATOM     12  H   UNL     1      -6.597  -5.814  -5.443  0.00  0.00    +0.144 HD
ATOM     13  H   UNL     1      -6.923  -6.381  -6.991  0.00  0.00    +0.144 HD
ENDBRANCH   8  11
ENDBRANCH   4   8
BRANCH   1  14
ATOM     14  N   UNL     1      -3.904  -1.059  -2.519  0.00  0.00    -0.342 N 
ATOM     15  H   UNL     1      -4.483  -0.377  -2.142  0.00  0.00    +0.146 HD
BRANCH  14  19
ATOM     16  N   UNL     1      -1.376  -0.512   0.012  0.00  0.00    +0.382 N 
ATOM     17  C   UNL     1      -1.361  -1.991  -0.017  0.00  0.00    -0.077 C 
ATOM     18  C   UNL     1      -2.580  -2.381  -0.889  0.00  0.00    +0.002 C 
ATOM     19  C   UNL     1      -2.563  -1.267  -1.969  0.00  0.00    +0.052 C 
ATOM     20  C   UNL     1      -2.093  -0.026  -1.181  0.00  0.00    -0.056 C 
ATOM     21  H   UNL     1      -1.849  -0.196   0.846  0.00  0.00    -0.081 HD
BRANCH  16  23
ATOM     22  C   UNL     1      -0.019   1.526   0.010  0.00  0.00    -0.014 C 
ATOM     23  C   UNL     1       0.002  -0.004   0.002  0.00  0.00    -0.075 C 
ATOM     24  C   UNL     1       0.742  -0.511   1.242  0.00  0.00    -0.014 C 
ENDBRANCH  16  23
ENDBRANCH  14  19
ENDBRANCH   1  14
TORSDOF 5
