REMARK  Name = ZINC05494253
REMARK  8 active torsions:
REMARK  status: ('A' for Active; 'I' for Inactive)
REMARK    1  A    between atoms: C_1  and  C_2
REMARK    2  A    between atoms: C_8  and  C_10
REMARK    3  A    between atoms: C_10  and  C_12
REMARK    4  A    between atoms: C_10  and  N_23
REMARK    5  A    between atoms: C_12  and  C_13
REMARK    6  A    between atoms: C_21  and  N_22
REMARK    7  A    between atoms: N_23  and  S_24
REMARK    8  A    between atoms: S_24  and  C_27
REMARK                            x       y       z     vdW  Elec       q    Type
REMARK                         _______ _______ _______ _____ _____    ______ ____
ROOT
ATOM      1  C   UNL     1      -0.164  -4.040   3.010  0.00  0.00    +0.167 C 
ENDROOT
BRANCH   1   9
ATOM      2  C   UNL     1      -0.369   2.022   1.274  0.00  0.00    +0.007 C 
ATOM      3  C   UNL     1      -0.167   0.542   0.942  0.00  0.00    -0.011 C 
ATOM      4  C   UNL     1      -1.524  -0.108   0.664  0.00  0.00    +0.022 C 
ATOM      5  C   UNL     1      -1.314  -1.581   0.299  0.00  0.00    +0.108 C 
ATOM      6  N   UNL     1      -0.542  -2.229   1.369  0.00  0.00    -0.300 N 
ATOM      7  C   UNL     1       0.737  -1.632   1.777  0.00  0.00    +0.108 C 
ATOM      8  C   UNL     1       0.504  -0.158   2.126  0.00  0.00    +0.022 C 
ATOM      9  C   UNL     1      -0.999  -3.348   1.964  0.00  0.00    +0.235 C 
ATOM     10  O   UNL     1      -2.082  -3.800   1.657  0.00  0.00    -0.274 OA
ENDBRANCH   1   9
BRANCH   1  11
ATOM     11  N   UNL     1      -0.953  -5.099   3.644  0.00  0.00    -0.178 NA
ATOM     12  H   UNL     1      -1.001  -5.978   3.235  0.00  0.00    +0.149 HD
BRANCH  11  13
ATOM     13  S   UNL     1      -1.762  -4.797   5.056  0.00  0.00    +0.059 S 
ATOM     14  O   UNL     1      -2.445  -5.995   5.398  0.00  0.00    -0.153 OA
ATOM     15  O   UNL     1      -0.832  -4.174   5.932  0.00  0.00    -0.153 OA
BRANCH  13  16
ATOM     16  C   UNL     1      -3.001  -3.595   4.700  0.00  0.00    +0.106 A 
ATOM     17  C   UNL     1      -2.696  -2.240   4.816  0.00  0.00    +0.029 A 
ATOM     18  C   UNL     1      -3.630  -1.287   4.549  0.00  0.00    +0.010 A 
ATOM     19  C   UNL     1      -4.921  -1.671   4.150  0.00  0.00    -0.018 A 
ATOM     20  C   UNL     1      -5.912  -0.715   3.865  0.00  0.00    +0.008 A 
ATOM     21  C   UNL     1      -7.151  -1.124   3.480  0.00  0.00    +0.001 A 
ATOM     22  C   UNL     1      -7.456  -2.479   3.364  0.00  0.00    +0.001 A 
ATOM     23  C   UNL     1      -6.522  -3.433   3.631  0.00  0.00    +0.008 A 
ATOM     24  C   UNL     1      -5.231  -3.049   4.031  0.00  0.00    -0.016 A 
ATOM     25  C   UNL     1      -4.239  -4.004   4.311  0.00  0.00    +0.037 A 
ENDBRANCH  13  16
ENDBRANCH  11  13
ENDBRANCH   1  11
BRANCH   1  26
ATOM     26  C   UNL     1       1.075  -4.650   2.352  0.00  0.00    +0.072 C 
BRANCH  26  27
ATOM     27  C   UNL     1       1.974  -5.229   3.414  0.00  0.00    -0.007 A 
ATOM     28  C   UNL     1       1.975  -6.474   3.914  0.00  0.00    +0.023 A 
ATOM     29  C   UNL     1       2.938  -6.826   4.944  0.00  0.00    +0.027 A 
ATOM     30  C   UNL     1       3.806  -5.778   5.323  0.00  0.00    +0.024 A 
ATOM     31  S   UNL     1       3.297  -4.424   4.300  0.00  0.00    -0.093 S 
ATOM     32  C   UNL     1       4.774  -5.970   6.291  0.00  0.00    +0.033 A 
ATOM     33  C   UNL     1       4.881  -7.200   6.883  0.00  0.00    +0.085 A 
ATOM     34  N   UNL     1       4.071  -8.188   6.533  0.00  0.00    -0.349 N 
ATOM     35  C   UNL     1       3.132  -8.061   5.618  0.00  0.00    +0.102 A 
ATOM     36  H   UNL     1       4.174  -9.046   6.972  0.00  0.00    +0.167 HD
BRANCH  35  37
ATOM     37  N   UNL     1       2.324  -9.146   5.309  0.00  0.00    -0.344 N 
ATOM     38  H   UNL     1       1.631  -9.059   4.636  0.00  0.00    +0.144 HD
ATOM     39  H   UNL     1       2.452  -9.992   5.767  0.00  0.00    +0.144 HD
ENDBRANCH  35  37
ENDBRANCH  26  27
ENDBRANCH   1  26
TORSDOF 7
