REMARK  Name = ZINC21362997
REMARK  9 active torsions:
REMARK  status: ('A' for Active; 'I' for Inactive)
REMARK    1  A    between atoms: C_1  and  C_2
REMARK    2  A    between atoms: C_3  and  N_9
REMARK    3  A    between atoms: N_9  and  C_10
REMARK    4  A    between atoms: C_10  and  N_12
REMARK    5  A    between atoms: N_12  and  C_13
REMARK    6  A    between atoms: C_13  and  C_14
REMARK    7  A    between atoms: C_14  and  C_16
REMARK    8  A    between atoms: C_14  and  N_21
REMARK    9  A    between atoms: N_24  and  C_27
REMARK                            x       y       z     vdW  Elec       q    Type
REMARK                         _______ _______ _______ _____ _____    ______ ____
ROOT
ATOM      1  C   UNL     1       2.799  -2.209  -1.596  0.00  0.00    +0.127 C 
ENDROOT
BRANCH   1   2
ATOM      2  N   UNL     1       3.131  -3.635  -1.540  0.00  0.00    -0.324 N 
ATOM      3  H   UNL     1       3.471  -4.084  -0.595  0.00  0.00    +0.148 HD
BRANCH   2   4
ATOM      4  C   UNL     1       3.019  -4.397  -2.646  0.00  0.00    +0.135 C 
ATOM      5  S   UNL     1       2.489  -3.699  -4.117  0.00  0.00    -0.019 S 
BRANCH   4   6
ATOM      6  N   UNL     1       3.324  -5.709  -2.594  0.00  0.00    -0.297 N 
ATOM      7  H   UNL     1       3.591  -6.174  -1.634  0.00  0.00    +0.154 HD
BRANCH   6  10
ATOM      8  C   UNL     1       5.532  -7.427  -3.115  0.00  0.00    +0.047 C 
ATOM      9  C   UNL     1       4.358  -7.330  -4.055  0.00  0.00    -0.011 A 
ATOM     10  C   UNL     1       3.301  -6.479  -3.762  0.00  0.00    +0.037 A 
ATOM     11  C   UNL     1       2.223  -6.389  -4.633  0.00  0.00    +0.023 A 
ATOM     12  C   UNL     1       2.203  -7.150  -5.786  0.00  0.00    +0.003 A 
ATOM     13  C   UNL     1       3.254  -8.001  -6.073  0.00  0.00    +0.020 A 
ATOM     14  C   UNL     1       4.330  -8.093  -5.207  0.00  0.00    +0.046 A 
ATOM     15 CL   UNL     1       5.647  -9.163  -5.572  0.00  0.00    -0.083 Cl
ENDBRANCH   6  10
ENDBRANCH   4   6
ENDBRANCH   2   4
ENDBRANCH   1   2
BRANCH   1  16
ATOM     16  C   UNL     1       3.010  -1.582  -0.217  0.00  0.00    +0.110 C 
BRANCH  16  17
ATOM     17  N   UNL     1       2.233  -2.325   0.784  0.00  0.00    -0.297 NA
ATOM     18  C   UNL     1       0.831  -2.463   0.365  0.00  0.00    +0.066 C 
ATOM     19  C   UNL     1       0.075  -3.309   1.393  0.00  0.00    -0.064 C 
ATOM     20  N   UNL     1       0.167  -2.670   2.713  0.00  0.00    +0.379 N 
ATOM     21  C   UNL     1       1.569  -2.532   3.131  0.00  0.00    -0.064 C 
ATOM     22  C   UNL     1       2.325  -1.686   2.104  0.00  0.00    +0.066 C 
ATOM     23  C   UNL     1      -0.610  -3.413   3.713  0.00  0.00    -0.096 C 
ATOM     24  H   UNL     1      -0.264  -1.661   2.632  0.00  0.00    -0.082 HD
ENDBRANCH  16  17
BRANCH  16  25
ATOM     25  C   UNL     1       2.553  -0.146  -0.243  0.00  0.00    +0.008 A 
ATOM     26  C   UNL     1       3.296   0.987  -0.200  0.00  0.00    +0.013 A 
ATOM     27  C   UNL     1       2.654   2.211  -0.236  0.00  0.00    +0.008 A 
ATOM     28  C   UNL     1       1.301   2.241  -0.313  0.00  0.00    +0.045 A 
ATOM     29  S   UNL     1       0.893   0.504  -0.336  0.00  0.00    -0.100 S 
ENDBRANCH  16  25
ENDBRANCH   1  16
TORSDOF 7
