REMARK  Name = ZINC09635910
REMARK  5 active torsions:
REMARK  status: ('A' for Active; 'I' for Inactive)
REMARK    1  A    between atoms: C_1  and  C_2
REMARK    2  A    between atoms: C_7  and  C_8
REMARK    3  A    between atoms: C_8  and  N_9
REMARK    4  A    between atoms: C_11  and  C_18
REMARK    5  A    between atoms: N_19  and  N_20
REMARK                            x       y       z     vdW  Elec       q    Type
REMARK                         _______ _______ _______ _____ _____    ______ ____
ROOT
ATOM      1  N   UNL     1      -3.177   7.246   0.024  0.00  0.00    -0.205 N 
ATOM      2  C   UNL     1      -2.354   8.354   0.042  0.00  0.00    +0.241 A 
ATOM      3  N   UNL     1      -1.033   8.200   0.078  0.00  0.00    -0.180 NA
ATOM      4  C   UNL     1      -0.241   9.267   0.091  0.00  0.00    +0.224 A 
ATOM      5  N   UNL     1      -0.768  10.487   0.079  0.00  0.00    -0.181 NA
ATOM      6  C   UNL     1      -2.088  10.641   0.049  0.00  0.00    +0.224 A 
ATOM      7  N   UNL     1      -2.881   9.575   0.031  0.00  0.00    -0.180 NA
ATOM      8  N   UNL     1      -2.635  11.908   0.037  0.00  0.00    -0.299 N 
ATOM      9  C   UNL     1      -2.162  12.697   1.182  0.00  0.00    +0.108 C 
ATOM     10  C   UNL     1      -2.671  14.135   1.058  0.00  0.00    +0.019 C 
ATOM     11  C   UNL     1      -4.201  14.128   1.017  0.00  0.00    +0.003 C 
ATOM     12  C   UNL     1      -4.669  13.261  -0.155  0.00  0.00    +0.019 C 
ATOM     13  C   UNL     1      -4.102  11.848   0.004  0.00  0.00    +0.108 C 
ATOM     14  N   UNL     1       1.130   9.108   0.121  0.00  0.00    -0.299 N 
ATOM     15  C   UNL     1       1.767   9.813  -0.998  0.00  0.00    +0.108 C 
ATOM     16  C   UNL     1       3.288   9.737  -0.851  0.00  0.00    +0.019 C 
ATOM     17  C   UNL     1       3.722   8.269  -0.835  0.00  0.00    +0.003 C 
ATOM     18  C   UNL     1       3.008   7.546   0.310  0.00  0.00    +0.019 C 
ATOM     19  C   UNL     1       1.494   7.685   0.130  0.00  0.00    +0.108 C 
ATOM     20  H   UNL     1      -4.141   7.359   0.002  0.00  0.00    +0.177 HD
ENDROOT
BRANCH   1  22
ATOM     21  C   UNL     1      -3.396   4.918   0.018  0.00  0.00    +0.140 C 
ATOM     22  N   UNL     1      -2.622   5.960   0.036  0.00  0.00    -0.187 NA
BRANCH  21  25
ATOM     23  N   UNL     1      -2.607   1.349   0.025  0.00  0.00    -0.342 N 
ATOM     24  C   UNL     1      -3.490   2.388   0.001  0.00  0.00    +0.096 A 
ATOM     25  C   UNL     1      -2.812   3.567   0.031  0.00  0.00    +0.020 A 
ATOM     26  C   UNL     1      -1.379   3.227   0.064  0.00  0.00    +0.009 A 
ATOM     27  C   UNL     1      -1.313   1.823   0.060  0.00  0.00    +0.050 A 
ATOM     28  C   UNL     1      -0.071   1.198   0.093  0.00  0.00    +0.026 A 
ATOM     29  C   UNL     1       1.079   1.956   0.119  0.00  0.00    +0.002 A 
ATOM     30  C   UNL     1       1.013   3.342   0.118  0.00  0.00    +0.001 A 
ATOM     31  C   UNL     1      -0.207   3.980   0.091  0.00  0.00    +0.010 A 
BRANCH  23  32
ATOM     32  C   UNL     1      -2.980  -0.068   0.014  0.00  0.00    +0.157 C 
BRANCH  32  39
ATOM     33  C   UNL     1      -5.234   0.147   1.809  0.00  0.00    +0.044 C 
ATOM     34  C   UNL     1      -3.964  -0.520   2.271  0.00  0.00    -0.046 A 
ATOM     35  C   UNL     1      -3.879  -1.032   3.552  0.00  0.00    +0.004 A 
ATOM     36  C   UNL     1      -2.712  -1.639   3.977  0.00  0.00    +0.000 A 
ATOM     37  C   UNL     1      -1.632  -1.738   3.120  0.00  0.00    +0.000 A 
ATOM     38  C   UNL     1      -1.718  -1.229   1.838  0.00  0.00    +0.005 A 
ATOM     39  C   UNL     1      -2.886  -0.623   1.412  0.00  0.00    -0.025 A 
ENDBRANCH  32  39
ENDBRANCH  23  32
ENDBRANCH  21  25
ENDBRANCH   1  22
TORSDOF 4
