REMARK  Name = ZINC00026124
REMARK  5 active torsions:
REMARK  status: ('A' for Active; 'I' for Inactive)
REMARK    1  A    between atoms: C_1  and  C_2
REMARK    2  A    between atoms: C_2  and  C_4
REMARK    3  A    between atoms: C_2  and  N_10
REMARK    4  A    between atoms: N_10  and  C_11
REMARK    5  A    between atoms: C_11  and  N_13
REMARK                            x       y       z     vdW  Elec       q    Type
REMARK                         _______ _______ _______ _____ _____    ______ ____
ROOT
ATOM      1  C   UNL     1       2.053  -0.602   1.173  0.00  0.00    +0.136 C 
ATOM      2  S   UNL     1       2.931  -0.173  -0.233  0.00  0.00    -0.019 S 
ENDROOT
BRANCH   1   3
ATOM      3  N   UNL     1       2.706  -1.046   2.266  0.00  0.00    -0.282 N 
ATOM      4  C   UNL     1       4.082  -1.260   2.217  0.00  0.00    +0.124 A 
ATOM      5  C   UNL     1       4.732  -1.818   3.312  0.00  0.00    +0.045 A 
ATOM      6  C   UNL     1       6.098  -2.025   3.251  0.00  0.00    +0.020 A 
ATOM      7  C   UNL     1       6.771  -1.664   2.090  0.00  0.00    +0.036 A 
ATOM      8  C   UNL     1       6.062  -1.114   1.040  0.00  0.00    +0.128 A 
ATOM      9  N   UNL     1       4.758  -0.933   1.126  0.00  0.00    -0.239 NA
ATOM     10 BR   UNL     1       8.639  -1.922   1.950  0.00  0.00    -0.049 Br
ATOM     11  H   UNL     1       2.217  -1.217   3.086  0.00  0.00    +0.155 HD
ENDBRANCH   1   3
BRANCH   1  12
ATOM     12  N   UNL     1       0.710  -0.496   1.187  0.00  0.00    -0.323 N 
ATOM     13  H   UNL     1       0.212  -0.739   1.983  0.00  0.00    +0.148 HD
BRANCH  12  15
ATOM     14  C   UNL     1      -0.025   1.516   0.007  0.00  0.00    +0.028 C 
ATOM     15  C   UNL     1       0.001  -0.013  -0.001  0.00  0.00    +0.072 C 
BRANCH  15  16
ATOM     16  C   UNL     1      -1.433  -0.547   0.009  0.00  0.00    +0.009 C 
ATOM     17  C   UNL     1      -1.407  -2.077   0.001  0.00  0.00    +0.005 C 
ATOM     18  C   UNL     1      -2.841  -2.611   0.011  0.00  0.00    +0.000 C 
ATOM     19  C   UNL     1      -3.582  -2.107  -1.229  0.00  0.00    +0.000 C 
ATOM     20  C   UNL     1      -3.607  -0.577  -1.222  0.00  0.00    +0.000 C 
ATOM     21  C   UNL     1      -2.173  -0.043  -1.231  0.00  0.00    +0.005 C 
ENDBRANCH  15  16
ENDBRANCH  12  15
ENDBRANCH   1  12
TORSDOF 4
