REMARK  Name = ZINC08377565
REMARK  8 active torsions:
REMARK  status: ('A' for Active; 'I' for Inactive)
REMARK    1  A    between atoms: C_6  and  C_7
REMARK    2  A    between atoms: C_7  and  C_9
REMARK    3  A    between atoms: C_7  and  N_41
REMARK    4  A    between atoms: C_9  and  C_11
REMARK    5  A    between atoms: C_9  and  C_15
REMARK    6  A    between atoms: C_11  and  N_37
REMARK    7  A    between atoms: C_12  and  N_37
REMARK    8  A    between atoms: C_17  and  N_41
REMARK                            x       y       z     vdW  Elec       q    Type
REMARK                         _______ _______ _______ _____ _____    ______ ____
ROOT
ATOM      1  C   UNL     1       3.501  -0.603  -0.208  0.00  0.00    -0.028 C 
ENDROOT
BRANCH   1   7
ATOM      2  C   UNL     1       1.122  -0.465  -0.972  0.00  0.00    +0.003 A 
ATOM      3  C   UNL     1      -0.027   0.255  -1.244  0.00  0.00    +0.021 A 
ATOM      4  C   UNL     1      -0.049   1.623  -1.046  0.00  0.00    +0.059 A 
ATOM      5  C   UNL     1       1.080   2.272  -0.576  0.00  0.00    +0.059 A 
ATOM      6  C   UNL     1       2.229   1.551  -0.304  0.00  0.00    +0.023 A 
ATOM      7  C   UNL     1       2.249   0.183  -0.503  0.00  0.00    -0.059 A 
ATOM      8 CL   UNL     1       1.054   3.990  -0.326  0.00  0.00    -0.082 Cl
ATOM      9 CL   UNL     1      -1.494   2.526  -1.380  0.00  0.00    -0.082 Cl
ENDBRANCH   1   7
BRANCH   1  10
ATOM     10  N   UNL     1       4.613  -0.090  -1.030  0.00  0.00    +0.386 N 
ATOM     11  H   UNL     1       4.334  -0.094  -2.018  0.00  0.00    -0.085 HD
ATOM     12  H   UNL     1       5.434  -0.693  -0.903  0.00  0.00    -0.085 HD
BRANCH  10  13
ATOM     13  C   UNL     1       4.955   1.288  -0.626  0.00  0.00    -0.071 C 
ATOM     14  C   UNL     1       4.819   2.384  -1.685  0.00  0.00    -0.017 C 
ATOM     15  C   UNL     1       6.207   1.907  -1.250  0.00  0.00    -0.017 C 
ENDBRANCH  10  13
ENDBRANCH   1  10
BRANCH   1  16
ATOM     16  C   UNL     1       3.850  -0.466   1.276  0.00  0.00    +0.075 C 
BRANCH  16  17
ATOM     17  C   UNL     1       2.715  -0.998   2.111  0.00  0.00    +0.356 C 
ATOM     18  O   UNL     1       1.727  -1.441   1.575  0.00  0.00    -0.246 OA
ATOM     19  O   UNL     1       2.800  -0.980   3.450  0.00  0.00    -0.246 OA
ENDBRANCH  16  17
BRANCH  16  20
ATOM     20  C   UNL     1       5.121  -1.263   1.576  0.00  0.00    -0.069 C 
BRANCH  20  21
ATOM     21  N   UNL     1       5.519  -1.030   2.977  0.00  0.00    +0.381 N 
ATOM     22  H   UNL     1       4.761  -1.334   3.599  0.00  0.00    -0.086 HD
ATOM     23  H   UNL     1       5.695  -0.028   3.116  0.00  0.00    -0.086 HD
BRANCH  21  24
ATOM     24  C   UNL     1       6.744  -1.788   3.294  0.00  0.00    -0.072 C 
ATOM     25  C   UNL     1       6.785  -2.523   4.636  0.00  0.00    -0.017 C 
ATOM     26  C   UNL     1       7.619  -1.257   4.431  0.00  0.00    -0.017 C 
ENDBRANCH  21  24
ENDBRANCH  20  21
ENDBRANCH  16  20
ENDBRANCH   1  16
TORSDOF 8
