REMARK  Name = ZINC10188452
REMARK  13 active torsions:
REMARK  status: ('A' for Active; 'I' for Inactive)
REMARK    1  A    between atoms: C_1  and  N_66
REMARK    2  A    between atoms: C_2  and  N_66
REMARK    3  A    between atoms: C_3  and  C_4
REMARK    4  A    between atoms: C_3  and  N_66
REMARK    5  A    between atoms: C_4  and  N_5
REMARK    6  A    between atoms: C_6  and  C_8
REMARK    7  A    between atoms: N_10  and  C_11
REMARK    8  A    between atoms: C_11  and  C_12
REMARK    9  A    between atoms: C_12  and  C_14
REMARK   10  A    between atoms: C_12  and  N_68
REMARK   11  A    between atoms: C_17  and  N_20
REMARK   12  A    between atoms: N_20  and  C_21
REMARK   13  A    between atoms: N_20  and  C_22
REMARK                            x       y       z     vdW  Elec       q    Type
REMARK                         _______ _______ _______ _____ _____    ______ ____
ROOT
ATOM      1  C   UNL     1      -0.827   2.200  -0.861  0.00  0.00    -0.020 C 
ENDROOT
BRANCH   1  11
ATOM      2  C   UNL     1       0.846   1.853   0.859  0.00  0.00    -0.073 C 
ATOM      3  C   UNL     1       1.128   0.998   2.094  0.00  0.00    +0.017 C 
ATOM      4  C   UNL     1       1.246  -0.452   1.700  0.00  0.00    -0.048 A 
ATOM      5  C   UNL     1       1.840  -1.334   2.591  0.00  0.00    +0.004 A 
ATOM      6  C   UNL     1       1.960  -2.671   2.272  0.00  0.00    +0.000 A 
ATOM      7  C   UNL     1       1.487  -3.135   1.059  0.00  0.00    +0.000 A 
ATOM      8  C   UNL     1       0.898  -2.258   0.171  0.00  0.00    +0.002 A 
ATOM      9  C   UNL     1       0.777  -0.913   0.488  0.00  0.00    -0.061 A 
ATOM     10  C   UNL     1       0.131   0.006  -0.515  0.00  0.00    -0.042 C 
ATOM     11  N   UNL     1      -0.298   1.250   0.144  0.00  0.00    +0.388 N 
ATOM     12  H   UNL     1      -1.039   1.033   0.821  0.00  0.00    -0.080 HD
ENDBRANCH   1  11
BRANCH   1  13
ATOM     13  C   UNL     1      -2.299   1.939  -1.047  0.00  0.00    -0.059 A 
ATOM     14  C   UNL     1      -2.833   0.715  -0.691  0.00  0.00    +0.004 A 
ATOM     15  C   UNL     1      -4.183   0.474  -0.855  0.00  0.00    +0.023 A 
ATOM     16  C   UNL     1      -5.003   1.460  -1.390  0.00  0.00    +0.029 A 
ATOM     17  C   UNL     1      -4.462   2.687  -1.752  0.00  0.00    +0.023 A 
ATOM     18  C   UNL     1      -3.112   2.923  -1.580  0.00  0.00    +0.004 A 
BRANCH  16  19
ATOM     19  N   UNL     1      -6.367   1.218  -1.563  0.00  0.00    -0.336 N 
ATOM     20  C   UNL     1      -7.214   2.225  -2.208  0.00  0.00    +0.129 C 
ATOM     21  C   UNL     1      -6.952  -0.042  -1.099  0.00  0.00    +0.129 C 
ENDBRANCH  16  19
ENDBRANCH   1  13
BRANCH   1  22
ATOM     22  C   UNL     1      -0.103   2.014  -2.196  0.00  0.00    +0.094 C 
BRANCH  22  25
ATOM     23  C   UNL     1       2.172   2.162  -3.057  0.00  0.00    +0.299 C 
ATOM     24  O   UNL     1       1.768   1.729  -4.116  0.00  0.00    -0.265 OA
ATOM     25  N   UNL     1       1.316   2.341  -2.032  0.00  0.00    -0.309 N 
ATOM     26  H   UNL     1       1.639   2.688  -1.185  0.00  0.00    +0.149 HD
BRANCH  23  28
ATOM     27  N   UNL     1       4.475   2.316  -3.915  0.00  0.00    -0.309 N 
ATOM     28  C   UNL     1       3.619   2.495  -2.890  0.00  0.00    +0.299 C 
ATOM     29  O   UNL     1       4.023   2.928  -1.831  0.00  0.00    -0.265 OA
ATOM     30  H   UNL     1       4.152   1.970  -4.762  0.00  0.00    +0.149 HD
BRANCH  27  31
ATOM     31  C   UNL     1       5.894   2.643  -3.751  0.00  0.00    +0.086 C 
BRANCH  31  32
ATOM     32  C   UNL     1       6.639   2.349  -5.055  0.00  0.00    -0.061 C 
BRANCH  32  35
ATOM     33  C   UNL     1       8.698   1.783  -3.914  0.00  0.00    -0.097 C 
ATOM     34  C   UNL     1       8.764   2.634  -6.180  0.00  0.00    -0.097 C 
ATOM     35  N   UNL     1       8.063   2.704  -4.880  0.00  0.00    +0.377 N 
ATOM     36  H   UNL     1       8.126   3.662  -4.518  0.00  0.00    -0.083 HD
ENDBRANCH  32  35
ENDBRANCH  31  32
ENDBRANCH  27  31
ENDBRANCH  23  28
ENDBRANCH  22  25
ENDBRANCH   1  22
TORSDOF 9
