REMARK  Name = ZINC40824356
REMARK  5 active torsions:
REMARK  status: ('A' for Active; 'I' for Inactive)
REMARK    1  A    between atoms: C_1  and  C_2
REMARK    2  A    between atoms: C_2  and  N_3
REMARK    3  A    between atoms: C_9  and  C_11
REMARK    4  A    between atoms: C_12  and  C_25
REMARK    5  A    between atoms: N_20  and  N_21
REMARK                            x       y       z     vdW  Elec       q    Type
REMARK                         _______ _______ _______ _____ _____    ______ ____
ROOT
ATOM      1  C   UNL     1       3.424  -4.152  -3.079  0.00  0.00    +0.193 A 
ATOM      2  C   UNL     1       4.406  -5.086  -3.259  0.00  0.00    +0.009 A 
ATOM      3  C   UNL     1       3.761  -6.329  -3.302  0.00  0.00    +0.042 A 
ATOM      4  C   UNL     1       2.415  -6.101  -3.148  0.00  0.00    +0.115 A 
ATOM      5  O   UNL     1       2.233  -4.790  -3.008  0.00  0.00    -0.454 OA
ATOM      6  C   UNL     1       1.390  -7.207  -3.146  0.00  0.00    +0.075 C 
ATOM      7  C   UNL     1       1.978  -8.445  -3.830  0.00  0.00    +0.014 C 
ATOM      8  C   UNL     1       3.323  -8.822  -3.202  0.00  0.00    +0.058 C 
ATOM      9  C   UNL     1       4.308  -7.694  -3.473  0.00  0.00    +0.070 C 
ATOM     10  N   UNL     1       5.537  -7.912  -3.826  0.00  0.00    -0.183 NA
ATOM     11  C   UNL     1       5.885  -4.830  -3.388  0.00  0.00    +0.048 C 
ENDROOT
BRANCH   1  18
ATOM     12  N   UNL     1       0.602  -0.101  -3.860  0.00  0.00    +0.382 N 
ATOM     13  C   UNL     1       0.542  -1.511  -4.266  0.00  0.00    -0.060 C 
ATOM     14  C   UNL     1       1.206  -2.380  -3.192  0.00  0.00    +0.089 C 
ATOM     15  N   UNL     1       2.566  -1.873  -2.958  0.00  0.00    -0.299 N 
ATOM     16  C   UNL     1       2.736  -0.434  -2.704  0.00  0.00    +0.089 C 
ATOM     17  C   UNL     1       2.001   0.343  -3.801  0.00  0.00    -0.060 C 
ATOM     18  C   UNL     1       3.628  -2.703  -2.974  0.00  0.00    +0.282 C 
ATOM     19  O   UNL     1       4.755  -2.251  -2.902  0.00  0.00    -0.267 OA
ATOM     20  H   UNL     1       0.179   0.003  -2.950  0.00  0.00    -0.082 HD
BRANCH  12  22
ATOM     21  C   UNL     1      -1.612   0.342  -4.808  0.00  0.00    -0.017 C 
ATOM     22  C   UNL     1      -0.129   0.719  -4.835  0.00  0.00    -0.082 C 
ENDBRANCH  12  22
ENDBRANCH   1  18
BRANCH  10  23
ATOM     23  N   UNL     1       6.000  -9.226  -3.973  0.00  0.00    -0.191 N 
ATOM     24  C   UNL     1       7.277  -9.453  -4.340  0.00  0.00    +0.317 C 
ATOM     25  O   UNL     1       7.679 -10.594  -4.467  0.00  0.00    -0.251 OA
ATOM     26  N   UNL     1       8.107  -8.416  -4.567  0.00  0.00    -0.312 N 
ATOM     27  H   UNL     1       5.402  -9.972  -3.809  0.00  0.00    +0.179 HD
ATOM     28  H   UNL     1       7.786  -7.507  -4.466  0.00  0.00    +0.147 HD
ATOM     29  H   UNL     1       9.026  -8.580  -4.832  0.00  0.00    +0.147 HD
ENDBRANCH  10  23
TORSDOF 3
