REMARK  Name = ZINC66242476
REMARK  10 active torsions:
REMARK  status: ('A' for Active; 'I' for Inactive)
REMARK    1  A    between atoms: C_1  and  C_2
REMARK    2  A    between atoms: C_2  and  N_3
REMARK    3  A    between atoms: N_3  and  C_4
REMARK    4  A    between atoms: N_3  and  C_6
REMARK    5  A    between atoms: C_4  and  C_5
REMARK    6  A    between atoms: C_6  and  C_8
REMARK    7  A    between atoms: C_6  and  C_20
REMARK    8  A    between atoms: C_8  and  N_9
REMARK    9  A    between atoms: N_11  and  C_12
REMARK   10  A    between atoms: C_12  and  C_13
REMARK                            x       y       z     vdW  Elec       q    Type
REMARK                         _______ _______ _______ _____ _____    ______ ____
ROOT
ATOM      1  C   UNL     1      -3.094   0.233   1.638  0.00  0.00    +0.105 C 
ENDROOT
BRANCH   1   2
ATOM      2  N   UNL     1      -2.100   1.168   2.172  0.00  0.00    -0.359 N 
ATOM      3  C   UNL     1      -2.508   2.294   2.846  0.00  0.00    +0.169 C 
ATOM      4  N   UNL     1      -1.624   3.126   3.321  0.00  0.00    -0.355 N 
ATOM      5  N   UNL     1      -3.849   2.543   3.020  0.00  0.00    -0.371 N 
ATOM      6  H   UNL     1      -1.154   0.992   2.049  0.00  0.00    +0.162 HD
ATOM      7  H   UNL     1      -4.507   1.924   2.667  0.00  0.00    +0.159 HD
ATOM      8  H   UNL     1      -4.137   3.337   3.496  0.00  0.00    +0.159 HD
ATOM      9  H   UNL     1      -0.678   2.950   3.199  0.00  0.00    +0.162 HD
BRANCH   4  10
ATOM     10  C   UNL     1      -2.059   4.326   4.040  0.00  0.00    +0.147 C 
BRANCH  10  11
ATOM     11  C   UNL     1      -0.834   5.124   4.489  0.00  0.00    +0.137 C 
ATOM     12  C   UNL     1      -1.271   6.381   5.282  0.00  0.00    +0.035 C 
ATOM     13  C   UNL     1      -0.006   6.641   6.144  0.00  0.00    +0.031 C 
ATOM     14  C   UNL     1       0.503   5.210   6.419  0.00  0.00    +0.160 C 
ATOM     15  O   UNL     1      -0.045   4.353   5.409  0.00  0.00    -0.375 OA
ENDBRANCH  10  11
ENDBRANCH   4  10
ENDBRANCH   1   2
BRANCH   1  16
ATOM     16  C   UNL     1      -2.382  -0.985   1.046  0.00  0.00    -0.017 C 
BRANCH  16  17
ATOM     17  C   UNL     1      -3.403  -1.940   0.484  0.00  0.00    -0.041 A 
ATOM     18  C   UNL     1      -3.676  -1.941  -0.871  0.00  0.00    +0.003 A 
ATOM     19  C   UNL     1      -4.612  -2.816  -1.387  0.00  0.00    +0.000 A 
ATOM     20  C   UNL     1      -5.277  -3.692  -0.549  0.00  0.00    +0.001 A 
ATOM     21  C   UNL     1      -5.006  -3.692   0.806  0.00  0.00    +0.020 A 
ATOM     22  C   UNL     1      -4.064  -2.819   1.323  0.00  0.00    +0.043 A 
ATOM     23 CL   UNL     1      -3.717  -2.823   3.024  0.00  0.00    -0.083 Cl
ENDBRANCH  16  17
BRANCH  16  24
ATOM     24  N   UNL     1      -1.476  -0.550  -0.025  0.00  0.00    +0.385 N 
ATOM     25  H   UNL     1      -0.723  -0.007   0.371  0.00  0.00    -0.081 HD
BRANCH  24  27
ATOM     26  C   UNL     1      -0.024  -2.502   0.258  0.00  0.00    -0.017 C 
ATOM     27  C   UNL     1      -0.923  -1.728  -0.708  0.00  0.00    -0.081 C 
ENDBRANCH  24  27
BRANCH  24  28
ATOM     28  C   UNL     1      -2.218   0.272  -0.990  0.00  0.00    -0.081 C 
ATOM     29  C   UNL     1      -1.844   1.743  -0.800  0.00  0.00    -0.017 C 
ENDBRANCH  24  28
ENDBRANCH  16  24
ENDBRANCH   1  16
TORSDOF 8
