REMARK  Name = ZINC06410282
REMARK  13 active torsions:
REMARK  status: ('A' for Active; 'I' for Inactive)
REMARK    1  A    between atoms: C_1  and  C_2
REMARK    2  A    between atoms: C_7  and  C_15
REMARK    3  A    between atoms: C_13  and  C_14
REMARK    4  A    between atoms: C_15  and  C_17
REMARK    5  A    between atoms: C_15  and  N_69
REMARK    6  A    between atoms: N_21  and  C_22
REMARK    7  A    between atoms: C_22  and  C_23
REMARK    8  A    between atoms: C_22  and  C_24
REMARK    9  A    between atoms: C_22  and  C_25
REMARK   10  A    between atoms: C_26  and  C_27
REMARK   11  A    between atoms: C_26  and  N_69
REMARK   12  A    between atoms: C_34  and  C_35
REMARK   13  A    between atoms: C_34  and  N_69
REMARK                            x       y       z     vdW  Elec       q    Type
REMARK                         _______ _______ _______ _____ _____    ______ ____
ROOT
ATOM      1  C   UNL     1       4.950   1.652   0.395  0.00  0.00    +0.040 C 
ENDROOT
BRANCH   1   8
ATOM      2  C   UNL     1       0.000   7.614   2.287  0.00  0.00    +0.044 C 
ATOM      3  C   UNL     1       0.752   6.347   1.967  0.00  0.00    -0.046 A 
ATOM      4  C   UNL     1       0.098   5.124   2.035  0.00  0.00    +0.004 A 
ATOM      5  C   UNL     1       0.763   3.964   1.755  0.00  0.00    +0.010 A 
ATOM      6  C   UNL     1       2.112   4.009   1.386  0.00  0.00    -0.001 A 
ATOM      7  C   UNL     1       2.853   2.786   1.074  0.00  0.00    +0.017 A 
ATOM      8  C   UNL     1       4.158   2.891   0.723  0.00  0.00    +0.011 A 
ATOM      9  C   UNL     1       4.779   4.158   0.664  0.00  0.00    +0.251 A 
ATOM     10  O   UNL     1       5.953   4.230   0.346  0.00  0.00    -0.268 OA
ATOM     11  N   UNL     1       4.106   5.287   0.949  0.00  0.00    -0.322 N 
ATOM     12  H   UNL     1       4.563   6.141   0.897  0.00  0.00    +0.169 HD
ATOM     13  C   UNL     1       2.777   5.248   1.312  0.00  0.00    +0.052 A 
ATOM     14  C   UNL     1       2.081   6.415   1.607  0.00  0.00    -0.024 A 
ATOM     15  C   UNL     1       2.777   7.750   1.534  0.00  0.00    +0.046 C 
ENDBRANCH   1   8
BRANCH   1  16
ATOM     16  C   UNL     1       5.377   1.696  -1.050  0.00  0.00    +0.143 A 
ATOM     17  N   UNL     1       6.273   2.495  -1.576  0.00  0.00    -0.115 NA
ATOM     18  N   UNL     1       6.356   2.227  -2.834  0.00  0.00    -0.023 NA
ATOM     19  N   UNL     1       5.535   1.278  -3.123  0.00  0.00    -0.043 NA
ATOM     20  N   UNL     1       4.918   0.920  -2.048  0.00  0.00    -0.225 N 
BRANCH  20  21
ATOM     21  C   UNL     1       3.904  -0.132  -1.936  0.00  0.00    +0.059 C 
ATOM     22  C   UNL     1       2.617   0.460  -1.357  0.00  0.00    +0.036 C 
ATOM     23  C   UNL     1       3.618  -0.714  -3.322  0.00  0.00    +0.036 C 
ATOM     24  C   UNL     1       4.417  -1.239  -1.013  0.00  0.00    +0.036 C 
ENDBRANCH  20  21
ENDBRANCH   1  16
BRANCH   1  25
ATOM     25  N   UNL     1       6.157   1.609   1.248  0.00  0.00    +0.397 N 
ATOM     26  H   UNL     1       6.793   2.362   0.963  0.00  0.00    -0.079 HD
BRANCH  25  27
ATOM     27  C   UNL     1       5.781   1.805   2.664  0.00  0.00    -0.041 C 
BRANCH  27  28
ATOM     28  C   UNL     1       7.021   2.147   3.450  0.00  0.00    -0.064 A 
ATOM     29  C   UNL     1       7.742   1.145   4.072  0.00  0.00    +0.003 A 
ATOM     30  C   UNL     1       8.883   1.456   4.788  0.00  0.00    +0.020 A 
ATOM     31  C   UNL     1       9.296   2.772   4.891  0.00  0.00    +0.041 A 
ATOM     32  C   UNL     1       8.571   3.775   4.273  0.00  0.00    +0.020 A 
ATOM     33  C   UNL     1       7.434   3.462   3.553  0.00  0.00    +0.003 A 
ATOM     34 CL   UNL     1      10.725   3.166   5.796  0.00  0.00    -0.084 Cl
ENDBRANCH  27  28
ENDBRANCH  25  27
BRANCH  25  35
ATOM     35  C   UNL     1       6.845   0.311   1.083  0.00  0.00    -0.001 C 
BRANCH  35  36
ATOM     36  C   UNL     1       7.644   0.348  -0.194  0.00  0.00    +0.089 A 
ATOM     37  C   UNL     1       8.867   0.890  -0.342  0.00  0.00    +0.042 A 
ATOM     38  C   UNL     1       9.237   0.703  -1.693  0.00  0.00    +0.041 A 
ATOM     39  C   UNL     1       8.219   0.058  -2.291  0.00  0.00    +0.195 A 
ATOM     40  O   UNL     1       7.260  -0.160  -1.376  0.00  0.00    -0.470 OA
ENDBRANCH  35  36
ENDBRANCH  25  35
ENDBRANCH   1  25
TORSDOF 8
