REMARK  Name = ZINC41605664
REMARK  10 active torsions:
REMARK  status: ('A' for Active; 'I' for Inactive)
REMARK    1  A    between atoms: C_1  and  C_2
REMARK    2  A    between atoms: C_2  and  N_3
REMARK    3  A    between atoms: N_3  and  C_4
REMARK    4  A    between atoms: N_3  and  C_6
REMARK    5  A    between atoms: C_4  and  C_5
REMARK    6  A    between atoms: C_6  and  C_8
REMARK    7  A    between atoms: C_6  and  C_9
REMARK    8  A    between atoms: C_9  and  N_10
REMARK    9  A    between atoms: C_11  and  C_13
REMARK   10  A    between atoms: N_15  and  C_16
REMARK                            x       y       z     vdW  Elec       q    Type
REMARK                         _______ _______ _______ _____ _____    ______ ____
ROOT
ATOM      1  C   UNL     1      -6.279  -1.403  -1.800  0.00  0.00    +0.303 C 
ATOM      2  O   UNL     1      -5.805  -0.832  -2.761  0.00  0.00    -0.265 OA
ATOM      3  N   UNL     1      -7.615  -1.541  -1.690  0.00  0.00    -0.276 N 
ATOM      4  H   UNL     1      -7.997  -1.931  -0.889  0.00  0.00    +0.155 HD
ENDROOT
BRANCH   3   5
ATOM      5  C   UNL     1      -8.449  -1.123  -2.731  0.00  0.00    +0.056 A 
ATOM      6  C   UNL     1      -8.036  -0.108  -3.586  0.00  0.00    +0.072 A 
ATOM      7  C   UNL     1      -8.864   0.304  -4.615  0.00  0.00    +0.144 A 
ATOM      8  C   UNL     1     -10.109  -0.299  -4.791  0.00  0.00    +0.077 A 
ATOM      9  C   UNL     1     -10.518  -1.310  -3.938  0.00  0.00    +0.048 A 
ATOM     10  C   UNL     1      -9.688  -1.726  -2.913  0.00  0.00    +0.064 A 
ATOM     11 CL   UNL     1     -10.197  -2.998  -1.847  0.00  0.00    -0.082 Cl
ATOM     12  N   UNL     1     -10.937   0.133  -5.839  0.00  0.00    -0.280 N 
ATOM     13  C   UNL     1     -10.403   0.879  -6.830  0.00  0.00    +0.255 C 
ATOM     14  O   UNL     1     -11.106   1.288  -7.730  0.00  0.00    -0.272 OA
ATOM     15  C   UNL     1      -8.931   1.202  -6.814  0.00  0.00    +0.325 C 
ATOM     16  O   UNL     1      -8.475   1.295  -5.462  0.00  0.00    -0.481 OA
ATOM     17  H   UNL     1     -11.878  -0.102  -5.851  0.00  0.00    +0.155 HD
ENDBRANCH   3   5
BRANCH   1  19
ATOM     18  N   UNL     1      -4.045  -1.813  -0.851  0.00  0.00    -0.309 N 
ATOM     19  C   UNL     1      -5.381  -1.951  -0.741  0.00  0.00    +0.299 C 
ATOM     20  O   UNL     1      -5.855  -2.522   0.220  0.00  0.00    -0.265 OA
ATOM     21  H   UNL     1      -3.666  -1.357  -1.619  0.00  0.00    +0.149 HD
BRANCH  18  22
ATOM     22  C   UNL     1      -3.164  -2.352   0.189  0.00  0.00    +0.089 C 
BRANCH  22  23
ATOM     23  C   UNL     1      -1.718  -1.952  -0.110  0.00  0.00    -0.054 C 
ATOM     24  C   UNL     1      -0.810  -2.439   1.020  0.00  0.00    -0.012 C 
BRANCH  23  25
ATOM     25  N   UNL     1      -1.626  -0.490  -0.217  0.00  0.00    +0.382 N 
ATOM     26  H   UNL     1      -2.263  -0.163  -0.928  0.00  0.00    -0.081 HD
BRANCH  25  28
ATOM     27  C   UNL     1      -2.023   1.641   0.925  0.00  0.00    -0.017 C 
ATOM     28  C   UNL     1      -1.979   0.118   1.073  0.00  0.00    -0.082 C 
ENDBRANCH  25  28
BRANCH  25  29
ATOM     29  C   UNL     1      -0.254  -0.110  -0.578  0.00  0.00    -0.082 C 
ATOM     30  C   UNL     1       0.069  -0.635  -1.978  0.00  0.00    -0.017 C 
ENDBRANCH  25  29
ENDBRANCH  23  25
ENDBRANCH  22  23
ENDBRANCH  18  22
ENDBRANCH   1  19
TORSDOF 7
