REMARK  Name = ZINC37172269
REMARK  10 active torsions:
REMARK  status: ('A' for Active; 'I' for Inactive)
REMARK    1  A    between atoms: C_1  and  C_2
REMARK    2  A    between atoms: C_2  and  C_3
REMARK    3  A    between atoms: C_3  and  C_5
REMARK    4  A    between atoms: C_3  and  C_6
REMARK    5  A    between atoms: C_6  and  N_7
REMARK    6  A    between atoms: N_7  and  C_8
REMARK    7  A    between atoms: N_7  and  C_9
REMARK    8  A    between atoms: C_9  and  C_10
REMARK    9  A    between atoms: N_12  and  C_13
REMARK   10  A    between atoms: C_16  and  N_20
REMARK                            x       y       z     vdW  Elec       q    Type
REMARK                         _______ _______ _______ _____ _____    ______ ____
ROOT
ATOM      1  C   UNL     1       1.285  -5.202  -3.836  0.00  0.00    +0.201 C 
ATOM      2  O   UNL     1       0.700  -5.011  -4.882  0.00  0.00    -0.278 OA
ATOM      3  N   UNL     1       2.517  -5.748  -3.843  0.00  0.00    -0.285 N 
ATOM      4  H   UNL     1       3.014  -5.834  -3.014  0.00  0.00    +0.155 HD
ENDROOT
BRANCH   3   5
ATOM      5  C   UNL     1       3.080  -6.193  -5.048  0.00  0.00    +0.070 A 
ATOM      6  C   UNL     1       3.861  -5.332  -5.809  0.00  0.00    +0.065 A 
ATOM      7  C   UNL     1       4.415  -5.771  -6.996  0.00  0.00    +0.044 A 
ATOM      8  C   UNL     1       4.193  -7.072  -7.428  0.00  0.00    +0.027 A 
ATOM      9  C   UNL     1       3.412  -7.932  -6.668  0.00  0.00    +0.044 A 
ATOM     10  C   UNL     1       2.862  -7.496  -5.477  0.00  0.00    +0.065 A 
ATOM     11 CL   UNL     1       1.892  -8.574  -4.523  0.00  0.00    -0.082 Cl
ATOM     12 CL   UNL     1       4.138  -3.706  -5.269  0.00  0.00    -0.082 Cl
BRANCH   8  13
ATOM     13  N   UNL     1       4.755  -7.515  -8.630  0.00  0.00    -0.358 N 
ATOM     14  H   UNL     1       5.300  -6.914  -9.162  0.00  0.00    +0.142 HD
ATOM     15  H   UNL     1       4.599  -8.424  -8.932  0.00  0.00    +0.142 HD
ENDBRANCH   8  13
ENDBRANCH   3   5
BRANCH   1  16
ATOM     16  C   UNL     1       0.633  -4.828  -2.530  0.00  0.00    +0.018 C 
BRANCH  16  17
ATOM     17  N   UNL     1      -0.695  -4.257  -2.790  0.00  0.00    +0.384 N 
ATOM     18  C   UNL     1      -0.549  -2.994  -3.527  0.00  0.00    -0.096 C 
ATOM     19  H   UNL     1      -1.238  -4.906  -3.339  0.00  0.00    -0.082 HD
BRANCH  17  20
ATOM     20  C   UNL     1      -1.377  -4.003  -1.515  0.00  0.00    -0.075 C 
BRANCH  20  21
ATOM     21  C   UNL     1      -2.805  -3.525  -1.787  0.00  0.00    -0.031 C 
ATOM     22  C   UNL     1      -3.600  -4.649  -2.455  0.00  0.00    +0.005 C 
BRANCH  21  24
ATOM     23  C   UNL     1      -4.857  -2.548  -0.748  0.00  0.00    +0.004 C 
ATOM     24  C   UNL     1      -3.475  -3.142  -0.466  0.00  0.00    -0.002 C 
ENDBRANCH  21  24
ENDBRANCH  20  21
ENDBRANCH  17  20
ENDBRANCH  16  17
ENDBRANCH   1  16
TORSDOF 7
