REMARK  Name = ZINC66214299
REMARK  7 active torsions:
REMARK  status: ('A' for Active; 'I' for Inactive)
REMARK    1  A    between atoms: C_3  and  N_15
REMARK    2  A    between atoms: C_5  and  N_7
REMARK    3  A    between atoms: C_8  and  C_10
REMARK    4  A    between atoms: C_16  and  C_18
REMARK    5  A    between atoms: C_18  and  N_19
REMARK    6  A    between atoms: N_19  and  C_20
REMARK    7  A    between atoms: C_20  and  C_21
REMARK                            x       y       z     vdW  Elec       q    Type
REMARK                         _______ _______ _______ _____ _____    ______ ____
ROOT
ATOM      1  C   UNL     1       0.165   1.050  -0.753  0.00  0.00    +0.004 A 
ATOM      2  C   UNL     1       1.314   1.817  -0.723  0.00  0.00    +0.023 A 
ATOM      3  C   UNL     1       2.381   1.441   0.085  0.00  0.00    +0.035 A 
ATOM      4  C   UNL     1       2.291   0.295   0.861  0.00  0.00    +0.046 A 
ATOM      5  C   UNL     1       1.136  -0.473   0.829  0.00  0.00    +0.036 A 
ATOM      6  C   UNL     1       0.073  -0.092   0.019  0.00  0.00    +0.023 A 
ENDROOT
BRANCH   5   7
ATOM      7  N   UNL     1       1.042  -1.629   1.610  0.00  0.00    -0.279 N 
ATOM      8  C   UNL     1       1.655  -1.684   2.809  0.00  0.00    +0.284 C 
ATOM      9  O   UNL     1       2.212  -0.697   3.254  0.00  0.00    -0.266 OA
ATOM     10  H   UNL     1       0.535  -2.391   1.289  0.00  0.00    +0.155 HD
BRANCH   8  11
ATOM     11  C   UNL     1       1.653  -2.933   3.577  0.00  0.00    +0.189 A 
ATOM     12  C   UNL     1       2.229  -3.124   4.800  0.00  0.00    +0.054 A 
ATOM     13  C   UNL     1       1.984  -4.459   5.157  0.00  0.00    +0.042 A 
ATOM     14  C   UNL     1       1.278  -5.018   4.149  0.00  0.00    +0.196 A 
ATOM     15  O   UNL     1       1.077  -4.094   3.201  0.00  0.00    -0.458 OA
ENDBRANCH   8  11
ENDBRANCH   5   7
BRANCH   3  16
ATOM     16  N   UNL     1       3.544   2.218   0.114  0.00  0.00    -0.287 N 
ATOM     17  C   UNL     1       3.461   3.560   0.024  0.00  0.00    +0.200 C 
ATOM     18  O   UNL     1       2.386   4.090  -0.167  0.00  0.00    -0.278 OA
ATOM     19  H   UNL     1       4.411   1.790   0.199  0.00  0.00    +0.155 HD
BRANCH  17  20
ATOM     20  C   UNL     1       4.703   4.403   0.160  0.00  0.00    +0.015 C 
BRANCH  20  21
ATOM     21  N   UNL     1       4.348   5.822   0.025  0.00  0.00    +0.386 N 
ATOM     22  H   UNL     1       3.932   5.981  -0.880  0.00  0.00    -0.085 HD
ATOM     23  H   UNL     1       3.690   6.075   0.747  0.00  0.00    -0.085 HD
BRANCH  21  24
ATOM     24  C   UNL     1       5.559   6.644   0.158  0.00  0.00    -0.050 C 
BRANCH  24  25
ATOM     25  C   UNL     1       5.190   8.122   0.018  0.00  0.00    +0.101 C 
ATOM     26  C   UNL     1       6.459   9.005   0.120  0.00  0.00    +0.032 C 
ATOM     27  C   UNL     1       6.002  10.269  -0.660  0.00  0.00    +0.030 C 
ATOM     28  C   UNL     1       5.086   9.669  -1.748  0.00  0.00    +0.160 C 
ATOM     29  O   UNL     1       4.655   8.380  -1.290  0.00  0.00    -0.378 OA
ENDBRANCH  24  25
ENDBRANCH  21  24
ENDBRANCH  20  21
ENDBRANCH  17  20
ENDBRANCH   3  16
TORSDOF 7
