REMARK  Name = ZINC56683036
REMARK  10 active torsions:
REMARK  status: ('A' for Active; 'I' for Inactive)
REMARK    1  A    between atoms: C_1  and  C_2
REMARK    2  A    between atoms: N_7  and  C_9
REMARK    3  A    between atoms: C_9  and  C_11
REMARK    4  A    between atoms: C_9  and  C_12
REMARK    5  A    between atoms: C_12  and  N_13
REMARK    6  A    between atoms: N_16  and  C_17
REMARK    7  A    between atoms: C_19  and  C_24
REMARK    8  A    between atoms: N_26  and  C_27
REMARK    9  A    between atoms: C_27  and  C_28
REMARK   10  A    between atoms: C_27  and  C_29
REMARK                            x       y       z     vdW  Elec       q    Type
REMARK                         _______ _______ _______ _____ _____    ______ ____
ROOT
ATOM      1  N   UNL     1       3.063  -0.569   2.146  0.00  0.00    -0.301 N 
ATOM      2  C   UNL     1       4.242   0.041   1.915  0.00  0.00    +0.304 C 
ATOM      3  O   UNL     1       5.244  -0.623   1.729  0.00  0.00    -0.253 OA
ATOM      4  N   UNL     1       4.311   1.387   1.890  0.00  0.00    -0.268 N 
ATOM      5  H   UNL     1       2.264  -0.040   2.295  0.00  0.00    +0.150 HD
ATOM      6  H   UNL     1       3.502   1.915   1.968  0.00  0.00    +0.156 HD
ENDROOT
BRANCH   4   7
ATOM      7  C   UNL     1       5.552   2.022   1.752  0.00  0.00    +0.054 A 
ATOM      8  C   UNL     1       6.549   1.436   0.990  0.00  0.00    +0.038 A 
ATOM      9  C   UNL     1       7.783   2.072   0.855  0.00  0.00    +0.039 A 
ATOM     10  C   UNL     1       8.005   3.296   1.490  0.00  0.00    +0.014 A 
ATOM     11  C   UNL     1       7.007   3.872   2.247  0.00  0.00    +0.022 A 
ATOM     12  C   UNL     1       5.780   3.244   2.376  0.00  0.00    +0.062 A 
ATOM     13 CL   UNL     1       4.527   3.979   3.325  0.00  0.00    -0.082 Cl
BRANCH   9  14
ATOM     14  C   UNL     1       8.852   1.453   0.044  0.00  0.00    +0.244 C 
ATOM     15  O   UNL     1       8.657   0.387  -0.507  0.00  0.00    -0.270 OA
ATOM     16  N   UNL     1      10.043   2.070  -0.085  0.00  0.00    -0.309 N 
ATOM     17  H   UNL     1      10.199   2.920   0.355  0.00  0.00    +0.149 HD
BRANCH  16  18
ATOM     18  C   UNL     1      11.103   1.456  -0.889  0.00  0.00    +0.067 C 
ATOM     19  C   UNL     1      10.912   1.836  -2.359  0.00  0.00    +0.027 C 
ATOM     20  C   UNL     1      12.465   1.957  -0.405  0.00  0.00    +0.027 C 
ENDBRANCH  16  18
ENDBRANCH   9  14
ENDBRANCH   4   7
BRANCH   1  21
ATOM     21  C   UNL     1       2.988  -2.032   2.173  0.00  0.00    +0.090 C 
BRANCH  21  22
ATOM     22  C   UNL     1       1.528  -2.465   2.325  0.00  0.00    -0.054 C 
ATOM     23  C   UNL     1       1.436  -3.989   2.229  0.00  0.00    -0.012 C 
BRANCH  22  29
ATOM     24  C   UNL     1      -3.013  -1.872   0.595  0.00  0.00    +0.005 C 
ATOM     25  C   UNL     1      -1.541  -1.507   0.389  0.00  0.00    -0.031 C 
ATOM     26  C   UNL     1      -1.090  -1.967  -1.000  0.00  0.00    -0.001 C 
ATOM     27  C   UNL     1       0.403  -1.668  -1.166  0.00  0.00    -0.018 C 
ATOM     28  C   UNL     1       1.183  -2.358  -0.045  0.00  0.00    -0.078 C 
ATOM     29  N   UNL     1       0.724  -1.858   1.256  0.00  0.00    +0.383 N 
ATOM     30  C   UNL     1      -0.689  -2.203   1.453  0.00  0.00    -0.075 C 
ATOM     31  H   UNL     1       0.831  -0.855   1.286  0.00  0.00    -0.081 HD
ENDBRANCH  22  29
ENDBRANCH  21  22
ENDBRANCH   1  21
TORSDOF 6
