REMARK  Name = ZINC63281553
REMARK  6 active torsions:
REMARK  status: ('A' for Active; 'I' for Inactive)
REMARK    1  A    between atoms: C_3  and  S_25
REMARK    2  A    between atoms: C_6  and  C_7
REMARK    3  A    between atoms: C_7  and  N_8
REMARK    4  A    between atoms: C_9  and  C_11
REMARK    5  A    between atoms: C_16  and  C_21
REMARK    6  A    between atoms: S_25  and  N_28
REMARK                            x       y       z     vdW  Elec       q    Type
REMARK                         _______ _______ _______ _____ _____    ______ ____
ROOT
ATOM      1  N   UNL     1      -1.726  -1.018  -1.368  0.00  0.00    -0.307 N 
ATOM      2  C   UNL     1      -2.867  -1.694  -1.606  0.00  0.00    +0.244 C 
ATOM      3  O   UNL     1      -3.536  -2.104  -0.678  0.00  0.00    -0.270 OA
ATOM      4  H   UNL     1      -1.192  -0.691  -2.108  0.00  0.00    +0.149 HD
ENDROOT
BRANCH   2   5
ATOM      5  C   UNL     1      -3.304  -1.939  -2.998  0.00  0.00    +0.039 A 
ATOM      6  C   UNL     1      -2.483  -1.445  -4.099  0.00  0.00    +0.015 A 
ATOM      7  C   UNL     1      -2.828  -1.636  -5.386  0.00  0.00    +0.028 A 
ATOM      8  C   UNL     1      -4.063  -2.361  -5.714  0.00  0.00    +0.060 A 
ATOM      9  N   UNL     1      -4.617  -2.676  -6.851  0.00  0.00    -0.356 N 
ATOM     10  C   UNL     1      -5.854  -3.408  -6.550  0.00  0.00    +0.281 C 
ATOM     11  N   UNL     1      -5.947  -3.478  -5.087  0.00  0.00    -0.356 N 
ATOM     12  C   UNL     1      -4.905  -2.868  -4.599  0.00  0.00    +0.061 A 
ATOM     13  C   UNL     1      -4.459  -2.625  -3.219  0.00  0.00    +0.040 A 
ATOM     14  H   UNL     1      -6.656  -3.900  -4.577  0.00  0.00    +0.162 HD
ATOM     15  H   UNL     1      -4.276  -2.465  -7.734  0.00  0.00    +0.162 HD
BRANCH  10  16
ATOM     16  C   UNL     1      -7.059  -2.658  -7.120  0.00  0.00    +0.428 C 
ATOM     17  F   UNL     1      -6.938  -2.568  -8.511  0.00  0.00    -0.167 F 
ATOM     18  F   UNL     1      -8.233  -3.348  -6.798  0.00  0.00    -0.167 F 
ATOM     19  F   UNL     1      -7.110  -1.372  -6.572  0.00  0.00    -0.167 F 
ENDBRANCH  10  16
ENDBRANCH   2   5
BRANCH   1  20
ATOM     20  C   UNL     1      -1.293  -0.775   0.011  0.00  0.00    +0.139 C 
BRANCH  20  26
ATOM     21  C   UNL     1      -0.017   1.378   0.010  0.00  0.00    +0.007 A 
ATOM     22  C   UNL     1       1.171   2.086   0.002  0.00  0.00    +0.029 A 
ATOM     23  C   UNL     1       2.377   1.411  -0.013  0.00  0.00    +0.105 A 
ATOM     24  C   UNL     1       2.396   0.029  -0.020  0.00  0.00    +0.029 A 
ATOM     25  C   UNL     1       1.208  -0.679  -0.012  0.00  0.00    +0.007 A 
ATOM     26  C   UNL     1       0.002  -0.004   0.002  0.00  0.00    -0.030 A 
BRANCH  23  27
ATOM     27  S   UNL     1       3.891   2.312  -0.024  0.00  0.00    +0.056 S 
ATOM     28  O   UNL     1       4.872   1.453  -0.588  0.00  0.00    -0.153 OA
ATOM     29  O   UNL     1       3.597   3.593  -0.566  0.00  0.00    -0.153 OA
BRANCH  27  30
ATOM     30  N   UNL     1       4.327   2.556   1.555  0.00  0.00    -0.204 NA
ATOM     31  H   UNL     1       5.265   2.623   1.794  0.00  0.00    +0.144 HD
ATOM     32  H   UNL     1       3.645   2.631   2.241  0.00  0.00    +0.144 HD
ENDBRANCH  27  30
ENDBRANCH  23  27
ENDBRANCH  20  26
ENDBRANCH   1  20
TORSDOF 6
