REMARK  Name = ZINC29033561
REMARK  11 active torsions:
REMARK  status: ('A' for Active; 'I' for Inactive)
REMARK    1  A    between atoms: C_1  and  C_2
REMARK    2  A    between atoms: C_5  and  N_12
REMARK    3  A    between atoms: C_7  and  S_8
REMARK    4  A    between atoms: S_8  and  N_11
REMARK    5  A    between atoms: C_13  and  C_15
REMARK    6  A    between atoms: C_15  and  O_16
REMARK    7  A    between atoms: O_16  and  C_17
REMARK    8  A    between atoms: C_17  and  C_19
REMARK    9  A    between atoms: C_20  and  N_30
REMARK   10  A    between atoms: C_22  and  C_29
REMARK   11  A    between atoms: C_24  and  C_28
REMARK                            x       y       z     vdW  Elec       q    Type
REMARK                         _______ _______ _______ _____ _____    ______ ____
ROOT
ATOM      1  C   UNL     1       1.972  -6.368  -1.392  0.00  0.00    +0.328 C 
ENDROOT
BRANCH   1   3
ATOM      2  N   UNL     1       2.363  -4.199  -0.271  0.00  0.00    -0.283 N 
ATOM      3  C   UNL     1       2.074  -4.865  -1.406  0.00  0.00    +0.255 C 
ATOM      4  O   UNL     1       1.896  -4.254  -2.439  0.00  0.00    -0.272 OA
ATOM      5  H   UNL     1       2.508  -4.688   0.555  0.00  0.00    +0.155 HD
BRANCH   2  10
ATOM      6  C   UNL     1       2.733   1.462  -0.317  0.00  0.00    +0.046 C 
ATOM      7  C   UNL     1       2.635  -0.042  -0.305  0.00  0.00    -0.024 A 
ATOM      8  C   UNL     1       1.795  -0.686  -1.195  0.00  0.00    +0.007 A 
ATOM      9  C   UNL     1       1.703  -2.064  -1.186  0.00  0.00    +0.024 A 
ATOM     10  C   UNL     1       2.455  -2.803  -0.282  0.00  0.00    +0.035 A 
ATOM     11  C   UNL     1       3.297  -2.153   0.610  0.00  0.00    +0.052 A 
ATOM     12  C   UNL     1       3.389  -0.775   0.593  0.00  0.00    +0.110 A 
BRANCH  12  13
ATOM     13  S   UNL     1       4.463   0.050   1.720  0.00  0.00    +0.056 S 
ATOM     14  O   UNL     1       3.700   1.086   2.324  0.00  0.00    -0.153 OA
ATOM     15  O   UNL     1       5.109  -0.962   2.480  0.00  0.00    -0.153 OA
BRANCH  13  16
ATOM     16  N   UNL     1       5.640   0.791   0.822  0.00  0.00    -0.204 NA
ATOM     17  H   UNL     1       6.051   1.610   1.141  0.00  0.00    +0.144 HD
ATOM     18  H   UNL     1       5.918   0.407  -0.025  0.00  0.00    +0.144 HD
ENDBRANCH  13  16
ENDBRANCH  12  13
ENDBRANCH   2  10
ENDBRANCH   1   3
BRANCH   1  19
ATOM     19  O   UNL     1       1.658  -6.836  -2.706  0.00  0.00    -0.451 OA
BRANCH  19  20
ATOM     20  C   UNL     1       1.530  -8.170  -2.867  0.00  0.00    +0.348 C 
ATOM     21  O   UNL     1       1.681  -8.915  -1.916  0.00  0.00    -0.244 OA
BRANCH  20  22
ATOM     22  C   UNL     1       1.220  -8.703  -4.140  0.00  0.00    +0.119 A 
ATOM     23  C   UNL     1       1.046 -10.024  -4.495  0.00  0.00    +0.055 A 
ATOM     24  C   UNL     1       0.729 -10.329  -5.881  0.00  0.00    +0.030 A 
ATOM     25  C   UNL     1       0.508 -11.595  -6.480  0.00  0.00    -0.037 A 
ATOM     26  C   UNL     1       0.218 -11.655  -7.823  0.00  0.00    +0.025 A 
ATOM     27  C   UNL     1       0.145 -10.494  -8.578  0.00  0.00    +0.014 A 
ATOM     28  N   UNL     1       0.352  -9.319  -8.018  0.00  0.00    -0.353 N 
ATOM     29  C   UNL     1       0.631  -9.208  -6.737  0.00  0.00    +0.088 A 
ATOM     30  S   UNL     1       0.954  -7.827  -5.669  0.00  0.00    -0.062 S 
ATOM     31  C   UNL     1      -0.172 -10.577 -10.049  0.00  0.00    +0.063 C 
ATOM     32  C   UNL     1       0.589 -12.855  -5.657  0.00  0.00    +0.044 C 
ATOM     33  H   UNL     1       0.297  -8.518  -8.562  0.00  0.00    +0.166 HD
BRANCH  23  34
ATOM     34  N   UNL     1       1.171 -11.035  -3.554  0.00  0.00    -0.356 N 
ATOM     35  H   UNL     1       1.660 -10.875  -2.732  0.00  0.00    +0.142 HD
ATOM     36  H   UNL     1       0.769 -11.903  -3.719  0.00  0.00    +0.142 HD
ENDBRANCH  23  34
ENDBRANCH  20  22
ENDBRANCH  19  20
ENDBRANCH   1  19
TORSDOF 8
