REMARK  Name = ZINC38050481
REMARK  6 active torsions:
REMARK  status: ('A' for Active; 'I' for Inactive)
REMARK    1  A    between atoms: C_1  and  O_2
REMARK    2  A    between atoms: O_2  and  C_3
REMARK    3  A    between atoms: C_4  and  S_11
REMARK    4  A    between atoms: S_11  and  N_14
REMARK    5  A    between atoms: N_14  and  C_15
REMARK    6  A    between atoms: C_21  and  N_23
REMARK                            x       y       z     vdW  Elec       q    Type
REMARK                         _______ _______ _______ _____ _____    ______ ____
ROOT
ATOM      1  S   UNL     1      -1.751  -0.624  -2.261  0.00  0.00    +0.062 S 
ATOM      2  O   UNL     1      -1.789   0.704  -1.756  0.00  0.00    -0.153 OA
ATOM      3  O   UNL     1      -2.208  -0.956  -3.564  0.00  0.00    -0.153 OA
ENDROOT
BRANCH   1   5
ATOM      4  C   UNL     1       0.329  -2.308  -2.815  0.00  0.00    +0.160 A 
ATOM      5  C   UNL     1      -0.073  -1.151  -2.165  0.00  0.00    +0.149 A 
ATOM      6  C   UNL     1       0.844  -0.411  -1.443  0.00  0.00    +0.052 A 
ATOM      7  C   UNL     1       2.163  -0.824  -1.369  0.00  0.00    +0.044 A 
ATOM      8  C   UNL     1       2.566  -1.978  -2.016  0.00  0.00    +0.039 A 
ATOM      9  C   UNL     1       1.650  -2.724  -2.734  0.00  0.00    +0.063 A 
ATOM     10 BR   UNL     1       2.200  -4.306  -3.613  0.00  0.00    -0.046 Br
ATOM     11 CL   UNL     1       3.312   0.108  -0.462  0.00  0.00    -0.083 Cl
BRANCH   4  13
ATOM     12  C   UNL     1      -1.278  -4.061  -2.821  0.00  0.00    +0.277 C 
ATOM     13  O   UNL     1      -0.572  -3.038  -3.525  0.00  0.00    -0.492 OA
ENDBRANCH   4  13
ENDBRANCH   1   5
BRANCH   1  14
ATOM     14  N   UNL     1      -2.619  -1.557  -1.203  0.00  0.00    -0.188 NA
ATOM     15  H   UNL     1      -3.248  -2.214  -1.539  0.00  0.00    +0.148 HD
BRANCH  14  16
ATOM     16  C   UNL     1      -2.436  -1.389   0.241  0.00  0.00    +0.062 C 
ATOM     17  C   UNL     1      -3.638  -0.643   0.824  0.00  0.00    +0.019 C 
ATOM     18  C   UNL     1      -3.448  -0.468   2.332  0.00  0.00    +0.001 C 
ATOM     19  C   UNL     1      -3.331  -1.842   2.994  0.00  0.00    -0.001 C 
ATOM     20  C   UNL     1      -2.129  -2.588   2.412  0.00  0.00    -0.015 C 
ATOM     21  C   UNL     1      -2.319  -2.763   0.903  0.00  0.00    -0.056 C 
BRANCH  21  22
ATOM     22  N   UNL     1      -1.165  -3.480   0.344  0.00  0.00    +0.381 N 
ATOM     23  H   UNL     1      -0.324  -2.950   0.518  0.00  0.00    -0.090 HD
ATOM     24  H   UNL     1      -1.088  -4.386   0.781  0.00  0.00    -0.090 HD
ATOM     25  H   UNL     1      -1.291  -3.595  -0.650  0.00  0.00    -0.090 HD
ENDBRANCH  21  22
ENDBRANCH  14  16
ENDBRANCH   1  14
TORSDOF 5
