REMARK  Name = ZINC20707269
REMARK  6 active torsions:
REMARK  status: ('A' for Active; 'I' for Inactive)
REMARK    1  A    between atoms: C_4  and  N_7
REMARK    2  A    between atoms: N_7  and  C_8
REMARK    3  A    between atoms: C_11  and  N_14
REMARK    4  A    between atoms: C_15  and  C_17
REMARK    5  A    between atoms: C_24  and  C_33
REMARK    6  A    between atoms: C_38  and  O_39
REMARK                            x       y       z     vdW  Elec       q    Type
REMARK                         _______ _______ _______ _____ _____    ______ ____
ROOT
ATOM      1  C   UNL     1       7.454   6.060  -0.411  0.00  0.00    +0.058 A 
ATOM      2  C   UNL     1       8.516   5.182  -0.619  0.00  0.00    +0.015 A 
ATOM      3  C   UNL     1       9.805   5.663  -0.697  0.00  0.00    +0.001 A 
ATOM      4  C   UNL     1      10.042   7.023  -0.577  0.00  0.00    +0.006 A 
ATOM      5  C   UNL     1       9.004   7.906  -0.373  0.00  0.00    -0.019 A 
ATOM      6  C   UNL     1       7.687   7.445  -0.282  0.00  0.00    +0.044 A 
ATOM      7  N   UNL     1       6.594   8.258  -0.031  0.00  0.00    -0.336 N 
ATOM      8  C   UNL     1       6.841   9.707   0.024  0.00  0.00    +0.108 C 
ATOM      9  C   UNL     1       8.163   9.909   0.735  0.00  0.00    +0.029 C 
ATOM     10  C   UNL     1       9.232   9.363  -0.262  0.00  0.00    +0.049 C 
ATOM     11  C   UNL     1      10.497   9.941   0.252  0.00  0.00    -0.023 C 
ATOM     12  C   UNL     1      10.219  11.084   0.870  0.00  0.00    -0.030 C 
ATOM     13  C   UNL     1       8.710  11.337   0.844  0.00  0.00    +0.033 C 
ATOM     14  H   UNL     1       5.577   7.867   0.124  0.00  0.00    +0.147 HD
ENDROOT
BRANCH   8  15
ATOM     15  C   UNL     1       6.918  10.270  -1.372  0.00  0.00    +0.014 A 
ATOM     16  C   UNL     1       7.276   9.454  -2.428  0.00  0.00    +0.009 A 
ATOM     17  C   UNL     1       7.342   9.968  -3.709  0.00  0.00    +0.001 A 
ATOM     18  C   UNL     1       7.061  11.303  -3.937  0.00  0.00    +0.004 A 
ATOM     19  C   UNL     1       6.708  12.124  -2.884  0.00  0.00    +0.046 A 
ATOM     20  C   UNL     1       6.635  11.609  -1.598  0.00  0.00    +0.122 A 
BRANCH  20  21
ATOM     21  O   UNL     1       6.288  12.416  -0.560  0.00  0.00    -0.506 OA
ATOM     22  H   UNL     1       6.065  13.478  -0.740  0.00  0.00    +0.292 HD
ENDBRANCH  20  21
ENDBRANCH   8  15
BRANCH   1  24
ATOM     23  N   UNL     1       5.850   4.217  -0.460  0.00  0.00    -0.281 N 
ATOM     24  C   UNL     1       6.078   5.539  -0.332  0.00  0.00    +0.250 C 
ATOM     25  O   UNL     1       5.148   6.302  -0.151  0.00  0.00    -0.270 OA
ATOM     26  H   UNL     1       6.685   3.532  -0.668  0.00  0.00    +0.155 HD
BRANCH  23  30
ATOM     27  C   UNL     1       1.977   2.721  -0.068  0.00  0.00    +0.031 A 
ATOM     28  C   UNL     1       2.187   3.956  -0.669  0.00  0.00    +0.025 A 
ATOM     29  C   UNL     1       3.469   4.453  -0.794  0.00  0.00    +0.025 A 
ATOM     30  C   UNL     1       4.549   3.715  -0.328  0.00  0.00    +0.034 A 
ATOM     31  C   UNL     1       4.339   2.478   0.267  0.00  0.00    +0.025 A 
ATOM     32  C   UNL     1       3.057   1.982   0.397  0.00  0.00    +0.025 A 
BRANCH  27  33
ATOM     33  N   UNL     1       0.677   2.220   0.064  0.00  0.00    -0.314 N 
ATOM     34  H   UNL     1       0.505   1.133   0.063  0.00  0.00    +0.152 HD
BRANCH  33  38
ATOM     35  C   UNL     1      -2.535   4.839   0.458  0.00  0.00    +0.000 A 
ATOM     36  C   UNL     1      -2.721   3.604  -0.136  0.00  0.00    +0.002 A 
ATOM     37  C   UNL     1      -1.659   2.730  -0.263  0.00  0.00    +0.023 A 
ATOM     38  C   UNL     1      -0.401   3.098   0.196  0.00  0.00    +0.031 A 
ATOM     39  C   UNL     1      -0.216   4.343   0.787  0.00  0.00    +0.023 A 
ATOM     40  C   UNL     1      -1.284   5.209   0.915  0.00  0.00    +0.002 A 
ENDBRANCH  33  38
ENDBRANCH  27  33
ENDBRANCH  23  30
ENDBRANCH   1  24
TORSDOF 6
