REMARK  Name = ZINC49554523
REMARK  8 active torsions:
REMARK  status: ('A' for Active; 'I' for Inactive)
REMARK    1  A    between atoms: C_1  and  C_2
REMARK    2  A    between atoms: C_2  and  C_4
REMARK    3  A    between atoms: C_2  and  N_9
REMARK    4  A    between atoms: C_4  and  C_5
REMARK    5  A    between atoms: C_5  and  N_6
REMARK    6  A    between atoms: N_6  and  C_7
REMARK    7  A    between atoms: N_6  and  C_8
REMARK    8  A    between atoms: N_9  and  C_10
REMARK                            x       y       z     vdW  Elec       q    Type
REMARK                         _______ _______ _______ _____ _____    ______ ____
ROOT
ATOM      1  C   UNL     1      -1.924  -0.575  -1.349  0.00  0.00    +0.173 C 
ATOM      2  C   UNL     1      -3.435  -0.540  -1.314  0.00  0.00    +0.001 A 
ATOM      3  C   UNL     1      -4.340   0.392  -0.856  0.00  0.00    +0.007 A 
ATOM      4  C   UNL     1      -5.697   0.143  -0.957  0.00  0.00    +0.002 A 
ATOM      5  C   UNL     1      -6.141  -1.041  -1.517  0.00  0.00    +0.017 A 
ATOM      6  C   UNL     1      -5.236  -1.977  -1.976  0.00  0.00    +0.039 A 
ATOM      7  C   UNL     1      -3.867  -1.734  -1.878  0.00  0.00    +0.053 A 
ATOM      8  N   UNL     1      -2.772  -2.510  -2.262  0.00  0.00    -0.283 N 
ATOM      9  C   UNL     1      -1.599  -1.907  -1.991  0.00  0.00    +0.239 C 
ATOM     10  O   UNL     1      -0.491  -2.346  -2.216  0.00  0.00    -0.273 OA
ATOM     11 BR   UNL     1      -5.855  -3.593  -2.739  0.00  0.00    -0.048 Br
ATOM     12  H   UNL     1      -2.848  -3.383  -2.678  0.00  0.00    +0.155 HD
ENDROOT
BRANCH   1  13
ATOM     13  N   UNL     1      -1.376  -0.512   0.012  0.00  0.00    -0.300 NA
ATOM     14  H   UNL     1      -1.426  -1.413   0.464  0.00  0.00    +0.123 HD
BRANCH  13  16
ATOM     15  C   UNL     1      -0.019   1.526   0.010  0.00  0.00    +0.024 C 
ATOM     16  C   UNL     1       0.002  -0.004   0.002  0.00  0.00    +0.050 C 
BRANCH  16  17
ATOM     17  C   UNL     1       0.742  -0.511   1.242  0.00  0.00    -0.000 C 
BRANCH  17  18
ATOM     18  C   UNL     1       0.872  -2.034   1.171  0.00  0.00    -0.078 C 
BRANCH  18  19
ATOM     19  N   UNL     1       1.582  -2.520   2.361  0.00  0.00    +0.376 N 
ATOM     20  C   UNL     1       1.602  -3.989   2.353  0.00  0.00    -0.097 C 
ATOM     21  C   UNL     1       2.961  -2.012   2.350  0.00  0.00    -0.097 C 
ATOM     22  H   UNL     1       1.110  -2.195   3.191  0.00  0.00    -0.083 HD
ENDBRANCH  18  19
ENDBRANCH  17  18
ENDBRANCH  16  17
ENDBRANCH  13  16
ENDBRANCH   1  13
TORSDOF 5
