REMARK  Name = ZINC22802164
REMARK  10 active torsions:
REMARK  status: ('A' for Active; 'I' for Inactive)
REMARK    1  A    between atoms: C_3  and  N_20
REMARK    2  A    between atoms: C_4  and  N_17
REMARK    3  A    between atoms: C_6  and  S_7
REMARK    4  A    between atoms: S_7  and  N_10
REMARK    5  A    between atoms: N_20  and  C_21
REMARK    6  A    between atoms: C_21  and  C_22
REMARK    7  A    between atoms: C_22  and  C_23
REMARK    8  A    between atoms: C_23  and  C_24
REMARK    9  A    between atoms: C_25  and  C_31
REMARK   10  A    between atoms: C_26  and  N_30
REMARK                            x       y       z     vdW  Elec       q    Type
REMARK                         _______ _______ _______ _____ _____    ______ ____
ROOT
ATOM      1  C   UNL     1       1.203  -0.656  -0.237  0.00  0.00    +0.030 A 
ATOM      2  C   UNL     1       0.010   0.037  -0.275  0.00  0.00    +0.027 A 
ATOM      3  C   UNL     1      -0.004   1.407  -0.043  0.00  0.00    +0.058 A 
ATOM      4  C   UNL     1       1.185   2.074   0.227  0.00  0.00    +0.149 A 
ATOM      5  C   UNL     1       2.375   1.374   0.263  0.00  0.00    +0.063 A 
ATOM      6  C   UNL     1       2.384   0.011   0.032  0.00  0.00    +0.108 A 
ENDROOT
BRANCH   6   7
ATOM      7  S   UNL     1       3.905  -0.878   0.079  0.00  0.00    +0.061 S 
ATOM      8  O   UNL     1       4.793  -0.120   0.889  0.00  0.00    -0.153 OA
ATOM      9  O   UNL     1       3.576  -2.230   0.369  0.00  0.00    -0.153 OA
BRANCH   7  10
ATOM     10  N   UNL     1       4.530  -0.862  -1.454  0.00  0.00    -0.177 NA
ATOM     11  C   UNL     1       4.176  -1.933  -2.358  0.00  0.00    +0.109 C 
ATOM     12  C   UNL     1       5.180  -3.096  -2.213  0.00  0.00    +0.017 C 
ATOM     13  C   UNL     1       6.484  -2.719  -2.780  0.00  0.00    +0.001 C 
ATOM     14  C   UNL     1       7.159  -1.545  -2.078  0.00  0.00    +0.001 C 
ATOM     15  C   UNL     1       6.640  -0.251  -2.654  0.00  0.00    +0.017 C 
ATOM     16  C   UNL     1       5.431   0.243  -1.839  0.00  0.00    +0.109 C 
ENDBRANCH   7  10
ENDBRANCH   6   7
BRANCH   4  17
ATOM     17  N   UNL     1       1.175   3.533   0.476  0.00  0.00    +0.058 N 
ATOM     18  O   UNL     1       2.084   4.228   0.058  0.00  0.00    -0.126 OA
ATOM     19  O   UNL     1       0.259   4.039   1.098  0.00  0.00    -0.126 OA
ENDBRANCH   4  17
BRANCH   3  20
ATOM     20  N   UNL     1      -1.208   2.112  -0.086  0.00  0.00    -0.342 N 
ATOM     21  H   UNL     1      -1.207   3.209   0.002  0.00  0.00    +0.146 HD
BRANCH  20  22
ATOM     22  C   UNL     1      -2.474   1.392  -0.248  0.00  0.00    +0.102 C 
BRANCH  22  23
ATOM     23  C   UNL     1      -3.631   2.392  -0.264  0.00  0.00    +0.025 C 
BRANCH  23  24
ATOM     24  C   UNL     1      -4.953   1.640  -0.433  0.00  0.00    +0.060 C 
BRANCH  24  25
ATOM     25  C   UNL     1      -6.093   2.625  -0.449  0.00  0.00    +0.082 A 
ATOM     26  C   UNL     1      -6.627   3.258  -1.595  0.00  0.00    +0.113 A 
ATOM     27  C   UNL     1      -7.661   4.083  -1.161  0.00  0.00    +0.129 A 
ATOM     28  N   UNL     1      -7.740   3.948   0.179  0.00  0.00    -0.263 N 
ATOM     29  H   UNL     1      -8.493   4.515   0.746  0.00  0.00    +0.190 HD
ATOM     30  N   UNL     1      -6.762   3.037   0.592  0.00  0.00    -0.176 NA
BRANCH  27  31
ATOM     31  N   UNL     1      -8.456   4.888  -1.953  0.00  0.00    -0.342 N 
ATOM     32  H   UNL     1      -9.248   5.500  -1.496  0.00  0.00    +0.144 HD
ATOM     33  H   UNL     1      -8.298   4.918  -3.042  0.00  0.00    +0.144 HD
ENDBRANCH  27  31
BRANCH  26  34
ATOM     34  C   UNL     1      -6.186   3.084  -2.947  0.00  0.00    +0.104 C 
ATOM     35  N   UNL     1      -5.838   2.946  -4.019  0.00  0.00    -0.191 NA
ENDBRANCH  26  34
ENDBRANCH  24  25
ENDBRANCH  23  24
ENDBRANCH  22  23
ENDBRANCH  20  22
ENDBRANCH   3  20
TORSDOF 10
