REMARK  Name = ZINC36800544
REMARK  7 active torsions:
REMARK  status: ('A' for Active; 'I' for Inactive)
REMARK    1  A    between atoms: C_1  and  C_2
REMARK    2  A    between atoms: C_9  and  C_16
REMARK    3  A    between atoms: C_11  and  O_12
REMARK    4  A    between atoms: C_16  and  S_17
REMARK    5  A    between atoms: S_17  and  C_18
REMARK    6  A    between atoms: C_21  and  C_24
REMARK    7  A    between atoms: N_22  and  C_23
REMARK                            x       y       z     vdW  Elec       q    Type
REMARK                         _______ _______ _______ _____ _____    ______ ____
ROOT
ATOM      1  C   UNL     1      -1.818   2.371  -0.770  0.00  0.00    +0.109 C 
ATOM      2  C   UNL     1      -1.640   0.880  -0.890  0.00  0.00    +0.214 C 
ATOM      3  O   UNL     1      -0.569   0.420  -1.246  0.00  0.00    -0.276 OA
ATOM      4  N   UNL     1      -2.644   0.071  -0.610  0.00  0.00    -0.286 N 
ATOM      5  C   UNL     1      -2.448  -1.276  -0.590  0.00  0.00    +0.037 A 
ATOM      6  C   UNL     1      -3.552  -2.144  -0.652  0.00  0.00    +0.024 A 
ATOM      7  C   UNL     1      -3.369  -3.490  -0.633  0.00  0.00    +0.013 A 
ATOM      8  C   UNL     1      -2.070  -4.021  -0.550  0.00  0.00    +0.022 A 
ATOM      9  C   UNL     1      -1.859  -5.416  -0.530  0.00  0.00    -0.020 A 
ATOM     10  C   UNL     1      -0.564  -5.886  -0.449  0.00  0.00    +0.092 A 
ATOM     11  C   UNL     1       0.494  -4.991  -0.389  0.00  0.00    +0.285 A 
ATOM     12  O   UNL     1       0.291  -3.670  -0.408  0.00  0.00    -0.425 OA
ATOM     13  C   UNL     1      -0.955  -3.156  -0.487  0.00  0.00    +0.141 A 
ATOM     14  C   UNL     1      -1.151  -1.787  -0.512  0.00  0.00    +0.070 A 
ATOM     15  H   UNL     1      -3.522   0.437  -0.418  0.00  0.00    +0.155 HD
ENDROOT
BRANCH  11  16
ATOM     16  O   UNL     1       1.753  -5.463  -0.310  0.00  0.00    -0.480 OA
ATOM     17  H   UNL     1       2.430  -4.773  -0.272  0.00  0.00    +0.295 HD
ENDBRANCH  11  16
BRANCH   9  18
ATOM     18  C   UNL     1      -3.023  -6.372  -0.596  0.00  0.00    +0.113 C 
BRANCH  18  19
ATOM     19  S   UNL     1      -3.110  -7.106  -2.252  0.00  0.00    -0.081 S 
BRANCH  19  20
ATOM     20  C   UNL     1      -4.501  -8.184  -2.168  0.00  0.00    +0.192 A 
ATOM     21  N   UNL     1      -5.276  -8.376  -1.124  0.00  0.00    -0.122 NA
ATOM     22  N   UNL     1      -6.196  -9.227  -1.409  0.00  0.00    -0.128 NA
ATOM     23  C   UNL     1      -6.065  -9.630  -2.651  0.00  0.00    +0.165 A 
ATOM     24  N   UNL     1      -4.978  -8.971  -3.177  0.00  0.00    -0.305 N 
ATOM     25  C   UNL     1      -4.443  -9.090  -4.536  0.00  0.00    +0.153 C 
BRANCH  23  26
ATOM     26  C   UNL     1      -6.926 -10.605  -3.354  0.00  0.00    +0.019 A 
ATOM     27  C   UNL     1      -6.480 -11.216  -4.527  0.00  0.00    +0.013 A 
ATOM     28  C   UNL     1      -7.288 -12.125  -5.178  0.00  0.00    +0.021 A 
ATOM     29  C   UNL     1      -8.539 -12.431  -4.671  0.00  0.00    +0.041 A 
ATOM     30  C   UNL     1      -8.988 -11.828  -3.508  0.00  0.00    +0.021 A 
ATOM     31  C   UNL     1      -8.186 -10.922  -2.844  0.00  0.00    +0.013 A 
ATOM     32 CL   UNL     1      -9.550 -13.576  -5.496  0.00  0.00    -0.084 Cl
ENDBRANCH  23  26
ENDBRANCH  19  20
ENDBRANCH  18  19
ENDBRANCH   9  18
TORSDOF 5
