REMARK  Name = ZINC53619582
REMARK  8 active torsions:
REMARK  status: ('A' for Active; 'I' for Inactive)
REMARK    1  A    between atoms: C_1  and  C_2
REMARK    2  A    between atoms: C_5  and  O_27
REMARK    3  A    between atoms: C_7  and  O_26
REMARK    4  A    between atoms: C_13  and  C_15
REMARK    5  A    between atoms: C_15  and  C_16
REMARK    6  A    between atoms: N_18  and  C_19
REMARK    7  A    between atoms: C_19  and  C_20
REMARK    8  A    between atoms: C_20  and  C_21
REMARK                            x       y       z     vdW  Elec       q    Type
REMARK                         _______ _______ _______ _____ _____    ______ ____
ROOT
ATOM      1  C   UNL     1      -0.019   1.526   0.010  0.00  0.00    +0.013 C 
ATOM      2  C   UNL     1       0.002  -0.004   0.002  0.00  0.00    +0.037 C 
ATOM      3  C   UNL     1      -1.413  -0.524   0.009  0.00  0.00    +0.040 A 
ATOM      4  C   UNL     1      -2.116  -0.549  -1.192  0.00  0.00    +0.127 A 
ATOM      5  C   UNL     1      -3.420  -1.012  -1.231  0.00  0.00    +0.091 A 
ATOM      6  C   UNL     1      -4.031  -1.454  -0.067  0.00  0.00    +0.124 A 
ATOM      7  C   UNL     1      -3.333  -1.433   1.129  0.00  0.00    +0.092 A 
ATOM      8  C   UNL     1      -2.021  -0.971   1.168  0.00  0.00    +0.142 A 
ATOM      9  O   UNL     1      -1.367  -0.986   2.361  0.00  0.00    -0.425 OA
ATOM     10  C   UNL     1      -0.179  -0.353   2.429  0.00  0.00    +0.317 C 
ATOM     11  O   UNL     1       0.132   0.307   3.392  0.00  0.00    -0.250 OA
ATOM     12  C   UNL     1       0.747  -0.510   1.241  0.00  0.00    +0.114 C 
ENDROOT
BRANCH   6  13
ATOM     13  O   UNL     1      -5.312  -1.906  -0.099  0.00  0.00    -0.507 OA
ATOM     14  H   UNL     1      -5.390  -2.855  -0.266  0.00  0.00    +0.292 HD
ENDBRANCH   6  13
BRANCH   4  15
ATOM     15  O   UNL     1      -1.519  -0.115  -2.333  0.00  0.00    -0.506 OA
ATOM     16  H   UNL     1      -1.050  -0.807  -2.820  0.00  0.00    +0.292 HD
ENDBRANCH   4  15
BRANCH  12  17
ATOM     17  C   UNL     1       1.115  -1.984   1.061  0.00  0.00    +0.111 C 
BRANCH  17  18
ATOM     18  C   UNL     1       1.952  -2.439   2.228  0.00  0.00    +0.214 C 
ATOM     19  O   UNL     1       2.227  -1.662   3.117  0.00  0.00    -0.276 OA
ATOM     20  N   UNL     1       2.395  -3.711   2.284  0.00  0.00    -0.315 N 
ATOM     21  H   UNL     1       2.175  -4.333   1.573  0.00  0.00    +0.149 HD
BRANCH  20  22
ATOM     22  C   UNL     1       3.208  -4.154   3.419  0.00  0.00    +0.110 C 
BRANCH  22  23
ATOM     23  C   UNL     1       3.576  -5.628   3.238  0.00  0.00    +0.073 C 
BRANCH  23  24
ATOM     24  C   UNL     1       4.413  -6.084   4.405  0.00  0.00    +0.035 A 
ATOM     25  N   UNL     1       3.964  -6.711   5.536  0.00  0.00    -0.350 N 
ATOM     26  C   UNL     1       5.040  -6.941   6.319  0.00  0.00    +0.171 A 
ATOM     27  N   UNL     1       6.103  -6.485   5.715  0.00  0.00    -0.352 N 
ATOM     28  C   UNL     1       5.748  -5.958   4.534  0.00  0.00    +0.105 A 
ATOM     29  H   UNL     1       3.045  -6.946   5.737  0.00  0.00    +0.166 HD
ATOM     30  H   UNL     1       7.007  -6.525   6.063  0.00  0.00    +0.166 HD
ENDBRANCH  23  24
ENDBRANCH  22  23
ENDBRANCH  20  22
ENDBRANCH  17  18
ENDBRANCH  12  17
TORSDOF 7
