REMARK  Name = ZINC14041749
REMARK  10 active torsions:
REMARK  status: ('A' for Active; 'I' for Inactive)
REMARK    1  A    between atoms: C_1  and  N_66
REMARK    2  A    between atoms: C_7  and  C_9
REMARK    3  A    between atoms: C_14  and  N_15
REMARK    4  A    between atoms: N_15  and  C_16
REMARK    5  A    between atoms: C_16  and  N_18
REMARK    6  A    between atoms: C_19  and  C_21
REMARK    7  A    between atoms: C_24  and  O_27
REMARK    8  A    between atoms: O_27  and  C_28
REMARK    9  A    between atoms: C_28  and  C_29
REMARK   10  A    between atoms: C_29  and  C_30
REMARK                            x       y       z     vdW  Elec       q    Type
REMARK                         _______ _______ _______ _____ _____    ______ ____
ROOT
ATOM      1  C   UNL     1       1.166   1.942  -0.875  0.00  0.00    +0.141 C 
ATOM      2  S   UNL     1       1.342   3.610  -1.223  0.00  0.00    -0.018 S 
ENDROOT
BRANCH   1   3
ATOM      3  N   UNL     1      -0.027   1.340  -1.050  0.00  0.00    -0.264 N 
ATOM      4  C   UNL     1      -1.080   2.048  -1.503  0.00  0.00    +0.250 C 
ATOM      5  O   UNL     1      -0.955   3.232  -1.750  0.00  0.00    -0.270 OA
ATOM      6  H   UNL     1      -0.126   0.395  -0.852  0.00  0.00    +0.157 HD
BRANCH   4   7
ATOM      7  C   UNL     1      -2.384   1.387  -1.700  0.00  0.00    +0.037 A 
ATOM      8  C   UNL     1      -2.528   0.025  -1.422  0.00  0.00    +0.016 A 
ATOM      9  C   UNL     1      -3.748  -0.587  -1.601  0.00  0.00    +0.046 A 
ATOM     10  C   UNL     1      -4.833   0.145  -2.069  0.00  0.00    +0.121 A 
ATOM     11  C   UNL     1      -4.693   1.499  -2.352  0.00  0.00    +0.046 A 
ATOM     12  C   UNL     1      -3.477   2.120  -2.170  0.00  0.00    +0.016 A 
BRANCH  10  13
ATOM     13  O   UNL     1      -6.033  -0.463  -2.249  0.00  0.00    -0.492 OA
BRANCH  13  14
ATOM     14  C   UNL     1      -6.108  -1.855  -1.939  0.00  0.00    +0.233 C 
BRANCH  14  15
ATOM     15  C   UNL     1      -7.527  -2.361  -2.203  0.00  0.00    +0.076 C 
BRANCH  15  16
ATOM     16  C   UNL     1      -7.606  -3.830  -1.876  0.00  0.00    -0.044 A 
ATOM     17  C   UNL     1      -7.343  -4.771  -2.853  0.00  0.00    +0.004 A 
ATOM     18  C   UNL     1      -7.410  -6.119  -2.552  0.00  0.00    +0.000 A 
ATOM     19  C   UNL     1      -7.751  -6.525  -1.275  0.00  0.00    +0.000 A 
ATOM     20  C   UNL     1      -8.019  -5.584  -0.299  0.00  0.00    +0.000 A 
ATOM     21  C   UNL     1      -7.947  -4.237  -0.599  0.00  0.00    +0.004 A 
ENDBRANCH  15  16
ENDBRANCH  14  15
ENDBRANCH  13  14
ENDBRANCH  10  13
ENDBRANCH   4   7
ENDBRANCH   1   3
BRANCH   1  22
ATOM     22  N   UNL     1       2.220   1.233  -0.427  0.00  0.00    -0.296 N 
ATOM     23  H   UNL     1       2.104   0.307  -0.162  0.00  0.00    +0.154 HD
BRANCH  22  29
ATOM     24  C   UNL     1       4.603   1.171  -0.860  0.00  0.00    +0.058 A 
ATOM     25  C   UNL     1       5.857   1.780  -0.771  0.00  0.00    +0.015 A 
ATOM     26  C   UNL     1       5.980   3.019  -0.181  0.00  0.00    +0.001 A 
ATOM     27  C   UNL     1       4.864   3.665   0.327  0.00  0.00    +0.002 A 
ATOM     28  C   UNL     1       3.618   3.079   0.243  0.00  0.00    +0.024 A 
ATOM     29  C   UNL     1       3.476   1.828  -0.345  0.00  0.00    +0.045 A 
BRANCH  24  36
ATOM     30  C   UNL     1       6.029  -4.413   1.486  0.00  0.00    -0.096 C 
ATOM     31  C   UNL     1       4.896  -3.520  -0.459  0.00  0.00    -0.060 C 
ATOM     32  C   UNL     1       5.042  -2.535  -1.624  0.00  0.00    +0.089 C 
ATOM     33  N   UNL     1       5.228  -1.184  -1.073  0.00  0.00    -0.301 N 
ATOM     34  C   UNL     1       6.273  -0.984  -0.057  0.00  0.00    +0.089 C 
ATOM     35  C   UNL     1       6.074  -2.031   1.051  0.00  0.00    -0.060 C 
ATOM     36  C   UNL     1       4.465  -0.155  -1.491  0.00  0.00    +0.248 C 
ATOM     37  O   UNL     1       3.662  -0.319  -2.390  0.00  0.00    -0.270 OA
ATOM     38  N   UNL     1       6.067  -3.376   0.434  0.00  0.00    +0.380 N 
ATOM     39  H   UNL     1       6.924  -3.493  -0.119  0.00  0.00    -0.082 HD
ENDBRANCH  24  36
ENDBRANCH  22  29
ENDBRANCH   1  22
TORSDOF 9
