REMARK  Name = ZINC43094648
REMARK  7 active torsions:
REMARK  status: ('A' for Active; 'I' for Inactive)
REMARK    1  A    between atoms: C_1  and  C_2
REMARK    2  A    between atoms: C_2  and  C_4
REMARK    3  A    between atoms: C_2  and  N_21
REMARK    4  A    between atoms: C_4  and  C_6
REMARK    5  A    between atoms: C_4  and  O_13
REMARK    6  A    between atoms: O_13  and  C_14
REMARK    7  A    between atoms: C_14  and  C_15
REMARK                            x       y       z     vdW  Elec       q    Type
REMARK                         _______ _______ _______ _____ _____    ______ ____
ROOT
ATOM      1  C   UNL     1       0.633  -0.575  -1.502  0.00  0.00    +0.135 C 
ENDROOT
BRANCH   1   2
ATOM      2  C   UNL     1       0.641  -1.985  -2.033  0.00  0.00    -0.007 A 
ATOM      3  C   UNL     1       1.749  -2.790  -1.843  0.00  0.00    +0.007 A 
ATOM      4  C   UNL     1       1.756  -4.083  -2.330  0.00  0.00    +0.000 A 
ATOM      5  C   UNL     1       0.655  -4.573  -3.008  0.00  0.00    +0.001 A 
ATOM      6  C   UNL     1      -0.453  -3.769  -3.199  0.00  0.00    +0.015 A 
ATOM      7  C   UNL     1      -0.463  -2.476  -2.707  0.00  0.00    +0.023 A 
ATOM      8 BR   UNL     1      -1.981  -1.378  -2.962  0.00  0.00    -0.050 Br
ENDBRANCH   1   2
BRANCH   1  10
ATOM      9  C   UNL     1      -0.046   0.880   0.412  0.00  0.00    -0.011 C 
ATOM     10  C   UNL     1      -0.034  -0.552  -0.125  0.00  0.00    -0.044 C 
BRANCH  10  11
ATOM     11  N   UNL     1       0.717  -1.415   0.797  0.00  0.00    +0.382 N 
ATOM     12  H   UNL     1       0.276  -1.400   1.705  0.00  0.00    -0.090 HD
ATOM     13  H   UNL     1       0.724  -2.360   0.442  0.00  0.00    -0.090 HD
ATOM     14  H   UNL     1       1.664  -1.078   0.877  0.00  0.00    -0.090 HD
ENDBRANCH  10  11
ENDBRANCH   1  10
BRANCH   1  15
ATOM     15  O   UNL     1       1.977  -0.102  -1.388  0.00  0.00    -0.371 OA
BRANCH  15  16
ATOM     16  C   UNL     1       2.172   1.220  -1.895  0.00  0.00    +0.192 C 
BRANCH  16  17
ATOM     17  C   UNL     1       3.657   1.583  -1.814  0.00  0.00    +0.144 C 
ATOM     18  C   UNL     1       3.861   3.051  -2.246  0.00  0.00    +0.036 C 
ATOM     19  C   UNL     1       5.182   2.973  -3.060  0.00  0.00    +0.031 C 
ATOM     20  C   UNL     1       5.046   1.572  -3.708  0.00  0.00    +0.160 C 
ATOM     21  O   UNL     1       4.409   0.756  -2.710  0.00  0.00    -0.374 OA
ENDBRANCH  16  17
ENDBRANCH  15  16
ENDBRANCH   1  15
TORSDOF 6
