REMARK  Name = ZINC39677428
REMARK  5 active torsions:
REMARK  status: ('A' for Active; 'I' for Inactive)
REMARK    1  A    between atoms: C_6  and  C_7
REMARK    2  A    between atoms: C_7  and  N_8
REMARK    3  A    between atoms: C_9  and  C_11
REMARK    4  A    between atoms: C_22  and  C_24
REMARK    5  A    between atoms: C_28  and  C_30
REMARK                            x       y       z     vdW  Elec       q    Type
REMARK                         _______ _______ _______ _____ _____    ______ ____
ROOT
ATOM      1  C   UNL     1      -3.621  -1.442  -2.651  0.00  0.00    +0.100 C 
ATOM      2  C   UNL     1      -3.868  -0.265  -3.620  0.00  0.00    +0.121 C 
ATOM      3  N   UNL     1      -4.999  -0.709  -4.469  0.00  0.00    -0.296 N 
ATOM      4  C   UNL     1      -5.905  -1.419  -3.534  0.00  0.00    +0.115 C 
ATOM      5  C   UNL     1      -4.960  -2.197  -2.596  0.00  0.00    -0.004 C 
ATOM      6  C   UNL     1      -5.510  -2.195  -1.173  0.00  0.00    -0.010 C 
ATOM      7  C   UNL     1      -6.811  -3.001  -1.133  0.00  0.00    -0.082 C 
ATOM      8  N   UNL     1      -6.552  -4.376  -1.576  0.00  0.00    +0.379 N 
ATOM      9  C   UNL     1      -6.112  -4.375  -2.977  0.00  0.00    -0.082 C 
ATOM     10  C   UNL     1      -4.780  -3.627  -3.095  0.00  0.00    -0.010 C 
ATOM     11  C   UNL     1      -5.166  -0.513  -5.792  0.00  0.00    +0.247 C 
ATOM     12  O   UNL     1      -4.271  -0.022  -6.451  0.00  0.00    -0.270 OA
ATOM     13  H   UNL     1      -5.832  -4.784  -0.999  0.00  0.00    -0.086 HD
ATOM     14  H   UNL     1      -7.397  -4.920  -1.491  0.00  0.00    -0.086 HD
ENDROOT
BRANCH  11  15
ATOM     15  C   UNL     1      -6.437  -0.896  -6.440  0.00  0.00    +0.038 A 
ATOM     16  C   UNL     1      -7.596  -1.045  -5.676  0.00  0.00    +0.016 A 
ATOM     17  C   UNL     1      -8.780  -1.402  -6.286  0.00  0.00    +0.039 A 
ATOM     18  C   UNL     1      -8.820  -1.613  -7.657  0.00  0.00    +0.135 A 
ATOM     19  C   UNL     1      -7.672  -1.466  -8.420  0.00  0.00    +0.091 A 
ATOM     20  C   UNL     1      -6.484  -1.103  -7.820  0.00  0.00    +0.028 A 
ATOM     21  F   UNL     1      -9.982  -1.963  -8.250  0.00  0.00    -0.205 F 
BRANCH  19  22
ATOM     22  C   UNL     1      -7.723  -1.697  -9.908  0.00  0.00    +0.420 C 
ATOM     23  F   UNL     1      -6.453  -1.490 -10.456  0.00  0.00    -0.166 F 
ATOM     24  F   UNL     1      -8.133  -3.010 -10.162  0.00  0.00    -0.166 F 
ATOM     25  F   UNL     1      -8.632  -0.804 -10.487  0.00  0.00    -0.166 F 
ENDBRANCH  19  22
ENDBRANCH  11  15
BRANCH   1  27
ATOM     26  N   UNL     1      -2.442  -1.653  -0.486  0.00  0.00    -0.311 N 
ATOM     27  C   UNL     1      -3.252  -0.928  -1.283  0.00  0.00    +0.218 C 
ATOM     28  O   UNL     1      -3.684   0.139  -0.900  0.00  0.00    -0.275 OA
ATOM     29  H   UNL     1      -2.097  -2.505  -0.793  0.00  0.00    +0.149 HD
BRANCH  26  30
ATOM     30  C   UNL     1      -2.084  -1.152   0.843  0.00  0.00    +0.139 C 
BRANCH  30  36
ATOM     31  C   UNL     1       0.194  -2.043   1.371  0.00  0.00    +0.009 A 
ATOM     32  C   UNL     1       1.030  -2.951   1.994  0.00  0.00    +0.050 A 
ATOM     33  C   UNL     1       0.496  -3.965   2.774  0.00  0.00    +0.162 A 
ATOM     34  C   UNL     1      -0.882  -4.064   2.931  0.00  0.00    +0.162 A 
ATOM     35  C   UNL     1      -1.715  -3.151   2.303  0.00  0.00    +0.054 A 
ATOM     36  C   UNL     1      -1.176  -2.143   1.525  0.00  0.00    -0.027 A 
ATOM     37  O   UNL     1      -1.426  -5.047   3.699  0.00  0.00    -0.485 OA
ATOM     38  C   UNL     1      -0.584  -6.163   4.008  0.00  0.00    +0.270 C 
ATOM     39  C   UNL     1       0.783  -5.625   4.452  0.00  0.00    +0.270 C 
ATOM     40  O   UNL     1       1.332  -4.854   3.378  0.00  0.00    -0.485 OA
ENDBRANCH  30  36
ENDBRANCH  26  30
ENDBRANCH   1  27
TORSDOF 5
