REMARK  Name = ZINC65920672
REMARK  8 active torsions:
REMARK  status: ('A' for Active; 'I' for Inactive)
REMARK    1  A    between atoms: C_1  and  C_2
REMARK    2  A    between atoms: C_2  and  C_3
REMARK    3  A    between atoms: C_2  and  C_4
REMARK    4  A    between atoms: C_2  and  O_5
REMARK    5  A    between atoms: O_5  and  C_6
REMARK    6  A    between atoms: C_11  and  C_14
REMARK    7  A    between atoms: N_16  and  N_17
REMARK    8  A    between atoms: N_20  and  C_21
REMARK                            x       y       z     vdW  Elec       q    Type
REMARK                         _______ _______ _______ _____ _____    ______ ____
ROOT
ATOM      1  C   UNL     1       5.150  -3.356  -4.263  0.00  0.00    +0.232 C 
ATOM      2  O   UNL     1       4.663  -4.463  -4.176  0.00  0.00    -0.274 OA
ATOM      3  N   UNL     1       6.451  -3.215  -4.587  0.00  0.00    -0.233 N 
ATOM      4  H   UNL     1       6.840  -2.329  -4.656  0.00  0.00    +0.173 HD
ENDROOT
BRANCH   1  10
ATOM      5  C   UNL     1       1.952  -0.085  -1.337  0.00  0.00    +0.403 C 
ATOM      6  O   UNL     1       2.488   0.619  -0.503  0.00  0.00    -0.226 OA
ATOM      7  N   UNL     1       2.641  -0.485  -2.424  0.00  0.00    -0.267 N 
ATOM      8  C   UNL     1       2.005  -1.331  -3.443  0.00  0.00    +0.112 C 
ATOM      9  C   UNL     1       2.874  -2.573  -3.666  0.00  0.00    +0.032 C 
ATOM     10  C   UNL     1       4.300  -2.137  -4.011  0.00  0.00    +0.079 C 
ATOM     11  C   UNL     1       4.888  -1.339  -2.845  0.00  0.00    +0.032 C 
ATOM     12  C   UNL     1       4.040  -0.078  -2.616  0.00  0.00    +0.112 C 
BRANCH   5  13
ATOM     13  O   UNL     1       0.671  -0.465  -1.174  0.00  0.00    -0.445 OA
BRANCH  13  15
ATOM     14  C   UNL     1      -0.019   1.526   0.010  0.00  0.00    +0.055 C 
ATOM     15  C   UNL     1       0.002  -0.004   0.002  0.00  0.00    +0.107 C 
ATOM     16  C   UNL     1       0.742  -0.511   1.242  0.00  0.00    +0.055 C 
ATOM     17  C   UNL     1      -1.433  -0.534   0.013  0.00  0.00    +0.055 C 
ENDBRANCH  13  15
ENDBRANCH   5  13
ENDBRANCH   1  10
BRANCH   3  18
ATOM     18  N   UNL     1       7.241  -4.348  -4.822  0.00  0.00    -0.218 N 
ATOM     19  C   UNL     1       8.542  -4.207  -5.145  0.00  0.00    +0.316 C 
ATOM     20  O   UNL     1       9.227  -5.190  -5.349  0.00  0.00    -0.251 OA
ATOM     21  N   UNL     1       9.082  -2.976  -5.241  0.00  0.00    -0.295 N 
ATOM     22  H   UNL     1       6.851  -5.233  -4.752  0.00  0.00    +0.174 HD
ATOM     23  H   UNL     1       8.536  -2.192  -5.079  0.00  0.00    +0.151 HD
BRANCH  21  24
ATOM     24  C   UNL     1      10.497  -2.823  -5.593  0.00  0.00    +0.074 C 
ATOM     25  C   UNL     1      10.658  -2.777  -7.126  0.00  0.00    +0.022 C 
ATOM     26  C   UNL     1      10.691  -1.265  -7.460  0.00  0.00    +0.002 C 
ATOM     27  C   UNL     1      11.499  -0.672  -6.279  0.00  0.00    +0.002 C 
ATOM     28  C   UNL     1      11.031  -1.484  -5.054  0.00  0.00    +0.022 C 
ENDBRANCH  21  24
ENDBRANCH   3  18
TORSDOF 5
