REMARK  Name = ZINC20873220
REMARK  14 active torsions:
REMARK  status: ('A' for Active; 'I' for Inactive)
REMARK    1  A    between atoms: C_1  and  C_2
REMARK    2  A    between atoms: C_2  and  C_3
REMARK    3  A    between atoms: C_2  and  C_4
REMARK    4  A    between atoms: C_2  and  N_5
REMARK    5  A    between atoms: C_6  and  C_8
REMARK    6  A    between atoms: C_8  and  O_9
REMARK    7  A    between atoms: O_9  and  C_10
REMARK    8  A    between atoms: C_15  and  C_16
REMARK    9  A    between atoms: C_16  and  N_17
REMARK   10  A    between atoms: N_17  and  C_18
REMARK   11  A    between atoms: C_18  and  C_19
REMARK   12  A    between atoms: C_19  and  N_20
REMARK   13  A    between atoms: N_20  and  C_21
REMARK   14  A    between atoms: C_24  and  N_28
REMARK                            x       y       z     vdW  Elec       q    Type
REMARK                         _______ _______ _______ _____ _____    ______ ____
ROOT
ATOM      1  C   UNL     1       2.450   3.947  -0.001  0.00  0.00    -0.043 C 
ENDROOT
BRANCH   1   7
ATOM      2  C   UNL     1       1.179   1.786   0.000  0.00  0.00    +0.123 A 
ATOM      3  C   UNL     1      -0.013   1.076   0.008  0.00  0.00    +0.047 A 
ATOM      4  C   UNL     1      -1.218   1.751   0.017  0.00  0.00    +0.019 A 
ATOM      5  C   UNL     1      -1.237   3.134   0.030  0.00  0.00    +0.018 A 
ATOM      6  C   UNL     1      -0.050   3.844   0.023  0.00  0.00    +0.020 A 
ATOM      7  C   UNL     1       1.158   3.173   0.008  0.00  0.00    -0.022 A 
ATOM      8 BR   UNL     1      -2.888   4.055   0.050  0.00  0.00    -0.050 Br
BRANCH   2   9
ATOM      9  O   UNL     1       2.366   1.124  -0.015  0.00  0.00    -0.483 OA
BRANCH   9  10
ATOM     10  C   UNL     1       2.312  -0.304  -0.023  0.00  0.00    +0.324 C 
BRANCH  10  12
ATOM     11  N   UNL     1       3.909  -2.192  -0.049  0.00  0.00    -0.308 N 
ATOM     12  C   UNL     1       3.713  -0.859  -0.040  0.00  0.00    +0.251 C 
ATOM     13  O   UNL     1       4.664  -0.106  -0.044  0.00  0.00    -0.272 OA
ATOM     14  H   UNL     1       3.047  -2.875  -0.045  0.00  0.00    +0.149 HD
BRANCH  11  16
ATOM     15  C   UNL     1       6.023  -2.257   1.179  0.00  0.00    +0.031 C 
ATOM     16  C   UNL     1       5.271  -2.732  -0.066  0.00  0.00    +0.026 C 
ATOM     17  C   UNL     1       5.214  -4.261  -0.074  0.00  0.00    +0.031 C 
ATOM     18  C   UNL     1       5.999  -2.243  -1.319  0.00  0.00    +0.031 C 
ENDBRANCH  11  16
ENDBRANCH  10  12
ENDBRANCH   9  10
ENDBRANCH   2   9
ENDBRANCH   1   7
BRANCH   1  19
ATOM     19  N   UNL     1       2.981   4.000  -1.370  0.00  0.00    +0.383 N 
ATOM     20  H   UNL     1       3.163   2.978  -1.732  0.00  0.00    -0.085 HD
ATOM     21  H   UNL     1       2.251   4.497  -2.026  0.00  0.00    -0.085 HD
BRANCH  19  22
ATOM     22  C   UNL     1       4.243   4.749  -1.417  0.00  0.00    -0.063 C 
BRANCH  22  23
ATOM     23  C   UNL     1       4.763   4.782  -2.855  0.00  0.00    +0.082 C 
BRANCH  23  24
ATOM     24  N   UNL     1       6.023   5.529  -2.902  0.00  0.00    -0.345 N 
ATOM     25  H   UNL     1       6.442   5.959  -1.981  0.00  0.00    +0.146 HD
BRANCH  24  26
ATOM     26  C   UNL     1       6.692   5.695  -4.118  0.00  0.00    +0.046 A 
ATOM     27  C   UNL     1       6.164   5.152  -5.282  0.00  0.00    +0.026 A 
ATOM     28  C   UNL     1       6.828   5.318  -6.482  0.00  0.00    +0.034 A 
ATOM     29  C   UNL     1       8.017   6.023  -6.526  0.00  0.00    +0.128 A 
ATOM     30  C   UNL     1       8.546   6.565  -5.369  0.00  0.00    +0.054 A 
ATOM     31  C   UNL     1       7.884   6.408  -4.165  0.00  0.00    +0.064 A 
ATOM     32 CL   UNL     1       8.544   7.095  -2.714  0.00  0.00    -0.082 Cl
BRANCH  29  33
ATOM     33  N   UNL     1       8.725   6.198  -7.814  0.00  0.00    +0.056 N 
ATOM     34  O   UNL     1       8.260   5.722  -8.834  0.00  0.00    -0.126 OA
ATOM     35  O   UNL     1       9.772   6.819  -7.853  0.00  0.00    -0.126 OA
ENDBRANCH  29  33
ENDBRANCH  24  26
ENDBRANCH  23  24
ENDBRANCH  22  23
ENDBRANCH  19  22
ENDBRANCH   1  19
TORSDOF 11
