REMARK  Name = ZINC09411560
REMARK  9 active torsions:
REMARK  status: ('A' for Active; 'I' for Inactive)
REMARK    1  A    between atoms: C_1  and  C_2
REMARK    2  A    between atoms: C_2  and  C_4
REMARK    3  A    between atoms: C_7  and  N_10
REMARK    4  A    between atoms: C_11  and  C_13
REMARK    5  A    between atoms: C_13  and  S_14
REMARK    6  A    between atoms: S_14  and  C_15
REMARK    7  A    between atoms: C_19  and  C_21
REMARK    8  A    between atoms: N_26  and  C_33
REMARK    9  A    between atoms: N_29  and  C_32
REMARK                            x       y       z     vdW  Elec       q    Type
REMARK                         _______ _______ _______ _____ _____    ______ ____
ROOT
ATOM      1  C   UNL     1      -2.014   4.693   2.735  0.00  0.00    +0.116 A 
ATOM      2  C   UNL     1      -1.958   3.344   2.342  0.00  0.00    +0.114 A 
ATOM      3  C   UNL     1      -2.402   2.353   3.241  0.00  0.00    +0.154 A 
ATOM      4  N   UNL     1      -2.858   2.723   4.427  0.00  0.00    -0.209 NA
ATOM      5  C   UNL     1      -2.896   4.010   4.765  0.00  0.00    +0.170 A 
ATOM      6  N   UNL     1      -2.487   4.975   3.947  0.00  0.00    -0.220 NA
ATOM      7  N   UNL     1      -2.346   1.032   2.851  0.00  0.00    -0.281 N 
ATOM      8  C   UNL     1      -1.876   0.697   1.637  0.00  0.00    +0.333 A 
ATOM      9  O   UNL     1      -1.843  -0.479   1.330  0.00  0.00    -0.246 OA
ATOM     10  N   UNL     1      -1.443   1.604   0.747  0.00  0.00    -0.263 N 
ATOM     11  C   UNL     1      -1.452   2.925   1.034  0.00  0.00    +0.268 A 
ATOM     12  O   UNL     1      -1.053   3.744   0.226  0.00  0.00    -0.267 OA
ATOM     13  C   UNL     1      -0.946   1.154  -0.555  0.00  0.00    +0.157 C 
ATOM     14  C   UNL     1      -2.801  -0.016   3.768  0.00  0.00    +0.155 C 
ENDROOT
BRANCH   5  15
ATOM     15  C   UNL     1      -3.410   4.379   6.095  0.00  0.00    +0.056 A 
ATOM     16  C   UNL     1      -3.537   5.625   6.658  0.00  0.00    +0.019 A 
ATOM     17  C   UNL     1      -4.057   5.694   7.930  0.00  0.00    +0.008 A 
ATOM     18  C   UNL     1      -4.404   4.545   8.564  0.00  0.00    +0.046 A 
ATOM     19  S   UNL     1      -4.022   3.323   7.396  0.00  0.00    -0.094 S 
ENDBRANCH   5  15
BRANCH   1  20
ATOM     20  S   UNL     1      -1.474   5.974   1.653  0.00  0.00    -0.096 S 
BRANCH  20  21
ATOM     21  C   UNL     1      -1.788   7.420   2.696  0.00  0.00    +0.171 C 
BRANCH  21  23
ATOM     22  N   UNL     1      -1.535   9.875   2.541  0.00  0.00    -0.285 N 
ATOM     23  C   UNL     1      -1.389   8.670   1.956  0.00  0.00    +0.227 C 
ATOM     24  O   UNL     1      -0.937   8.591   0.833  0.00  0.00    -0.275 OA
ATOM     25  H   UNL     1      -1.966   9.945   3.407  0.00  0.00    +0.155 HD
BRANCH  22  29
ATOM     26  C   UNL     1      -0.133  13.296   0.633  0.00  0.00    +0.017 A 
ATOM     27  C   UNL     1      -1.284  13.357   1.428  0.00  0.00    +0.013 A 
ATOM     28  C   UNL     1      -1.742  12.227   2.055  0.00  0.00    +0.024 A 
ATOM     29  C   UNL     1      -1.065  11.021   1.902  0.00  0.00    +0.033 A 
ATOM     30  C   UNL     1       0.083  10.957   1.117  0.00  0.00    +0.024 A 
ATOM     31  C   UNL     1       0.545  12.080   0.481  0.00  0.00    +0.013 A 
BRANCH  26  33
ATOM     32  C   UNL     1       1.600  14.435  -0.897  0.00  0.00    +0.091 C 
ATOM     33  C   UNL     1       0.361  14.504  -0.041  0.00  0.00    +0.160 C 
ATOM     34  O   UNL     1      -0.228  15.556   0.090  0.00  0.00    -0.292 OA
ENDBRANCH  26  33
ENDBRANCH  22  29
ENDBRANCH  21  23
ENDBRANCH  20  21
ENDBRANCH   1  20
TORSDOF 6
