REMARK  Name = ZINC39738094
REMARK  6 active torsions:
REMARK  status: ('A' for Active; 'I' for Inactive)
REMARK    1  A    between atoms: C_7  and  S_31
REMARK    2  A    between atoms: C_9  and  N_12
REMARK    3  A    between atoms: C_10  and  N_11
REMARK    4  A    between atoms: N_13  and  C_14
REMARK    5  A    between atoms: C_18  and  C_20
REMARK    6  A    between atoms: C_21  and  C_22
REMARK                            x       y       z     vdW  Elec       q    Type
REMARK                         _______ _______ _______ _____ _____    ______ ____
ROOT
ATOM      1  N   UNL     1       4.834  -1.104   0.351  0.00  0.00    -0.147 NA
ATOM      2  N   UNL     1       4.738  -2.349   0.025  0.00  0.00    -0.149 NA
ENDROOT
BRANCH   1  11
ATOM      3  C   UNL     1       0.808   3.699  -0.608  0.00  0.00    +0.001 A 
ATOM      4  C   UNL     1       1.928   4.183   0.064  0.00  0.00    +0.001 A 
ATOM      5  C   UNL     1       2.957   3.354   0.397  0.00  0.00    +0.010 A 
ATOM      6  C   UNL     1       2.890   1.993   0.060  0.00  0.00    +0.007 A 
ATOM      7  C   UNL     1       1.752   1.500  -0.624  0.00  0.00    +0.011 A 
ATOM      8  C   UNL     1       0.711   2.384  -0.951  0.00  0.00    +0.010 A 
ATOM      9  C   UNL     1       1.677   0.135  -0.965  0.00  0.00    +0.129 A 
ATOM     10  C   UNL     1       2.690  -0.707  -0.642  0.00  0.00    +0.061 A 
ATOM     11  C   UNL     1       3.831  -0.240   0.037  0.00  0.00    +0.109 A 
ATOM     12  C   UNL     1       3.938   1.108   0.391  0.00  0.00    +0.060 A 
BRANCH   9  13
ATOM     13  S   UNL     1       0.262  -0.480  -1.815  0.00  0.00    +0.140 S 
ATOM     14  O   UNL     1       0.464  -0.202  -3.229  0.00  0.00    -0.140 OA
ATOM     15  O   UNL     1       0.196  -1.909  -1.546  0.00  0.00    -0.140 OA
ATOM     16  O   UNL     1      -0.892   0.227  -1.282  0.00  0.00    -0.043 OA
ENDBRANCH   9  13
BRANCH  12  17
ATOM     17  N   UNL     1       5.060   1.570   1.059  0.00  0.00    -0.356 N 
ATOM     18  H   UNL     1       5.129   2.506   1.302  0.00  0.00    +0.142 HD
ATOM     19  H   UNL     1       5.777   0.957   1.284  0.00  0.00    +0.142 HD
ENDBRANCH  12  17
ENDBRANCH   1  11
BRANCH   2  20
ATOM     20  C   UNL     1       5.746  -3.218   0.341  0.00  0.00    +0.087 A 
ATOM     21  C   UNL     1       6.879  -2.760   1.020  0.00  0.00    +0.029 A 
ATOM     22  C   UNL     1       7.896  -3.636   1.339  0.00  0.00    +0.003 A 
ATOM     23  C   UNL     1       7.803  -4.970   0.990  0.00  0.00    +0.008 A 
ATOM     24  C   UNL     1       6.678  -5.440   0.310  0.00  0.00    -0.023 A 
ATOM     25  C   UNL     1       5.644  -4.564  -0.010  0.00  0.00    +0.037 A 
BRANCH  24  26
ATOM     26  C   UNL     1       6.581  -6.868  -0.063  0.00  0.00    +0.007 C 
ATOM     27  C   UNL     1       7.659  -7.518  -0.479  0.00  0.00    +0.020 C 
BRANCH  27  28
ATOM     28  C   UNL     1       8.937  -6.766  -0.746  0.00  0.00    +0.198 C 
ATOM     29  N   UNL     1       9.460  -7.116  -2.072  0.00  0.00    -0.360 N 
ATOM     30  C   UNL     1      10.637  -7.646  -1.901  0.00  0.00    +0.060 A 
ATOM     31  C   UNL     1      11.636  -8.183  -2.835  0.00  0.00    +0.027 A 
ATOM     32  C   UNL     1      12.794  -8.679  -2.356  0.00  0.00    +0.002 A 
ATOM     33  C   UNL     1      13.097  -8.707  -0.983  0.00  0.00    +0.002 A 
ATOM     34  C   UNL     1      12.252  -8.241  -0.043  0.00  0.00    +0.027 A 
ATOM     35  C   UNL     1      10.957  -7.675  -0.448  0.00  0.00    +0.060 A 
ATOM     36  N   UNL     1       9.967  -7.162   0.223  0.00  0.00    -0.360 N 
ATOM     37  H   UNL     1       9.011  -6.978  -2.921  0.00  0.00    +0.162 HD
ATOM     38  H   UNL     1       9.918  -7.061   1.187  0.00  0.00    +0.162 HD
ENDBRANCH  27  28
ENDBRANCH  24  26
ENDBRANCH   2  20
TORSDOF 6
