REMARK  Name = ZINC63374785
REMARK  9 active torsions:
REMARK  status: ('A' for Active; 'I' for Inactive)
REMARK    1  A    between atoms: C_1  and  C_2
REMARK    2  A    between atoms: C_2  and  C_3
REMARK    3  A    between atoms: C_2  and  C_4
REMARK    4  A    between atoms: C_4  and  N_5
REMARK    5  A    between atoms: C_6  and  C_8
REMARK    6  A    between atoms: C_13  and  N_14
REMARK    7  A    between atoms: C_30  and  C_35
REMARK    8  A    between atoms: C_39  and  O_41
REMARK    9  A    between atoms: O_41  and  C_42
REMARK                            x       y       z     vdW  Elec       q    Type
REMARK                         _______ _______ _______ _____ _____    ______ ____
ROOT
ATOM      1  N   UNL     1      -5.196  -4.555  -0.118  0.00  0.00    -0.192 N 
ATOM      2  C   UNL     1      -5.871  -4.077  -1.184  0.00  0.00    +0.248 C 
ATOM      3  O   UNL     1      -5.592  -4.225  -2.354  0.00  0.00    -0.273 OA
ATOM      4  C   UNL     1      -7.049  -3.318  -0.614  0.00  0.00    +0.169 C 
ATOM      5  C   UNL     1      -7.003  -1.851  -1.078  0.00  0.00    +0.065 C 
ATOM      6  C   UNL     1      -7.786  -1.057  -0.059  0.00  0.00    -0.034 C 
ATOM      7  C   UNL     1      -8.809  -0.223  -0.212  0.00  0.00    -0.001 A 
ATOM      8  C   UNL     1      -9.476   0.297  -1.416  0.00  0.00    +0.010 A 
ATOM      9  C   UNL     1     -10.526   1.135  -1.205  0.00  0.00    +0.001 A 
ATOM     10  C   UNL     1     -10.972   1.503   0.068  0.00  0.00    +0.002 A 
ATOM     11  C   UNL     1     -10.414   1.079   1.229  0.00  0.00    +0.026 A 
ATOM     12  C   UNL     1      -9.297   0.198   1.137  0.00  0.00    +0.043 A 
ATOM     13  N   UNL     1      -8.569  -0.338   2.071  0.00  0.00    -0.375 N 
ATOM     14  C   UNL     1      -7.503  -1.116   1.437  0.00  0.00    +0.131 C 
ATOM     15  C   UNL     1      -7.564  -2.595   1.845  0.00  0.00    +0.135 C 
ATOM     16  N   UNL     1      -6.810  -3.366   0.843  0.00  0.00    -0.264 N 
ATOM     17  C   UNL     1      -5.760  -4.174   1.037  0.00  0.00    +0.317 C 
ATOM     18  O   UNL     1      -5.363  -4.520   2.132  0.00  0.00    -0.252 OA
ATOM     19  H   UNL     1      -8.708  -0.239   3.026  0.00  0.00    +0.160 HD
ENDROOT
BRANCH   1  25
ATOM     20  C   UNL     1      -2.783  -4.763  -0.240  0.00  0.00    +0.059 A 
ATOM     21  C   UNL     1      -1.647  -5.573  -0.323  0.00  0.00    +0.015 A 
ATOM     22  C   UNL     1      -1.783  -6.943  -0.378  0.00  0.00    +0.001 A 
ATOM     23  C   UNL     1      -3.041  -7.523  -0.350  0.00  0.00    +0.002 A 
ATOM     24  C   UNL     1      -4.172  -6.735  -0.268  0.00  0.00    +0.025 A 
ATOM     25  C   UNL     1      -4.054  -5.354  -0.206  0.00  0.00    +0.058 A 
BRANCH  20  27
ATOM     26  N   UNL     1      -1.420  -2.732  -0.213  0.00  0.00    -0.311 N 
ATOM     27  C   UNL     1      -2.644  -3.295  -0.181  0.00  0.00    +0.246 C 
ATOM     28  O   UNL     1      -3.635  -2.594  -0.103  0.00  0.00    -0.270 OA
ATOM     29  H   UNL     1      -0.630  -3.291  -0.275  0.00  0.00    +0.149 HD
BRANCH  26  30
ATOM     30  C   UNL     1      -1.283  -1.275  -0.155  0.00  0.00    +0.107 C 
BRANCH  30  32
ATOM     31  C   UNL     1       0.338   0.623  -0.272  0.00  0.00    +0.009 C 
ATOM     32  C   UNL     1       0.199  -0.899  -0.207  0.00  0.00    -0.000 C 
ATOM     33  C   UNL     1       0.903  -1.423   1.046  0.00  0.00    +0.009 C 
ENDBRANCH  30  32
ENDBRANCH  26  30
ENDBRANCH  20  27
ENDBRANCH   1  25
BRANCH  15  34
ATOM     34  C   UNL     1      -6.949  -2.778   3.209  0.00  0.00    -0.021 A 
ATOM     35  C   UNL     1      -5.638  -2.398   3.432  0.00  0.00    +0.006 A 
ATOM     36  C   UNL     1      -5.070  -2.565   4.681  0.00  0.00    +0.004 A 
ATOM     37  C   UNL     1      -5.812  -3.113   5.710  0.00  0.00    +0.045 A 
ATOM     38  C   UNL     1      -7.127  -3.494   5.489  0.00  0.00    +0.120 A 
ATOM     39  C   UNL     1      -7.696  -3.320   4.236  0.00  0.00    +0.051 A 
BRANCH  38  40
ATOM     40  O   UNL     1      -7.858  -4.033   6.500  0.00  0.00    -0.495 OA
ATOM     41  C   UNL     1      -7.209  -4.177   7.765  0.00  0.00    +0.277 C 
ENDBRANCH  38  40
ENDBRANCH  15  34
TORSDOF 6
