REMARK  Name = ZINC01873218
REMARK  6 active torsions:
REMARK  status: ('A' for Active; 'I' for Inactive)
REMARK    1  A    between atoms: C_1  and  O_2
REMARK    2  A    between atoms: O_2  and  C_3
REMARK    3  A    between atoms: C_6  and  N_9
REMARK    4  A    between atoms: C_17  and  C_21
REMARK    5  A    between atoms: C_17  and  N_25
REMARK    6  A    between atoms: C_26  and  C_28
REMARK                            x       y       z     vdW  Elec       q    Type
REMARK                         _______ _______ _______ _____ _____    ______ ____
ROOT
ATOM      1  N   UNL     1       2.555  -2.497  -4.188  0.00  0.00    -0.249 N 
ATOM      2  C   UNL     1       2.669  -3.871  -4.249  0.00  0.00    +0.125 A 
ATOM      3  C   UNL     1       3.245  -4.424  -5.354  0.00  0.00    +0.097 A 
ATOM      4  C   UNL     1       3.705  -3.606  -6.393  0.00  0.00    +0.262 A 
ATOM      5  N   UNL     1       3.572  -2.267  -6.288  0.00  0.00    -0.274 N 
ATOM      6  C   UNL     1       2.998  -1.728  -5.197  0.00  0.00    +0.335 A 
ATOM      7  O   UNL     1       2.882  -0.520  -5.121  0.00  0.00    -0.246 OA
ATOM      8  O   UNL     1       4.221  -4.098  -7.382  0.00  0.00    -0.267 OA
ATOM      9  C   UNL     1       3.233  -5.920  -5.144  0.00  0.00    +0.240 C 
ATOM     10  C   UNL     1       2.577  -6.082  -3.788  0.00  0.00    +0.256 C 
ATOM     11  O   UNL     1       2.356  -7.124  -3.208  0.00  0.00    -0.272 OA
ATOM     12  N   UNL     1       2.289  -4.842  -3.354  0.00  0.00    -0.269 N 
ATOM     13  H   UNL     1       3.888  -1.692  -7.003  0.00  0.00    +0.173 HD
ATOM     14  H   UNL     1       1.860  -4.654  -2.505  0.00  0.00    +0.156 HD
ENDROOT
BRANCH   1  18
ATOM     15  C   UNL     1       0.804  -0.713  -0.848  0.00  0.00    +0.120 A 
ATOM     16  C   UNL     1       2.149  -0.506  -1.119  0.00  0.00    +0.047 A 
ATOM     17  C   UNL     1       2.729  -1.097  -2.225  0.00  0.00    +0.030 A 
ATOM     18  C   UNL     1       1.966  -1.897  -3.064  0.00  0.00    +0.053 A 
ATOM     19  C   UNL     1       0.621  -2.104  -2.792  0.00  0.00    +0.030 A 
ATOM     20  C   UNL     1       0.043  -1.517  -1.683  0.00  0.00    +0.047 A 
BRANCH  15  22
ATOM     21  C   UNL     1       1.077   0.685   1.057  0.00  0.00    +0.277 C 
ATOM     22  O   UNL     1       0.234  -0.131   0.240  0.00  0.00    -0.495 OA
ENDBRANCH  15  22
ENDBRANCH   1  18
BRANCH   9  23
ATOM     23  C   UNL     1       2.404  -6.609  -6.229  0.00  0.00    +0.424 C 
ATOM     24  F   UNL     1       3.022  -6.432  -7.472  0.00  0.00    -0.167 F 
ATOM     25  F   UNL     1       2.311  -7.976  -5.947  0.00  0.00    -0.167 F 
ATOM     26  F   UNL     1       1.122  -6.051  -6.262  0.00  0.00    -0.167 F 
ENDBRANCH   9  23
BRANCH   9  27
ATOM     27  N   UNL     1       4.600  -6.448  -5.123  0.00  0.00    -0.286 N 
ATOM     28  C   UNL     1       5.449  -6.080  -4.144  0.00  0.00    +0.252 C 
ATOM     29  O   UNL     1       5.116  -5.234  -3.335  0.00  0.00    -0.270 OA
ATOM     30  H   UNL     1       4.893  -7.063  -5.814  0.00  0.00    +0.151 HD
BRANCH  28  31
ATOM     31  C   UNL     1       6.776  -6.698  -4.053  0.00  0.00    +0.074 A 
ATOM     32  C   UNL     1       7.786  -6.469  -3.132  0.00  0.00    +0.021 A 
ATOM     33  C   UNL     1       8.931  -7.209  -3.305  0.00  0.00    +0.008 A 
ATOM     34  C   UNL     1       8.998  -8.088  -4.335  0.00  0.00    +0.046 A 
ATOM     35  S   UNL     1       7.507  -7.946  -5.096  0.00  0.00    -0.092 S 
ENDBRANCH  28  31
ENDBRANCH   9  27
TORSDOF 5
