REMARK  Name = ZINC39605555
REMARK  10 active torsions:
REMARK  status: ('A' for Active; 'I' for Inactive)
REMARK    1  A    between atoms: C_1  and  O_2
REMARK    2  A    between atoms: O_2  and  C_3
REMARK    3  A    between atoms: C_6  and  C_9
REMARK    4  A    between atoms: C_9  and  C_10
REMARK    5  A    between atoms: C_10  and  C_11
REMARK    6  A    between atoms: C_15  and  C_24
REMARK    7  A    between atoms: N_26  and  C_27
REMARK    8  A    between atoms: C_27  and  C_28
REMARK    9  A    between atoms: C_28  and  C_29
REMARK   10  A    between atoms: C_29  and  O_30
REMARK                            x       y       z     vdW  Elec       q    Type
REMARK                         _______ _______ _______ _____ _____    ______ ____
ROOT
ATOM      1  C   UNL     1      -6.595  -3.344  -1.526  0.00  0.00    +0.216 C 
ATOM      2  O   UNL     1      -7.062  -3.556  -0.428  0.00  0.00    -0.276 OA
ATOM      3  N   UNL     1      -7.263  -3.736  -2.630  0.00  0.00    -0.300 N 
ATOM      4  C   UNL     1      -6.854  -3.572  -4.045  0.00  0.00    +0.121 C 
ATOM      5  C   UNL     1      -7.279  -4.891  -4.728  0.00  0.00    +0.100 C 
ATOM      6  C   UNL     1      -8.408  -5.446  -3.844  0.00  0.00    -0.004 C 
ATOM      7  C   UNL     1      -8.570  -4.432  -2.702  0.00  0.00    +0.115 C 
ATOM      8  C   UNL     1      -9.702  -5.553  -4.644  0.00  0.00    -0.010 C 
ATOM      9  C   UNL     1     -10.795  -6.161  -3.760  0.00  0.00    -0.082 C 
ATOM     10  N   UNL     1     -10.371  -7.488  -3.298  0.00  0.00    +0.379 N 
ATOM     11  C   UNL     1      -9.177  -7.366  -2.452  0.00  0.00    -0.082 C 
ATOM     12  C   UNL     1      -8.017  -6.809  -3.281  0.00  0.00    -0.010 C 
ATOM     13  H   UNL     1     -11.116  -7.912  -2.766  0.00  0.00    -0.086 HD
ATOM     14  H   UNL     1     -10.158  -8.069  -4.095  0.00  0.00    -0.086 HD
ENDROOT
BRANCH   5  15
ATOM     15  C   UNL     1      -6.122  -5.856  -4.772  0.00  0.00    +0.218 C 
ATOM     16  O   UNL     1      -5.275  -5.827  -3.904  0.00  0.00    -0.275 OA
ATOM     17  N   UNL     1      -6.027  -6.750  -5.777  0.00  0.00    -0.315 N 
ATOM     18  H   UNL     1      -6.704  -6.773  -6.471  0.00  0.00    +0.149 HD
BRANCH  17  19
ATOM     19  C   UNL     1      -4.902  -7.688  -5.819  0.00  0.00    +0.106 C 
BRANCH  19  20
ATOM     20  C   UNL     1      -5.034  -8.586  -7.051  0.00  0.00    +0.046 C 
BRANCH  20  21
ATOM     21  C   UNL     1      -3.859  -9.565  -7.095  0.00  0.00    +0.157 C 
BRANCH  21  22
ATOM     22  O   UNL     1      -3.982 -10.404  -8.245  0.00  0.00    -0.395 OA
ATOM     23  H   UNL     1      -3.269 -11.052  -8.338  0.00  0.00    +0.209 HD
ENDBRANCH  21  22
ENDBRANCH  20  21
ENDBRANCH  19  20
ENDBRANCH  17  19
ENDBRANCH   5  15
BRANCH   1  24
ATOM     24  C   UNL     1      -5.268  -2.643  -1.658  0.00  0.00    +0.100 C 
BRANCH  24  25
ATOM     25  C   UNL     1      -4.726  -2.310  -0.267  0.00  0.00    +0.044 C 
BRANCH  25  29
ATOM     26  C   UNL     1      -0.962  -0.322  -0.640  0.00  0.00    +0.120 A 
ATOM     27  C   UNL     1      -2.137   0.415  -0.614  0.00  0.00    +0.046 A 
ATOM     28  C   UNL     1      -3.353  -0.230  -0.494  0.00  0.00    +0.007 A 
ATOM     29  C   UNL     1      -3.399  -1.609  -0.398  0.00  0.00    -0.047 A 
ATOM     30  C   UNL     1      -2.229  -2.345  -0.423  0.00  0.00    +0.007 A 
ATOM     31  C   UNL     1      -1.011  -1.705  -0.550  0.00  0.00    +0.046 A 
BRANCH  26  33
ATOM     32  C   UNL     1       0.210   1.736  -0.847  0.00  0.00    +0.277 C 
ATOM     33  O   UNL     1       0.235   0.310  -0.759  0.00  0.00    -0.495 OA
ENDBRANCH  26  33
ENDBRANCH  25  29
ENDBRANCH  24  25
ENDBRANCH   1  24
TORSDOF 9
