REMARK  Name = ZINC06445111
REMARK  8 active torsions:
REMARK  status: ('A' for Active; 'I' for Inactive)
REMARK    1  A    between atoms: C_12  and  C_13
REMARK    2  A    between atoms: C_13  and  N_14
REMARK    3  A    between atoms: N_14  and  C_15
REMARK    4  A    between atoms: N_14  and  C_22
REMARK    5  A    between atoms: C_15  and  C_16
REMARK    6  A    between atoms: C_16  and  N_65
REMARK    7  A    between atoms: C_22  and  N_24
REMARK    8  A    between atoms: N_24  and  C_25
REMARK                            x       y       z     vdW  Elec       q    Type
REMARK                         _______ _______ _______ _____ _____    ______ ____
ROOT
ATOM      1  N   UNL     1      -2.284   1.060   0.011  0.00  0.00    -0.310 N 
ENDROOT
BRANCH   1   2
ATOM      2  C   UNL     1      -1.224   1.852  -0.245  0.00  0.00    +0.133 C 
ATOM      3  S   UNL     1      -1.455   3.521  -0.549  0.00  0.00    -0.019 S 
BRANCH   2   4
ATOM      4  N   UNL     1       0.019   1.330  -0.261  0.00  0.00    -0.324 N 
ATOM      5  H   UNL     1       0.150   0.385  -0.089  0.00  0.00    +0.148 HD
BRANCH   4   6
ATOM      6  C   UNL     1       1.171   2.190  -0.545  0.00  0.00    +0.072 C 
ATOM      7  C   UNL     1       1.355   2.313  -2.059  0.00  0.00    +0.022 C 
ATOM      8  C   UNL     1       2.558   3.211  -2.355  0.00  0.00    +0.002 C 
ATOM      9  C   UNL     1       3.816   2.598  -1.736  0.00  0.00    +0.000 C 
ATOM     10  C   UNL     1       3.632   2.475  -0.222  0.00  0.00    +0.002 C 
ATOM     11  C   UNL     1       2.429   1.577   0.074  0.00  0.00    +0.022 C 
ENDBRANCH   4   6
ENDBRANCH   2   4
ENDBRANCH   1   2
BRANCH   1  12
ATOM     12  C   UNL     1      -3.621   1.645   0.139  0.00  0.00    +0.147 C 
BRANCH  12  24
ATOM     13  C   UNL     1      -3.679   3.096   2.149  0.00  0.00    +0.020 A 
ATOM     14  C   UNL     1      -3.989   3.296   3.564  0.00  0.00    +0.003 A 
ATOM     15  C   UNL     1      -3.755   4.528   4.188  0.00  0.00    +0.059 A 
ATOM     16  C   UNL     1      -4.058   4.686   5.522  0.00  0.00    +0.167 A 
ATOM     17  C   UNL     1      -4.597   3.621   6.254  0.00  0.00    +0.168 A 
ATOM     18  C   UNL     1      -4.830   2.401   5.647  0.00  0.00    +0.075 A 
ATOM     19  C   UNL     1      -4.531   2.226   4.301  0.00  0.00    +0.053 A 
ATOM     20  N   UNL     1      -4.760   1.016   3.678  0.00  0.00    -0.322 N 
ATOM     21  H   UNL     1      -5.133   0.279   4.187  0.00  0.00    +0.169 HD
ATOM     22  C   UNL     1      -4.477   0.845   2.375  0.00  0.00    +0.254 A 
ATOM     23  O   UNL     1      -4.697  -0.236   1.856  0.00  0.00    -0.268 OA
ATOM     24  C   UNL     1      -3.928   1.882   1.595  0.00  0.00    +0.035 A 
ATOM     25  O   UNL     1      -4.802   4.039   7.537  0.00  0.00    -0.453 OA
ATOM     26  C   UNL     1      -4.772   5.477   7.484  0.00  0.00    +0.466 C 
ATOM     27  O   UNL     1      -3.930   5.763   6.353  0.00  0.00    -0.453 OA
ENDBRANCH  12  24
ENDBRANCH   1  12
BRANCH   1  28
ATOM     28  C   UNL     1      -2.099  -0.386   0.161  0.00  0.00    +0.088 C 
BRANCH  28  29
ATOM     29  C   UNL     1      -1.823  -0.715   1.629  0.00  0.00    -0.059 C 
BRANCH  29  35
ATOM     30  C   UNL     1      -2.885  -2.888   1.494  0.00  0.00    -0.050 C 
ATOM     31  C   UNL     1      -2.633  -4.394   1.603  0.00  0.00    +0.141 C 
ATOM     32  O   UNL     1      -2.119  -4.692   2.904  0.00  0.00    -0.383 OA
ATOM     33  C   UNL     1      -0.904  -4.006   3.215  0.00  0.00    +0.141 C 
ATOM     34  C   UNL     1      -1.139  -2.496   3.122  0.00  0.00    -0.050 C 
ATOM     35  N   UNL     1      -1.619  -2.174   1.762  0.00  0.00    +0.384 N 
ATOM     36  H   UNL     1      -0.914  -2.476   1.079  0.00  0.00    -0.082 HD
ENDBRANCH  29  35
ENDBRANCH  28  29
ENDBRANCH   1  28
TORSDOF 8
