REMARK  Name = ZINC13131845
REMARK  4 active torsions:
REMARK  status: ('A' for Active; 'I' for Inactive)
REMARK    1  A    between atoms: C_1  and  O_2
REMARK    2  A    between atoms: O_2  and  C_3
REMARK    3  A    between atoms: C_7  and  C_9
REMARK    4  A    between atoms: C_12  and  C_21
REMARK                            x       y       z     vdW  Elec       q    Type
REMARK                         _______ _______ _______ _____ _____    ______ ____
ROOT
ATOM      1  C   UNL     1       1.325  -4.106  -2.289  0.00  0.00    +0.143 C 
ATOM      2  C   UNL     1       2.788  -4.565  -2.332  0.00  0.00    +0.058 C 
ATOM      3  C   UNL     1       2.852  -6.054  -2.690  0.00  0.00    +0.106 C 
ATOM      4  N   UNL     1       2.282  -6.239  -4.039  0.00  0.00    -0.307 N 
ATOM      5  C   UNL     1       1.111  -5.545  -4.311  0.00  0.00    +0.216 A 
ATOM      6  N   UNL     1       0.651  -4.555  -3.506  0.00  0.00    -0.224 N 
ATOM      7  N   UNL     1      -0.536  -4.094  -4.076  0.00  0.00    -0.132 NA
ATOM      8  C   UNL     1      -0.735  -4.803  -5.165  0.00  0.00    +0.233 A 
ATOM      9  N   UNL     1       0.274  -5.683  -5.305  0.00  0.00    -0.180 NA
ATOM     10  N   UNL     1      -1.815  -4.663  -6.037  0.00  0.00    -0.326 N 
ATOM     11  H   UNL     1       2.703  -6.813  -4.698  0.00  0.00    +0.149 HD
ATOM     12  H   UNL     1      -2.498  -3.997  -5.861  0.00  0.00    +0.145 HD
ATOM     13  H   UNL     1      -1.883  -5.231  -6.821  0.00  0.00    +0.145 HD
ENDROOT
BRANCH   3  14
ATOM     14  C   UNL     1       2.058  -6.850  -1.687  0.00  0.00    -0.027 A 
ATOM     15  C   UNL     1       0.682  -6.925  -1.799  0.00  0.00    +0.008 A 
ATOM     16  C   UNL     1      -0.048  -7.656  -0.881  0.00  0.00    +0.038 A 
ATOM     17  C   UNL     1       0.599  -8.312   0.152  0.00  0.00    +0.123 A 
ATOM     18  C   UNL     1       1.977  -8.236   0.263  0.00  0.00    +0.038 A 
ATOM     19  C   UNL     1       2.705  -7.510  -0.659  0.00  0.00    +0.008 A 
ATOM     20  F   UNL     1      -0.113  -9.026   1.051  0.00  0.00    -0.205 F 
ENDBRANCH   3  14
BRANCH   1  25
ATOM     21  C   UNL     1       0.606  -0.607  -1.056  0.00  0.00    +0.120 A 
ATOM     22  C   UNL     1       1.173   0.161  -2.063  0.00  0.00    +0.045 A 
ATOM     23  C   UNL     1       1.786  -0.455  -3.136  0.00  0.00    +0.004 A 
ATOM     24  C   UNL     1       1.836  -1.835  -3.208  0.00  0.00    +0.006 A 
ATOM     25  C   UNL     1       1.271  -2.602  -2.207  0.00  0.00    -0.019 A 
ATOM     26  C   UNL     1       0.661  -1.991  -1.128  0.00  0.00    +0.051 A 
BRANCH  21  28
ATOM     27  C   UNL     1      -0.017   1.425   0.010  0.00  0.00    +0.277 C 
ATOM     28  O   UNL     1       0.002  -0.004   0.002  0.00  0.00    -0.495 OA
ENDBRANCH  21  28
ENDBRANCH   1  25
TORSDOF 3
