REMARK  Name = ZINC01248203
REMARK  5 active torsions:
REMARK  status: ('A' for Active; 'I' for Inactive)
REMARK    1  A    between atoms: C_4  and  C_7
REMARK    2  A    between atoms: C_7  and  C_9
REMARK    3  A    between atoms: C_7  and  N_16
REMARK    4  A    between atoms: N_19  and  C_22
REMARK    5  A    between atoms: N_27  and  C_30
REMARK                            x       y       z     vdW  Elec       q    Type
REMARK                         _______ _______ _______ _____ _____    ______ ____
ROOT
ATOM      1  N   UNL     1      -1.498   5.032   0.013  0.00  0.00    -0.295 NA
ATOM      2  C   UNL     1      -2.839   4.679  -0.474  0.00  0.00    +0.067 C 
ATOM      3  C   UNL     1      -3.877   5.048   0.588  0.00  0.00    -0.062 C 
ATOM      4  N   UNL     1      -3.787   6.485   0.880  0.00  0.00    +0.389 N 
ATOM      5  C   UNL     1      -2.446   6.838   1.367  0.00  0.00    -0.062 C 
ATOM      6  C   UNL     1      -1.408   6.469   0.305  0.00  0.00    +0.067 C 
ATOM      7  H   UNL     1      -3.964   7.034  -0.057  0.00  0.00    -0.081 HD
ENDROOT
BRANCH   4   8
ATOM      8  C   UNL     1      -4.821   6.893   1.841  0.00  0.00    +0.029 C 
ATOM      9  C   UNL     1      -6.228   6.633   1.268  0.00  0.00    +0.090 C 
ATOM     10  C   UNL     1      -6.829   5.640   2.239  0.00  0.00    +0.225 C 
ATOM     11  O   UNL     1      -7.941   5.164   2.159  0.00  0.00    -0.275 OA
ATOM     12  N   UNL     1      -5.938   5.370   3.200  0.00  0.00    -0.212 N 
ATOM     13  C   UNL     1      -4.774   6.019   3.076  0.00  0.00    +0.213 C 
ATOM     14  O   UNL     1      -3.831   5.923   3.832  0.00  0.00    -0.277 OA
BRANCH  12  15
ATOM     15  C   UNL     1      -6.201   4.480   4.252  0.00  0.00    +0.044 A 
ATOM     16  C   UNL     1      -6.356   3.125   3.993  0.00  0.00    +0.025 A 
ATOM     17  C   UNL     1      -6.611   2.250   5.031  0.00  0.00    +0.016 A 
ATOM     18  C   UNL     1      -6.721   2.724   6.325  0.00  0.00    +0.013 A 
ATOM     19  C   UNL     1      -6.573   4.074   6.585  0.00  0.00    +0.016 A 
ATOM     20  C   UNL     1      -6.313   4.953   5.552  0.00  0.00    +0.025 A 
ATOM     21  I   UNL     1      -7.115   1.394   7.896  0.00  0.00    -0.044 I 
ENDBRANCH  12  15
ENDBRANCH   4   8
BRANCH   1  22
ATOM     22  C   UNL     1      -0.465   4.624  -0.949  0.00  0.00    +0.117 C 
BRANCH  22  23
ATOM     23  C   UNL     1      -0.571   3.143  -1.202  0.00  0.00    -0.026 A 
ATOM     24  C   UNL     1      -0.712   2.268  -0.141  0.00  0.00    +0.007 A 
ATOM     25  C   UNL     1      -0.816   0.910  -0.373  0.00  0.00    +0.020 A 
ATOM     26  C   UNL     1      -0.766   0.424  -1.667  0.00  0.00    +0.041 A 
ATOM     27  C   UNL     1      -0.619   1.299  -2.729  0.00  0.00    +0.020 A 
ATOM     28  C   UNL     1      -0.521   2.658  -2.496  0.00  0.00    +0.007 A 
ATOM     29 CL   UNL     1      -0.888  -1.283  -1.959  0.00  0.00    -0.084 Cl
ENDBRANCH  22  23
BRANCH  22  33
ATOM     30  C   UNL     1       3.396   5.524   0.644  0.00  0.00    +0.000 A 
ATOM     31  C   UNL     1       2.447   4.907   1.438  0.00  0.00    +0.000 A 
ATOM     32  C   UNL     1       1.196   4.620   0.924  0.00  0.00    +0.005 A 
ATOM     33  C   UNL     1       0.897   4.941  -0.387  0.00  0.00    -0.026 A 
ATOM     34  C   UNL     1       1.848   5.553  -1.183  0.00  0.00    +0.005 A 
ATOM     35  C   UNL     1       3.097   5.844  -0.667  0.00  0.00    +0.000 A 
ENDBRANCH  22  33
ENDBRANCH   1  22
TORSDOF 5
