REMARK  Name = ZINC01865607
REMARK  13 active torsions:
REMARK  status: ('A' for Active; 'I' for Inactive)
REMARK    1  A    between atoms: C_1  and  C_2
REMARK    2  A    between atoms: C_2  and  C_3
REMARK    3  A    between atoms: C_2  and  C_4
REMARK    4  A    between atoms: C_2  and  N_51
REMARK    5  A    between atoms: C_4  and  C_5
REMARK    6  A    between atoms: C_11  and  C_12
REMARK    7  A    between atoms: C_11  and  N_51
REMARK    8  A    between atoms: C_12  and  C_14
REMARK    9  A    between atoms: C_12  and  O_26
REMARK   10  A    between atoms: C_17  and  O_25
REMARK   11  A    between atoms: C_18  and  N_20
REMARK   12  A    between atoms: N_20  and  S_21
REMARK   13  A    between atoms: S_21  and  C_24
REMARK                            x       y       z     vdW  Elec       q    Type
REMARK                         _______ _______ _______ _____ _____    ______ ____
ROOT
ATOM      1  C   UNL     1       0.573  -4.051  -0.338  0.00  0.00    +0.128 C 
ENDROOT
BRANCH   1   2
ATOM      2  C   UNL     1       0.465  -2.553  -0.207  0.00  0.00    -0.019 A 
ATOM      3  C   UNL     1       0.535  -1.756  -1.335  0.00  0.00    +0.010 A 
ATOM      4  C   UNL     1       0.431  -0.382  -1.222  0.00  0.00    +0.048 A 
ATOM      5  C   UNL     1       0.268   0.201   0.024  0.00  0.00    +0.139 A 
ATOM      6  C   UNL     1       0.196  -0.602   1.161  0.00  0.00    +0.089 A 
ATOM      7  C   UNL     1       0.296  -1.980   1.039  0.00  0.00    +0.034 A 
BRANCH   6   8
ATOM      8  N   UNL     1       0.025  -0.019   2.422  0.00  0.00    -0.217 N 
ATOM      9  H   UNL     1      -0.527   0.773   2.519  0.00  0.00    +0.173 HD
BRANCH   8  10
ATOM     10  S   UNL     1       0.763  -0.682   3.748  0.00  0.00    +0.040 S 
ATOM     11  O   UNL     1       0.451   0.202   4.816  0.00  0.00    -0.155 OA
ATOM     12  O   UNL     1       0.321  -2.032   3.772  0.00  0.00    -0.155 OA
ATOM     13  C   UNL     1       2.537  -0.612   3.377  0.00  0.00    +0.218 C 
ENDBRANCH   8  10
ENDBRANCH   6   8
BRANCH   5  14
ATOM     14  O   UNL     1       0.171   1.553   0.137  0.00  0.00    -0.505 OA
ATOM     15  H   UNL     1       1.020   1.999   0.264  0.00  0.00    +0.292 HD
ENDBRANCH   5  14
ENDBRANCH   1   2
BRANCH   1  16
ATOM     16  O   UNL     1       1.569  -4.374  -1.310  0.00  0.00    -0.389 OA
ATOM     17  H   UNL     1       1.386  -4.023  -2.192  0.00  0.00    +0.210 HD
ENDBRANCH   1  16
BRANCH   1  18
ATOM     18  C   UNL     1      -0.776  -4.622  -0.781  0.00  0.00    -0.045 C 
BRANCH  18  19
ATOM     19  N   UNL     1      -0.697  -6.095  -0.790  0.00  0.00    +0.385 N 
ATOM     20  H   UNL     1       0.039  -6.391  -1.442  0.00  0.00    -0.085 HD
ATOM     21  H   UNL     1      -0.470  -6.428   0.155  0.00  0.00    -0.085 HD
BRANCH  19  23
ATOM     22  C   UNL     1      -3.087  -6.244  -0.243  0.00  0.00    -0.010 C 
ATOM     23  C   UNL     1      -1.985  -6.675  -1.214  0.00  0.00    -0.070 C 
ATOM     24  C   UNL     1      -2.329  -6.189  -2.623  0.00  0.00    -0.010 C 
BRANCH  23  25
ATOM     25  C   UNL     1      -1.873  -8.200  -1.214  0.00  0.00    +0.022 C 
BRANCH  25  26
ATOM     26  C   UNL     1      -3.186  -8.801  -1.646  0.00  0.00    -0.049 A 
ATOM     27  C   UNL     1      -4.150  -9.108  -0.703  0.00  0.00    +0.003 A 
ATOM     28  C   UNL     1      -5.356  -9.654  -1.100  0.00  0.00    +0.000 A 
ATOM     29  C   UNL     1      -5.595  -9.902  -2.439  0.00  0.00    +0.000 A 
ATOM     30  C   UNL     1      -4.629  -9.600  -3.381  0.00  0.00    +0.000 A 
ATOM     31  C   UNL     1      -3.425  -9.049  -2.985  0.00  0.00    +0.003 A 
ENDBRANCH  25  26
ENDBRANCH  23  25
ENDBRANCH  19  23
ENDBRANCH  18  19
ENDBRANCH   1  18
TORSDOF 10
