REMARK  Name = ZINC42459559
REMARK  7 active torsions:
REMARK  status: ('A' for Active; 'I' for Inactive)
REMARK    1  A    between atoms: C_1  and  C_2
REMARK    2  A    between atoms: C_2  and  C_4
REMARK    3  A    between atoms: C_2  and  C_16
REMARK    4  A    between atoms: C_4  and  N_5
REMARK    5  A    between atoms: N_5  and  C_6
REMARK    6  A    between atoms: N_5  and  C_7
REMARK    7  A    between atoms: C_7  and  C_8
REMARK                            x       y       z     vdW  Elec       q    Type
REMARK                         _______ _______ _______ _____ _____    ______ ____
ROOT
ATOM      1  N   UNL     1      -0.057  -0.113  -2.444  0.00  0.00    -0.300 NA
ATOM      2  C   UNL     1      -1.348  -0.813  -2.479  0.00  0.00    +0.105 C 
ENDROOT
BRANCH   1   3
ATOM      3  C   UNL     1       0.718  -0.497  -1.257  0.00  0.00    +0.095 C 
BRANCH   3   5
ATOM      4  C   UNL     1      -0.019   1.526   0.010  0.00  0.00    +0.016 C 
ATOM      5  C   UNL     1       0.002  -0.004   0.002  0.00  0.00    +0.061 C 
BRANCH   5   6
ATOM      6  C   UNL     1       0.731  -0.503   1.223  0.00  0.00    +0.067 C 
ATOM      7  N   UNL     1       1.630   0.264   1.816  0.00  0.00    -0.390 N 
ATOM      8  N   UNL     1       0.471  -1.708   1.701  0.00  0.00    -0.348 N 
ATOM      9  H   UNL     1       1.820   1.148   1.465  0.00  0.00    +0.157 HD
ATOM     10  H   UNL     1      -0.188  -2.271   1.266  0.00  0.00    +0.143 HD
ATOM     11  H   UNL     1       0.941  -2.029   2.487  0.00  0.00    +0.143 HD
ATOM     12  H   UNL     1       2.099  -0.058   2.602  0.00  0.00    +0.157 HD
ENDBRANCH   5   6
ENDBRANCH   3   5
ENDBRANCH   1   3
BRANCH   1  13
ATOM     13  C   UNL     1       0.708  -0.357  -3.674  0.00  0.00    +0.120 C 
BRANCH  13  14
ATOM     14  C   UNL     1      -0.008   0.270  -4.843  0.00  0.00    -0.019 A 
ATOM     15  C   UNL     1      -0.787  -0.512  -5.675  0.00  0.00    +0.009 A 
ATOM     16  C   UNL     1      -1.444   0.061  -6.747  0.00  0.00    +0.039 A 
ATOM     17  C   UNL     1      -1.322   1.419  -6.988  0.00  0.00    +0.124 A 
ATOM     18  C   UNL     1      -0.542   2.202  -6.155  0.00  0.00    +0.054 A 
ATOM     19  C   UNL     1       0.111   1.627  -5.079  0.00  0.00    +0.025 A 
ATOM     20 BR   UNL     1       1.171   2.697  -3.936  0.00  0.00    -0.050 Br
ATOM     21  F   UNL     1      -1.964   1.980  -8.037  0.00  0.00    -0.205 F 
ENDBRANCH  13  14
ENDBRANCH   1  13
TORSDOF 5
