REMARK  Name = ZINC02543033
REMARK  7 active torsions:
REMARK  status: ('A' for Active; 'I' for Inactive)
REMARK    1  A    between atoms: C_4  and  C_7
REMARK    2  A    between atoms: C_7  and  O_9
REMARK    3  A    between atoms: O_9  and  C_10
REMARK    4  A    between atoms: C_15  and  C_16
REMARK    5  A    between atoms: N_17  and  N_18
REMARK    6  A    between atoms: C_19  and  C_21
REMARK    7  A    between atoms: N_23  and  C_24
REMARK                            x       y       z     vdW  Elec       q    Type
REMARK                         _______ _______ _______ _____ _____    ______ ____
ROOT
ATOM      1  C   UNL     1       0.616   2.016  -0.051  0.00  0.00    +0.142 C 
ATOM      2  N   UNL     1      -0.557   2.566   0.052  0.00  0.00    -0.187 NA
ENDROOT
BRANCH   1   8
ATOM      3  C   UNL     1       1.704   4.256  -0.162  0.00  0.00    +0.141 A 
ATOM      4  C   UNL     1       2.844   5.040  -0.215  0.00  0.00    +0.048 A 
ATOM      5  C   UNL     1       4.093   4.448  -0.229  0.00  0.00    +0.019 A 
ATOM      6  C   UNL     1       4.215   3.068  -0.186  0.00  0.00    +0.019 A 
ATOM      7  C   UNL     1       3.089   2.272  -0.128  0.00  0.00    +0.028 A 
ATOM      8  C   UNL     1       1.821   2.859  -0.113  0.00  0.00    +0.038 A 
ATOM      9 BR   UNL     1       5.930   2.273  -0.206  0.00  0.00    -0.050 Br
BRANCH   3  10
ATOM     10  O   UNL     1       0.476   4.837  -0.154  0.00  0.00    -0.422 OA
BRANCH  10  11
ATOM     11  C   UNL     1      -0.058   5.122   1.050  0.00  0.00    +0.344 C 
ATOM     12  O   UNL     1       0.507   4.765   2.065  0.00  0.00    -0.245 OA
BRANCH  11  16
ATOM     13  C   UNL     1      -3.713   7.269   1.298  0.00  0.00    +0.000 A 
ATOM     14  C   UNL     1      -3.022   6.949   2.454  0.00  0.00    +0.001 A 
ATOM     15  C   UNL     1      -1.835   6.251   2.380  0.00  0.00    +0.015 A 
ATOM     16  C   UNL     1      -1.329   5.869   1.136  0.00  0.00    +0.059 A 
ATOM     17  C   UNL     1      -2.028   6.200  -0.026  0.00  0.00    +0.015 A 
ATOM     18  C   UNL     1      -3.218   6.893   0.062  0.00  0.00    +0.001 A 
ENDBRANCH  11  16
ENDBRANCH  10  11
ENDBRANCH   3  10
ENDBRANCH   1   8
BRANCH   2  19
ATOM     19  N   UNL     1      -1.695   1.764   0.212  0.00  0.00    -0.199 N 
ATOM     20  C   UNL     1      -2.920   2.326   0.214  0.00  0.00    +0.318 C 
ATOM     21  O   UNL     1      -3.045   3.512  -0.015  0.00  0.00    -0.263 OA
ATOM     22  H   UNL     1      -1.601   0.805   0.321  0.00  0.00    +0.178 HD
BRANCH  20  23
ATOM     23  C   UNL     1      -4.123   1.491   0.498  0.00  0.00    +0.305 C 
ATOM     24  O   UNL     1      -3.998   0.305   0.726  0.00  0.00    -0.265 OA
ATOM     25  N   UNL     1      -5.348   2.053   0.500  0.00  0.00    -0.278 N 
ATOM     26  H   UNL     1      -5.456   2.981   0.240  0.00  0.00    +0.155 HD
BRANCH  25  27
ATOM     27  C   UNL     1      -6.462   1.298   0.877  0.00  0.00    +0.034 A 
ATOM     28  C   UNL     1      -7.690   1.518   0.267  0.00  0.00    +0.025 A 
ATOM     29  C   UNL     1      -8.788   0.767   0.638  0.00  0.00    +0.022 A 
ATOM     30  C   UNL     1      -8.668  -0.196   1.625  0.00  0.00    +0.041 A 
ATOM     31  C   UNL     1      -7.447  -0.412   2.239  0.00  0.00    +0.022 A 
ATOM     32  C   UNL     1      -6.344   0.332   1.868  0.00  0.00    +0.025 A 
ATOM     33 CL   UNL     1     -10.052  -1.134   2.094  0.00  0.00    -0.084 Cl
ENDBRANCH  25  27
ENDBRANCH  20  23
ENDBRANCH   2  19
TORSDOF 7
