REMARK  Name = ZINC38610569
REMARK  5 active torsions:
REMARK  status: ('A' for Active; 'I' for Inactive)
REMARK    1  A    between atoms: C_1  and  S_2
REMARK    2  A    between atoms: S_2  and  N_5
REMARK    3  A    between atoms: C_6  and  C_30
REMARK    4  A    between atoms: C_9  and  C_11
REMARK    5  A    between atoms: C_13  and  C_24
REMARK                            x       y       z     vdW  Elec       q    Type
REMARK                         _______ _______ _______ _____ _____    ______ ____
ROOT
ATOM      1  C   UNL     1       0.603  -1.083  -4.876  0.00  0.00    +0.152 C 
ATOM      2  C   UNL     1      -0.778  -0.551  -5.209  0.00  0.00    -0.014 C 
ATOM      3  C   UNL     1      -1.657  -1.426  -5.853  0.00  0.00    +0.002 A 
ATOM      4  C   UNL     1      -2.960  -1.013  -6.199  0.00  0.00    +0.030 A 
ATOM      5  C   UNL     1      -3.796  -1.885  -6.826  0.00  0.00    +0.042 A 
ATOM      6  C   UNL     1      -3.391  -3.183  -7.132  0.00  0.00    +0.022 A 
ATOM      7  C   UNL     1      -2.146  -3.639  -6.823  0.00  0.00    +0.025 A 
ATOM      8  C   UNL     1      -1.229  -2.792  -6.175  0.00  0.00    +0.041 A 
ATOM      9  N   UNL     1      -0.006  -3.242  -5.872  0.00  0.00    -0.284 N 
ATOM     10  C   UNL     1       0.908  -2.511  -5.266  0.00  0.00    +0.230 C 
ATOM     11  O   UNL     1       2.001  -2.988  -5.022  0.00  0.00    -0.274 OA
ATOM     12 CL   UNL     1      -5.399  -1.371  -7.251  0.00  0.00    -0.084 Cl
ATOM     13  H   UNL     1       0.219  -4.154  -6.111  0.00  0.00    +0.155 HD
ENDROOT
BRANCH   2  14
ATOM     14  C   UNL     1      -1.159   0.775  -4.883  0.00  0.00    -0.020 A 
ATOM     15  C   UNL     1      -2.213   1.006  -3.984  0.00  0.00    +0.008 A 
ATOM     16  C   UNL     1      -2.576   2.298  -3.674  0.00  0.00    +0.001 A 
ATOM     17  C   UNL     1      -1.905   3.367  -4.245  0.00  0.00    +0.000 A 
ATOM     18  C   UNL     1      -0.864   3.150  -5.132  0.00  0.00    +0.001 A 
ATOM     19  C   UNL     1      -0.481   1.866  -5.451  0.00  0.00    +0.008 A 
ENDBRANCH   2  14
BRANCH   1  23
ATOM     20  N   UNL     1       0.322  -0.588  -1.229  0.00  0.00    -0.120 N 
ATOM     21  C   UNL     1       1.751  -0.937  -1.180  0.00  0.00    +0.154 C 
ATOM     22  C   UNL     1       2.103  -1.197  -2.659  0.00  0.00    +0.084 C 
ATOM     23  C   UNL     1       0.799  -0.959  -3.387  0.00  0.00    +0.057 C 
ATOM     24  N   UNL     1      -0.106  -0.642  -2.554  0.00  0.00    -0.171 NA
BRANCH  21  25
ATOM     25  C   UNL     1       1.967  -2.177  -0.352  0.00  0.00    -0.005 A 
ATOM     26  C   UNL     1       0.937  -3.082  -0.180  0.00  0.00    +0.007 A 
ATOM     27  C   UNL     1       1.135  -4.220   0.579  0.00  0.00    +0.000 A 
ATOM     28  C   UNL     1       2.364  -4.454   1.167  0.00  0.00    +0.001 A 
ATOM     29  C   UNL     1       3.395  -3.550   0.996  0.00  0.00    +0.020 A 
ATOM     30  C   UNL     1       3.199  -2.413   0.232  0.00  0.00    +0.046 A 
ATOM     31 CL   UNL     1       4.496  -1.281   0.011  0.00  0.00    -0.083 Cl
ENDBRANCH  21  25
BRANCH  20  33
ATOM     32  C   UNL     1      -0.599   1.610   0.148  0.00  0.00    +0.220 C 
ATOM     33  S   UNL     1      -0.624  -0.202   0.075  0.00  0.00    +0.057 S 
ATOM     34  O   UNL     1       0.062  -0.747   1.194  0.00  0.00    -0.154 OA
ATOM     35  O   UNL     1      -1.923  -0.660  -0.272  0.00  0.00    -0.154 OA
ENDBRANCH  20  33
ENDBRANCH   1  23
TORSDOF 4
