REMARK  Name = ZINC12243711
REMARK  5 active torsions:
REMARK  status: ('A' for Active; 'I' for Inactive)
REMARK    1  A    between atoms: C_1  and  O_2
REMARK    2  A    between atoms: O_2  and  C_3
REMARK    3  A    between atoms: C_5  and  C_11
REMARK    4  A    between atoms: C_7  and  O_9
REMARK    5  A    between atoms: O_9  and  C_10
REMARK                            x       y       z     vdW  Elec       q    Type
REMARK                         _______ _______ _______ _____ _____    ______ ____
ROOT
ATOM      1  C   UNL     1      -1.196   2.291   0.031  0.00  0.00    +0.009 C 
ATOM      2  C   UNL     1      -0.016   1.355   0.009  0.00  0.00    +0.029 A 
ATOM      3  C   UNL     1       1.271   1.769  -0.001  0.00  0.00    +0.059 A 
ATOM      4  N   UNL     1       2.053   0.690  -0.011  0.00  0.00    -0.241 NA
ATOM      5  C   UNL     1       1.302  -0.382  -0.010  0.00  0.00    +0.196 A 
ATOM      6  N   UNL     1       0.002  -0.004   0.002  0.00  0.00    -0.349 N 
ATOM      7  H   UNL     1      -0.794  -0.610   0.005  0.00  0.00    +0.166 HD
ATOM      8  C   UNL     1       1.667   3.226  -0.002  0.00  0.00    +0.038 C 
ATOM      9  C   UNL     1       0.430   4.049  -0.390  0.00  0.00    -0.075 C 
ATOM     10  N   UNL     1      -0.725   3.635   0.434  0.00  0.00    +0.388 N 
ATOM     11  H   UNL     1      -0.445   3.613   1.422  0.00  0.00    -0.084 HD
ATOM     12  H   UNL     1      -1.488   4.312   0.310  0.00  0.00    -0.084 HD
ENDROOT
BRANCH   1  15
ATOM     13  C   UNL     1      -4.263   0.649   1.510  0.00  0.00    +0.124 A 
ATOM     14  C   UNL     1      -3.324   1.102   0.594  0.00  0.00    +0.048 A 
ATOM     15  C   UNL     1      -2.215   1.801   1.028  0.00  0.00    -0.049 A 
ATOM     16  C   UNL     1      -2.034   2.048   2.376  0.00  0.00    +0.048 A 
ATOM     17  C   UNL     1      -2.973   1.602   3.296  0.00  0.00    +0.124 A 
ATOM     18  C   UNL     1      -4.087   0.900   2.862  0.00  0.00    +0.091 A 
BRANCH  13  20
ATOM     19  C   UNL     1      -6.279  -0.475   2.081  0.00  0.00    +0.277 C 
ATOM     20  O   UNL     1      -5.354  -0.040   1.082  0.00  0.00    -0.495 OA
ENDBRANCH  13  20
BRANCH  17  21
ATOM     21  O   UNL     1      -2.799   1.850   4.620  0.00  0.00    -0.495 OA
ATOM     22  C   UNL     1      -3.802   1.357   5.510  0.00  0.00    +0.277 C 
ENDBRANCH  17  21
ENDBRANCH   1  15
TORSDOF 3
