REMARK  Name = ZINC02907765
REMARK  12 active torsions:
REMARK  status: ('A' for Active; 'I' for Inactive)
REMARK    1  A    between atoms: C_1  and  C_2
REMARK    2  A    between atoms: C_2  and  C_3
REMARK    3  A    between atoms: C_2  and  C_10
REMARK    4  A    between atoms: C_2  and  O_25
REMARK    5  A    between atoms: C_10  and  C_12
REMARK    6  A    between atoms: C_10  and  C_19
REMARK    7  A    between atoms: C_12  and  N_13
REMARK    8  A    between atoms: N_13  and  C_14
REMARK    9  A    between atoms: C_14  and  C_15
REMARK   10  A    between atoms: C_15  and  C_16
REMARK   11  A    between atoms: C_16  and  C_17
REMARK   12  A    between atoms: C_17  and  O_18
REMARK                            x       y       z     vdW  Elec       q    Type
REMARK                         _______ _______ _______ _____ _____    ______ ____
ROOT
ATOM      1  C   UNL     1       0.715  -0.446  -1.302  0.00  0.00    +0.038 C 
ENDROOT
BRANCH   1   2
ATOM      2  C   UNL     1       0.894  -1.942  -1.313  0.00  0.00    -0.043 A 
ATOM      3  C   UNL     1      -0.212  -2.770  -1.356  0.00  0.00    +0.004 A 
ATOM      4  C   UNL     1      -0.049  -4.143  -1.367  0.00  0.00    +0.000 A 
ATOM      5  C   UNL     1       1.221  -4.687  -1.335  0.00  0.00    +0.000 A 
ATOM      6  C   UNL     1       2.328  -3.860  -1.293  0.00  0.00    +0.000 A 
ATOM      7  C   UNL     1       2.164  -2.487  -1.287  0.00  0.00    +0.004 A 
ENDBRANCH   1   2
BRANCH   1   9
ATOM      8  C   UNL     1      -0.063   1.505   0.051  0.00  0.00    +0.047 C 
ATOM      9  C   UNL     1       0.095  -0.017   0.029  0.00  0.00    +0.093 C 
BRANCH   9  10
ATOM     10  C   UNL     1       0.991  -0.445   1.163  0.00  0.00    -0.016 A 
ATOM     11  C   UNL     1       2.357  -0.527   0.970  0.00  0.00    +0.007 A 
ATOM     12  C   UNL     1       3.179  -0.920   2.010  0.00  0.00    +0.015 A 
ATOM     13  C   UNL     1       2.634  -1.231   3.243  0.00  0.00    +0.018 A 
ATOM     14  C   UNL     1       1.267  -1.149   3.435  0.00  0.00    +0.015 A 
ATOM     15  C   UNL     1       0.446  -0.751   2.396  0.00  0.00    +0.007 A 
ATOM     16 BR   UNL     1       3.759  -1.768   4.665  0.00  0.00    -0.050 Br
ENDBRANCH   9  10
BRANCH   9  17
ATOM     17  O   UNL     1      -1.187  -0.630   0.177  0.00  0.00    -0.384 OA
ATOM     18  H   UNL     1      -1.153  -1.590   0.291  0.00  0.00    +0.211 HD
ENDBRANCH   9  17
ENDBRANCH   1   9
BRANCH   1  19
ATOM     19  C   UNL     1      -0.206  -0.033  -2.451  0.00  0.00    -0.071 C 
BRANCH  19  20
ATOM     20  N   UNL     1       0.443  -0.337  -3.733  0.00  0.00    +0.380 N 
ATOM     21  H   UNL     1       1.312   0.172  -3.799  0.00  0.00    -0.086 HD
ATOM     22  H   UNL     1       0.629  -1.328  -3.790  0.00  0.00    -0.086 HD
BRANCH  20  23
ATOM     23  C   UNL     1      -0.442   0.059  -4.837  0.00  0.00    -0.083 C 
BRANCH  23  24
ATOM     24  C   UNL     1       0.234  -0.258  -6.172  0.00  0.00    -0.017 C 
BRANCH  24  25
ATOM     25  C   UNL     1      -0.687   0.155  -7.321  0.00  0.00    +0.026 C 
BRANCH  25  26
ATOM     26  C   UNL     1      -0.011  -0.162  -8.656  0.00  0.00    +0.156 C 
BRANCH  26  27
ATOM     27  O   UNL     1      -0.872   0.223  -9.730  0.00  0.00    -0.395 OA
ATOM     28  H   UNL     1      -0.506   0.051 -10.608  0.00  0.00    +0.209 HD
ENDBRANCH  26  27
ENDBRANCH  25  26
ENDBRANCH  24  25
ENDBRANCH  23  24
ENDBRANCH  20  23
ENDBRANCH  19  20
ENDBRANCH   1  19
TORSDOF 11
