REMARK  Name = ZINC61653258
REMARK  10 active torsions:
REMARK  status: ('A' for Active; 'I' for Inactive)
REMARK    1  A    between atoms: C_1  and  C_2
REMARK    2  A    between atoms: C_3  and  C_9
REMARK    3  A    between atoms: C_4  and  N_8
REMARK    4  A    between atoms: N_5  and  C_7
REMARK    5  A    between atoms: C_9  and  N_10
REMARK    6  A    between atoms: N_13  and  C_16
REMARK    7  A    between atoms: C_16  and  C_17
REMARK    8  A    between atoms: C_17  and  N_18
REMARK    9  A    between atoms: N_18  and  C_19
REMARK   10  A    between atoms: N_18  and  C_20
REMARK                            x       y       z     vdW  Elec       q    Type
REMARK                         _______ _______ _______ _____ _____    ______ ____
ROOT
ATOM      1  C   UNL     1      -0.005  -0.341  -2.566  0.00  0.00    +0.124 C 
ENDROOT
BRANCH   1   4
ATOM      2  C   UNL     1      -0.018   1.503   0.010  0.00  0.00    +0.065 C 
ATOM      3  C   UNL     1       0.002  -0.004   0.002  0.00  0.00    +0.037 A 
ATOM      4  C   UNL     1       0.008  -0.816  -1.136  0.00  0.00    +0.026 A 
ATOM      5  C   UNL     1       0.027  -2.113  -0.721  0.00  0.00    +0.117 A 
ATOM      6  N   UNL     1       0.034  -2.110   0.631  0.00  0.00    -0.276 N 
ATOM      7  N   UNL     1       0.023  -0.776   1.058  0.00  0.00    -0.300 N 
ATOM      8  C   UNL     1       0.053  -3.292   1.496  0.00  0.00    +0.172 C 
ATOM      9  H   UNL     1       0.028  -0.475   1.981  0.00  0.00    +0.187 HD
BRANCH   5  10
ATOM     10  N   UNL     1       0.038  -3.238  -1.541  0.00  0.00    -0.343 N 
ATOM     11  H   UNL     1       0.032  -3.136  -2.506  0.00  0.00    +0.144 HD
ATOM     12  H   UNL     1       0.052  -4.125  -1.147  0.00  0.00    +0.144 HD
ENDBRANCH   5  10
ENDBRANCH   1   4
BRANCH   1  13
ATOM     13  N   UNL     1       1.376  -0.168  -3.037  0.00  0.00    -0.296 NA
ATOM     14  C   UNL     1       2.045   0.923  -2.315  0.00  0.00    +0.100 C 
ATOM     15  C   UNL     1       3.501   1.019  -2.777  0.00  0.00    +0.099 C 
ATOM     16  N   UNL     1       3.538   1.251  -4.228  0.00  0.00    -0.302 NA
ATOM     17  C   UNL     1       2.868   0.159  -4.950  0.00  0.00    +0.099 C 
ATOM     18  C   UNL     1       1.412   0.064  -4.487  0.00  0.00    +0.100 C 
BRANCH  16  19
ATOM     19  C   UNL     1       4.918   1.424  -4.699  0.00  0.00    +0.066 C 
BRANCH  19  20
ATOM     20  C   UNL     1       4.905   1.906  -6.151  0.00  0.00    -0.064 C 
BRANCH  20  21
ATOM     21  N   UNL     1       6.286   2.079  -6.622  0.00  0.00    +0.377 N 
ATOM     22  C   UNL     1       6.276   2.426  -8.049  0.00  0.00    -0.097 C 
ATOM     23  C   UNL     1       6.931   3.157  -5.860  0.00  0.00    -0.097 C 
ATOM     24  H   UNL     1       6.797   1.220  -6.488  0.00  0.00    -0.083 HD
ENDBRANCH  20  21
ENDBRANCH  19  20
ENDBRANCH  16  19
ENDBRANCH   1  13
TORSDOF 6
