REMARK  Name = ZINC16399925
REMARK  5 active torsions:
REMARK  status: ('A' for Active; 'I' for Inactive)
REMARK    1  A    between atoms: C_3  and  N_10
REMARK    2  A    between atoms: C_5  and  N_7
REMARK    3  A    between atoms: N_23  and  N_24
REMARK    4  A    between atoms: C_25  and  C_26
REMARK    5  A    between atoms: C_31  and  O_32
REMARK                            x       y       z     vdW  Elec       q    Type
REMARK                         _______ _______ _______ _____ _____    ______ ____
ROOT
ATOM      1  N   UNL     1       3.518   2.045  -0.363  0.00  0.00    -0.283 N 
ATOM      2  C   UNL     1       3.488   3.403  -0.620  0.00  0.00    +0.225 A 
ATOM      3  N   UNL     1       2.348   4.076  -0.501  0.00  0.00    -0.179 NA
ATOM      4  C   UNL     1       2.318   5.382  -0.747  0.00  0.00    +0.241 A 
ATOM      5  N   UNL     1       3.429   6.015  -1.112  0.00  0.00    -0.180 NA
ATOM      6  C   UNL     1       4.569   5.342  -1.231  0.00  0.00    +0.224 A 
ATOM      7  N   UNL     1       4.599   4.036  -0.980  0.00  0.00    -0.181 NA
ATOM      8  N   UNL     1       5.723   5.998  -1.610  0.00  0.00    -0.295 N 
ATOM      9  C   UNL     1       6.995   5.273  -1.754  0.00  0.00    +0.136 C 
ATOM     10  C   UNL     1       7.596   5.617  -3.121  0.00  0.00    +0.179 C 
ATOM     11  O   UNL     1       7.655   7.039  -3.265  0.00  0.00    -0.377 OA
ATOM     12  C   UNL     1       6.379   7.683  -3.243  0.00  0.00    +0.179 C 
ATOM     13  C   UNL     1       5.715   7.444  -1.887  0.00  0.00    +0.136 C 
ATOM     14  N   UNL     1       1.134   6.081  -0.625  0.00  0.00    -0.205 N 
ATOM     15  H   UNL     1       4.359   1.564  -0.401  0.00  0.00    +0.155 HD
ATOM     16  H   UNL     1       0.307   5.607  -0.446  0.00  0.00    +0.177 HD
ENDROOT
BRANCH   1  19
ATOM     17  C   UNL     1       0.167   1.336   0.970  0.00  0.00    +0.004 A 
ATOM     18  C   UNL     1       1.333   2.009   0.662  0.00  0.00    +0.023 A 
ATOM     19  C   UNL     1       2.337   1.366  -0.049  0.00  0.00    +0.036 A 
ATOM     20  C   UNL     1       2.165   0.047  -0.449  0.00  0.00    +0.056 A 
ATOM     21  C   UNL     1       0.997  -0.621  -0.138  0.00  0.00    +0.128 A 
ATOM     22  C   UNL     1      -0.001   0.023   0.571  0.00  0.00    +0.033 A 
BRANCH  21  23
ATOM     23  N   UNL     1       0.813  -2.026  -0.563  0.00  0.00    +0.056 N 
ATOM     24  O   UNL     1       1.685  -2.589  -1.183  0.00  0.00    -0.126 OA
ATOM     25  O   UNL     1      -0.209  -2.611  -0.291  0.00  0.00    -0.126 OA
ENDBRANCH  21  23
ENDBRANCH   1  19
BRANCH  14  26
ATOM     26  N   UNL     1       1.127   7.476  -0.758  0.00  0.00    -0.187 NA
ATOM     27  C   UNL     1       0.005   8.127  -0.704  0.00  0.00    +0.142 C 
BRANCH  27  28
ATOM     28  C   UNL     1      -0.008   9.588  -0.898  0.00  0.00    +0.037 A 
ATOM     29  C   UNL     1      -1.216  10.289  -0.874  0.00  0.00    +0.028 A 
ATOM     30  C   UNL     1      -1.222  11.657  -1.056  0.00  0.00    +0.019 A 
ATOM     31  C   UNL     1      -0.034  12.338  -1.263  0.00  0.00    +0.019 A 
ATOM     32  C   UNL     1       1.168  11.655  -1.290  0.00  0.00    +0.047 A 
ATOM     33  C   UNL     1       1.192  10.283  -1.102  0.00  0.00    +0.126 A 
ATOM     34 BR   UNL     1      -2.858  12.604  -1.023  0.00  0.00    -0.050 Br
BRANCH  33  35
ATOM     35  O   UNL     1       2.373   9.613  -1.121  0.00  0.00    -0.506 OA
ATOM     36  H   UNL     1       2.627   9.290  -1.996  0.00  0.00    +0.292 HD
ENDBRANCH  33  35
ENDBRANCH  27  28
ENDBRANCH  14  26
TORSDOF 5
