REMARK  Name = ZINC66898770
REMARK  6 active torsions:
REMARK  status: ('A' for Active; 'I' for Inactive)
REMARK    1  A    between atoms: C_1  and  N_2
REMARK    2  A    between atoms: C_6  and  C_8
REMARK    3  A    between atoms: C_8  and  C_9
REMARK    4  A    between atoms: C_9  and  C_10
REMARK    5  A    between atoms: C_10  and  N_11
REMARK    6  A    between atoms: C_15  and  C_17
REMARK                            x       y       z     vdW  Elec       q    Type
REMARK                         _______ _______ _______ _____ _____    ______ ____
ROOT
ATOM      1  N   UNL     1       2.723  -6.728   4.218  0.00  0.00    +0.384 N 
ATOM      2  C   UNL     1       2.004  -6.209   5.401  0.00  0.00    -0.078 C 
ATOM      3  C   UNL     1       1.175  -7.411   5.919  0.00  0.00    -0.020 C 
ATOM      4  C   UNL     1       2.145  -8.595   5.662  0.00  0.00    -0.012 C 
ATOM      5  C   UNL     1       2.844  -8.192   4.347  0.00  0.00    -0.034 C 
ATOM      6  H   UNL     1       3.641  -6.314   4.172  0.00  0.00    -0.081 HD
ENDROOT
BRANCH   5   7
ATOM      7  C   UNL     1       4.299  -8.583   4.399  0.00  0.00    -0.016 A 
ATOM      8  C   UNL     1       5.235  -7.696   4.898  0.00  0.00    +0.006 A 
ATOM      9  C   UNL     1       6.569  -8.051   4.947  0.00  0.00    +0.004 A 
ATOM     10  C   UNL     1       6.973  -9.294   4.496  0.00  0.00    +0.049 A 
ATOM     11  C   UNL     1       6.040 -10.188   3.994  0.00  0.00    +0.162 A 
ATOM     12  C   UNL     1       4.696  -9.834   3.953  0.00  0.00    +0.164 A 
ATOM     13  O   UNL     1       3.762 -10.701   3.476  0.00  0.00    -0.485 OA
ATOM     14  C   UNL     1       4.243 -11.799   2.693  0.00  0.00    +0.270 C 
ATOM     15  C   UNL     1       5.444 -12.419   3.421  0.00  0.00    +0.270 C 
ATOM     16  O   UNL     1       6.453 -11.407   3.551  0.00  0.00    -0.485 OA
ENDBRANCH   5   7
BRANCH   1  17
ATOM     17  C   UNL     1       1.970  -6.400   2.999  0.00  0.00    -0.078 C 
BRANCH  17  18
ATOM     18  C   UNL     1       1.954  -4.883   2.803  0.00  0.00    -0.009 C 
BRANCH  18  19
ATOM     19  C   UNL     1       1.170  -4.541   1.534  0.00  0.00    +0.094 C 
BRANCH  19  25
ATOM     20  C   UNL     1      -0.150   0.813  -1.140  0.00  0.00    +0.129 C 
ATOM     21  N   UNL     1      -0.134  -0.639  -0.953  0.00  0.00    -0.302 N 
ATOM     22  C   UNL     1       0.502  -1.175   0.108  0.00  0.00    +0.306 C 
ATOM     23  O   UNL     1       1.063  -0.452   0.908  0.00  0.00    -0.252 OA
ATOM     24  N   UNL     1       0.517  -2.511   0.281  0.00  0.00    -0.240 N 
ATOM     25  C   UNL     1       1.154  -3.047   1.341  0.00  0.00    +0.220 C 
ATOM     26  O   UNL     1       1.713  -2.326   2.139  0.00  0.00    -0.275 OA
ATOM     27  H   UNL     1      -0.582  -1.216  -1.591  0.00  0.00    +0.150 HD
ATOM     28  H   UNL     1       0.070  -3.088  -0.358  0.00  0.00    +0.159 HD
ENDBRANCH  19  25
ENDBRANCH  18  19
ENDBRANCH  17  18
ENDBRANCH   1  17
TORSDOF 5
