REMARK  Name = ZINC38671474
REMARK  12 active torsions:
REMARK  status: ('A' for Active; 'I' for Inactive)
REMARK    1  A    between atoms: C_1  and  C_2
REMARK    2  A    between atoms: C_2  and  C_3
REMARK    3  A    between atoms: C_2  and  C_4
REMARK    4  A    between atoms: C_2  and  C_5
REMARK    5  A    between atoms: C_8  and  O_11
REMARK    6  A    between atoms: O_11  and  C_12
REMARK    7  A    between atoms: C_12  and  C_13
REMARK    8  A    between atoms: N_15  and  C_16
REMARK    9  A    between atoms: C_16  and  C_17
REMARK   10  A    between atoms: C_17  and  C_19
REMARK   11  A    between atoms: C_17  and  N_29
REMARK   12  A    between atoms: N_27  and  C_28
REMARK                            x       y       z     vdW  Elec       q    Type
REMARK                         _______ _______ _______ _____ _____    ______ ____
ROOT
ATOM      1  C   UNL     1       7.796  -1.885  -7.762  0.00  0.00    -0.020 C 
ENDROOT
BRANCH   1   2
ATOM      2  C   UNL     1       8.309  -2.246  -9.133  0.00  0.00    -0.059 A 
ATOM      3  C   UNL     1       8.011  -1.443 -10.218  0.00  0.00    +0.004 A 
ATOM      4  C   UNL     1       8.477  -1.770 -11.473  0.00  0.00    +0.023 A 
ATOM      5  C   UNL     1       9.255  -2.916 -11.659  0.00  0.00    +0.033 A 
ATOM      6  C   UNL     1       9.548  -3.714 -10.564  0.00  0.00    -0.025 A 
ATOM      7  C   UNL     1       9.082  -3.378  -9.307  0.00  0.00    +0.007 A 
ATOM      8  C   UNL     1      10.395  -4.877 -11.030  0.00  0.00    +0.056 C 
ATOM      9  C   UNL     1      10.559  -4.653 -12.543  0.00  0.00    +0.109 C 
ATOM     10  N   UNL     1       9.820  -3.421 -12.831  0.00  0.00    -0.332 N 
ATOM     11  C   UNL     1       9.693  -2.808 -14.155  0.00  0.00    +0.129 C 
ENDBRANCH   1   2
BRANCH   1  12
ATOM     12  N   UNL     1       7.888  -0.431  -7.573  0.00  0.00    +0.385 N 
ATOM     13  C   UNL     1       9.279  -0.002  -7.755  0.00  0.00    -0.078 C 
ATOM     14  C   UNL     1       9.367   1.521  -7.639  0.00  0.00    -0.019 C 
ATOM     15  C   UNL     1       8.875   1.951  -6.253  0.00  0.00    -0.004 C 
ATOM     16  C   UNL     1       7.449   1.434  -6.045  0.00  0.00    -0.019 C 
ATOM     17  C   UNL     1       7.433  -0.086  -6.221  0.00  0.00    -0.078 C 
ATOM     18  H   UNL     1       7.303   0.033  -8.252  0.00  0.00    -0.081 HD
ENDBRANCH   1  12
BRANCH   1  19
ATOM     19  C   UNL     1       6.337  -2.326  -7.631  0.00  0.00    +0.093 C 
BRANCH  19  22
ATOM     20  C   UNL     1       5.077  -4.409  -7.543  0.00  0.00    +0.251 C 
ATOM     21  O   UNL     1       4.080  -3.762  -7.301  0.00  0.00    -0.272 OA
ATOM     22  N   UNL     1       6.258  -3.786  -7.725  0.00  0.00    -0.314 N 
ATOM     23  H   UNL     1       7.055  -4.303  -7.918  0.00  0.00    +0.149 HD
BRANCH  20  24
ATOM     24  C   UNL     1       4.995  -5.911  -7.640  0.00  0.00    +0.324 C 
BRANCH  24  25
ATOM     25  O   UNL     1       3.648  -6.330  -7.411  0.00  0.00    -0.483 OA
BRANCH  25  29
ATOM     26  C   UNL     1       2.896 -10.384  -7.571  0.00  0.00    -0.042 A 
ATOM     27  C   UNL     1       1.866  -9.501  -7.304  0.00  0.00    +0.008 A 
ATOM     28  C   UNL     1       2.115  -8.143  -7.250  0.00  0.00    +0.046 A 
ATOM     29  C   UNL     1       3.401  -7.666  -7.463  0.00  0.00    +0.121 A 
ATOM     30  C   UNL     1       4.432  -8.554  -7.730  0.00  0.00    +0.046 A 
ATOM     31  C   UNL     1       4.179  -9.911  -7.778  0.00  0.00    +0.008 A 
BRANCH  26  33
ATOM     32  C   UNL     1       3.456 -12.581  -6.566  0.00  0.00    +0.015 C 
ATOM     33  C   UNL     1       2.621 -11.864  -7.630  0.00  0.00    -0.013 C 
ATOM     34  C   UNL     1       2.993 -12.397  -9.015  0.00  0.00    +0.015 C 
ATOM     35  C   UNL     1       1.135 -12.118  -7.368  0.00  0.00    +0.015 C 
ENDBRANCH  26  33
ENDBRANCH  25  29
ENDBRANCH  24  25
ENDBRANCH  20  24
ENDBRANCH  19  22
ENDBRANCH   1  19
TORSDOF 8
