REMARK  Name = ZINC07908460
REMARK  6 active torsions:
REMARK  status: ('A' for Active; 'I' for Inactive)
REMARK    1  A    between atoms: N_9  and  C_11
REMARK    2  A    between atoms: C_11  and  C_12
REMARK    3  A    between atoms: N_14  and  C_15
REMARK    4  A    between atoms: C_20  and  S_21
REMARK    5  A    between atoms: S_21  and  C_22
REMARK    6  A    between atoms: C_22  and  C_23
REMARK                            x       y       z     vdW  Elec       q    Type
REMARK                         _______ _______ _______ _____ _____    ______ ____
ROOT
ATOM      1  C   UNL     1       5.891  -2.192   1.151  0.00  0.00    +0.201 C 
ATOM      2  O   UNL     1       5.587  -1.274   1.883  0.00  0.00    -0.278 OA
ATOM      3  N   UNL     1       7.149  -2.676   1.162  0.00  0.00    -0.286 N 
ATOM      4  H   UNL     1       7.375  -3.451   0.625  0.00  0.00    +0.155 HD
ENDROOT
BRANCH   3   5
ATOM      5  C   UNL     1       8.129  -2.059   1.951  0.00  0.00    +0.047 A 
ATOM      6  C   UNL     1       7.789  -1.502   3.174  0.00  0.00    +0.024 A 
ATOM      7  C   UNL     1       8.758  -0.894   3.951  0.00  0.00    +0.002 A 
ATOM      8  C   UNL     1      10.068  -0.839   3.511  0.00  0.00    +0.001 A 
ATOM      9  C   UNL     1      10.417  -1.391   2.293  0.00  0.00    +0.016 A 
ATOM     10  C   UNL     1       9.452  -2.008   1.510  0.00  0.00    +0.030 A 
BRANCH  10  11
ATOM     11  S   UNL     1       9.894  -2.719  -0.041  0.00  0.00    -0.114 S 
BRANCH  11  12
ATOM     12  C   UNL     1      11.677  -2.410  -0.172  0.00  0.00    +0.169 C 
BRANCH  12  13
ATOM     13  C   UNL     1      12.190  -2.975  -1.472  0.00  0.00    +0.221 C 
ATOM     14  O   UNL     1      11.428  -3.532  -2.234  0.00  0.00    -0.275 OA
ATOM     15  N   UNL     1      13.495  -2.863  -1.787  0.00  0.00    -0.329 N 
ATOM     16  H   UNL     1      14.105  -2.418  -1.177  0.00  0.00    +0.145 HD
ATOM     17  H   UNL     1      13.826  -3.227  -2.623  0.00  0.00    +0.145 HD
ENDBRANCH  12  13
ENDBRANCH  11  12
ENDBRANCH  10  11
ENDBRANCH   3   5
BRANCH   1  18
ATOM     18  C   UNL     1       4.861  -2.791   0.228  0.00  0.00    +0.019 C 
BRANCH  18  27
ATOM     19  C   UNL     1      -0.036   1.349   0.033  0.00  0.00    +0.000 A 
ATOM     20  C   UNL     1       1.152   2.057   0.015  0.00  0.00    +0.000 A 
ATOM     21  C   UNL     1       2.355   1.381  -0.005  0.00  0.00    +0.002 A 
ATOM     22  C   UNL     1       2.380  -0.006  -0.008  0.00  0.00    -0.061 A 
ATOM     23  C   UNL     1       1.195  -0.711   0.013  0.00  0.00    -0.048 A 
ATOM     24  C   UNL     1      -0.013  -0.032   0.032  0.00  0.00    +0.004 A 
ATOM     25  C   UNL     1       1.178  -2.218   0.019  0.00  0.00    +0.017 C 
ATOM     26  C   UNL     1       2.545  -2.753  -0.407  0.00  0.00    -0.073 C 
ATOM     27  N   UNL     1       3.580  -2.094   0.404  0.00  0.00    +0.388 N 
ATOM     28  C   UNL     1       3.715  -0.702  -0.035  0.00  0.00    -0.042 C 
ATOM     29  H   UNL     1       3.313  -2.117   1.376  0.00  0.00    -0.081 HD
ENDBRANCH  18  27
ENDBRANCH   1  18
TORSDOF 6
