REMARK  Name = ZINC16610664
REMARK  11 active torsions:
REMARK  status: ('A' for Active; 'I' for Inactive)
REMARK    1  A    between atoms: C_1  and  C_2
REMARK    2  A    between atoms: C_2  and  C_3
REMARK    3  A    between atoms: C_6  and  N_9
REMARK    4  A    between atoms: N_12  and  C_13
REMARK    5  A    between atoms: C_16  and  C_19
REMARK    6  A    between atoms: C_21  and  C_30
REMARK    7  A    between atoms: C_22  and  C_29
REMARK    8  A    between atoms: N_23  and  C_27
REMARK    9  A    between atoms: C_27  and  C_28
REMARK   10  A    between atoms: C_30  and  O_32
REMARK   11  A    between atoms: O_32  and  C_33
REMARK                            x       y       z     vdW  Elec       q    Type
REMARK                         _______ _______ _______ _____ _____    ______ ____
ROOT
ATOM      1  C   UNL     1       0.359   1.428   2.411  0.00  0.00    +0.035 A 
ATOM      2  C   UNL     1       0.050   0.205   1.830  0.00  0.00    +0.024 A 
ATOM      3  C   UNL     1       0.973  -0.424   1.017  0.00  0.00    +0.007 A 
ATOM      4  C   UNL     1       2.199   0.168   0.773  0.00  0.00    -0.022 A 
ATOM      5  C   UNL     1       2.508   1.388   1.347  0.00  0.00    +0.007 A 
ATOM      6  C   UNL     1       1.591   2.019   2.165  0.00  0.00    +0.024 A 
ENDROOT
BRANCH   4   7
ATOM      7  C   UNL     1       3.201  -0.519  -0.118  0.00  0.00    +0.141 C 
ATOM      8  C   UNL     1       3.126   0.125  -1.488  0.00  0.00    +0.078 C 
ATOM      9  C   UNL     1       4.255   0.675  -1.986  0.00  0.00    +0.021 C 
ATOM     10  N   UNL     1       5.422   0.651  -1.280  0.00  0.00    -0.286 N 
ATOM     11  C   UNL     1       5.545   0.097  -0.067  0.00  0.00    +0.138 C 
ATOM     12  S   UNL     1       7.069   0.137   0.711  0.00  0.00    -0.018 S 
ATOM     13  N   UNL     1       4.507  -0.491   0.561  0.00  0.00    -0.315 N 
ATOM     14  C   UNL     1       4.224   1.326  -3.345  0.00  0.00    +0.061 C 
ATOM     15  H   UNL     1       4.619  -0.887   1.440  0.00  0.00    +0.149 HD
BRANCH  10  16
ATOM     16  C   UNL     1       6.607   1.268  -1.881  0.00  0.00    +0.109 C 
ATOM     17  C   UNL     1       6.607   2.769  -1.584  0.00  0.00    +0.025 C 
ENDBRANCH  10  16
BRANCH   8  18
ATOM     18  C   UNL     1       1.916   0.149  -2.219  0.00  0.00    +0.339 C 
ATOM     19  O   UNL     1       1.894   0.614  -3.343  0.00  0.00    -0.245 OA
BRANCH  18  20
ATOM     20  O   UNL     1       0.786  -0.344  -1.671  0.00  0.00    -0.465 OA
ATOM     21  C   UNL     1      -0.400  -0.288  -2.466  0.00  0.00    +0.280 C 
ENDBRANCH  18  20
ENDBRANCH   8  18
ENDBRANCH   4   7
BRANCH   1  25
ATOM     22  N   UNL     1      -2.366   1.942   4.727  0.00  0.00    -0.269 N 
ATOM     23  C   UNL     1      -1.401   1.334   4.009  0.00  0.00    +0.308 C 
ATOM     24  O   UNL     1      -1.278   0.125   4.057  0.00  0.00    -0.252 OA
ATOM     25  N   UNL     1      -0.571   2.066   3.239  0.00  0.00    -0.269 N 
ATOM     26  H   UNL     1      -2.516   2.896   4.628  0.00  0.00    +0.156 HD
ATOM     27  H   UNL     1      -0.620   3.034   3.259  0.00  0.00    +0.156 HD
BRANCH  22  31
ATOM     28  C   UNL     1      -4.705  -0.271   7.370  0.00  0.00    -0.048 A 
ATOM     29  C   UNL     1      -3.382  -0.617   7.163  0.00  0.00    +0.005 A 
ATOM     30  C   UNL     1      -2.604   0.115   6.288  0.00  0.00    +0.023 A 
ATOM     31  C   UNL     1      -3.151   1.199   5.615  0.00  0.00    +0.035 A 
ATOM     32  C   UNL     1      -4.479   1.547   5.828  0.00  0.00    +0.023 A 
ATOM     33  C   UNL     1      -5.253   0.807   6.701  0.00  0.00    +0.005 A 
BRANCH  28  35
ATOM     34  C   UNL     1      -5.441  -0.471   9.729  0.00  0.00    +0.009 C 
ATOM     35  C   UNL     1      -5.551  -1.072   8.326  0.00  0.00    +0.032 C 
ENDBRANCH  28  35
ENDBRANCH  22  31
ENDBRANCH   1  25
TORSDOF 7
