REMARK  Name = ZINC37083432
REMARK  5 active torsions:
REMARK  status: ('A' for Active; 'I' for Inactive)
REMARK    1  A    between atoms: C_1  and  C_2
REMARK    2  A    between atoms: C_2  and  C_3
REMARK    3  A    between atoms: N_9  and  C_10
REMARK    4  A    between atoms: C_13  and  C_20
REMARK    5  A    between atoms: C_14  and  C_16
REMARK                            x       y       z     vdW  Elec       q    Type
REMARK                         _______ _______ _______ _____ _____    ______ ____
ROOT
ATOM      1  C   UNL     1      -1.935   0.997  -2.164  0.00  0.00    +0.030 A 
ATOM      2  C   UNL     1      -1.408   2.259  -1.905  0.00  0.00    +0.024 A 
ATOM      3  C   UNL     1      -0.517   2.828  -2.785  0.00  0.00    +0.013 A 
ATOM      4  C   UNL     1      -0.141   2.138  -3.941  0.00  0.00    +0.024 A 
ATOM      5  C   UNL     1      -0.672   0.871  -4.198  0.00  0.00    +0.067 A 
ATOM      6  C   UNL     1      -1.559   0.305  -3.311  0.00  0.00    +0.036 A 
ENDROOT
BRANCH   4   7
ATOM      7  C   UNL     1       0.815   2.746  -4.888  0.00  0.00    +0.095 C 
ATOM      8  N   UNL     1       0.441   2.998  -6.142  0.00  0.00    -0.387 N 
ATOM      9  N   UNL     1       2.051   3.043  -4.489  0.00  0.00    -0.345 N 
ATOM     10  H   UNL     1      -0.446   2.747  -6.444  0.00  0.00    +0.157 HD
ATOM     11  H   UNL     1       2.323   2.860  -3.576  0.00  0.00    +0.144 HD
ATOM     12  H   UNL     1       2.679   3.443  -5.111  0.00  0.00    +0.144 HD
ATOM     13  H   UNL     1       1.056   3.431  -6.754  0.00  0.00    +0.157 HD
ENDBRANCH   4   7
BRANCH   1  19
ATOM     14  C   UNL     1      -2.393  -0.020   0.057  0.00  0.00    +0.073 C 
ATOM     15  C   UNL     1      -2.803  -1.483   0.254  0.00  0.00    +0.022 C 
ATOM     16  C   UNL     1      -4.307  -1.624   0.013  0.00  0.00    +0.003 C 
ATOM     17  C   UNL     1      -4.636  -1.220  -1.425  0.00  0.00    +0.019 C 
ATOM     18  C   UNL     1      -4.247   0.246  -1.641  0.00  0.00    +0.105 C 
ATOM     19  N   UNL     1      -2.836   0.423  -1.272  0.00  0.00    -0.327 N 
BRANCH  14  21
ATOM     20  C   UNL     1      -0.420  -0.291   1.567  0.00  0.00    +0.006 C 
ATOM     21  C   UNL     1      -0.872   0.105   0.159  0.00  0.00    +0.019 C 
ENDBRANCH  14  21
ENDBRANCH   1  19
BRANCH   5  22
ATOM     22  C   UNL     1      -0.269   0.124  -5.444  0.00  0.00    +0.418 C 
ATOM     23  F   UNL     1      -0.801  -1.169  -5.404  0.00  0.00    -0.166 F 
ATOM     24  F   UNL     1      -0.759   0.795  -6.569  0.00  0.00    -0.166 F 
ATOM     25  F   UNL     1       1.126   0.052  -5.514  0.00  0.00    -0.166 F 
ENDBRANCH   5  22
TORSDOF 4
