REMARK  Name = ZINC09847267
REMARK  8 active torsions:
REMARK  status: ('A' for Active; 'I' for Inactive)
REMARK    1  A    between atoms: C_1  and  N_57
REMARK    2  A    between atoms: N_4  and  S_7
REMARK    3  A    between atoms: S_7  and  C_10
REMARK    4  A    between atoms: C_13  and  S_16
REMARK    5  A    between atoms: S_16  and  C_17
REMARK    6  A    between atoms: C_17  and  C_18
REMARK    7  A    between atoms: N_20  and  C_21
REMARK    8  A    between atoms: C_22  and  C_29
REMARK                            x       y       z     vdW  Elec       q    Type
REMARK                         _______ _______ _______ _____ _____    ______ ____
ROOT
ATOM      1  S   UNL     1      -5.370   4.662  -6.152  0.00  0.00    -0.097 S 
ENDROOT
BRANCH   1   5
ATOM      2  C   UNL     1      -1.840   4.253  -3.418  0.00  0.00    +0.124 A 
ATOM      3  C   UNL     1      -2.729   5.296  -3.194  0.00  0.00    +0.032 A 
ATOM      4  C   UNL     1      -3.819   5.426  -4.035  0.00  0.00    +0.037 A 
ATOM      5  C   UNL     1      -3.987   4.512  -5.071  0.00  0.00    +0.097 A 
ATOM      6  N   UNL     1      -3.116   3.531  -5.252  0.00  0.00    -0.247 NA
ATOM      7  C   UNL     1      -2.064   3.386  -4.468  0.00  0.00    +0.140 A 
BRANCH   2   8
ATOM      8  S   UNL     1      -0.434   4.043  -2.376  0.00  0.00    +0.062 S 
ATOM      9  O   UNL     1      -0.158   5.314  -1.806  0.00  0.00    -0.153 OA
ATOM     10  O   UNL     1       0.528   3.321  -3.132  0.00  0.00    -0.153 OA
BRANCH   8  14
ATOM     11  C   UNL     1      -0.123   0.955   2.423  0.00  0.00    -0.096 C 
ATOM     12  C   UNL     1      -0.013   1.086   0.008  0.00  0.00    -0.062 C 
ATOM     13  C   UNL     1      -0.755   1.594  -1.233  0.00  0.00    +0.091 C 
ATOM     14  N   UNL     1      -0.893   3.055  -1.129  0.00  0.00    -0.180 NA
ATOM     15  C   UNL     1      -1.450   3.614   0.112  0.00  0.00    +0.091 C 
ATOM     16  C   UNL     1      -0.681   3.026   1.300  0.00  0.00    -0.062 C 
ATOM     17  N   UNL     1      -0.730   1.551   1.215  0.00  0.00    +0.380 N 
ATOM     18  H   UNL     1      -1.711   1.254   1.154  0.00  0.00    -0.082 HD
ENDBRANCH   8  14
ENDBRANCH   2   8
ENDBRANCH   1   5
BRANCH   1  19
ATOM     19  C   UNL     1      -5.171   3.284  -7.314  0.00  0.00    +0.171 C 
BRANCH  19  20
ATOM     20  C   UNL     1      -6.305   3.296  -8.307  0.00  0.00    +0.228 C 
ATOM     21  O   UNL     1      -7.162   4.150  -8.238  0.00  0.00    -0.275 OA
ATOM     22  N   UNL     1      -6.365   2.357  -9.272  0.00  0.00    -0.279 N 
ATOM     23  H   UNL     1      -5.679   1.673  -9.328  0.00  0.00    +0.155 HD
BRANCH  22  24
ATOM     24  C   UNL     1      -7.408   2.368 -10.186  0.00  0.00    +0.084 A 
ATOM     25  C   UNL     1      -7.637   1.501 -11.241  0.00  0.00    +0.068 A 
ATOM     26  C   UNL     1      -8.825   1.732 -12.061  0.00  0.00    -0.023 A 
ATOM     27  C   UNL     1      -9.574   2.789 -11.698  0.00  0.00    -0.004 A 
ATOM     28  S   UNL     1      -8.735   3.474 -10.290  0.00  0.00    -0.077 S 
ATOM     29  C   UNL     1     -10.774   2.963 -12.589  0.00  0.00    +0.043 C 
ATOM     30  C   UNL     1     -10.921   1.607 -13.312  0.00  0.00    +0.010 C 
ATOM     31  C   UNL     1      -9.475   1.074 -13.279  0.00  0.00    +0.037 C 
BRANCH  25  32
ATOM     32  C   UNL     1      -6.724   0.389 -11.522  0.00  0.00    +0.244 C 
ATOM     33  O   UNL     1      -6.909  -0.697 -11.004  0.00  0.00    -0.270 OA
ATOM     34  N   UNL     1      -5.679   0.569 -12.355  0.00  0.00    -0.325 N 
ATOM     35  H   UNL     1      -5.532   1.434 -12.768  0.00  0.00    +0.145 HD
ATOM     36  H   UNL     1      -5.075  -0.167 -12.541  0.00  0.00    +0.145 HD
ENDBRANCH  25  32
ENDBRANCH  22  24
ENDBRANCH  19  20
ENDBRANCH   1  19
TORSDOF 7
