REMARK  Name = ZINC01205276
REMARK  10 active torsions:
REMARK  status: ('A' for Active; 'I' for Inactive)
REMARK    1  A    between atoms: C_1  and  O_2
REMARK    2  A    between atoms: O_2  and  C_3
REMARK    3  A    between atoms: C_6  and  C_9
REMARK    4  A    between atoms: C_10  and  C_11
REMARK    5  A    between atoms: C_10  and  N_24
REMARK    6  A    between atoms: N_13  and  C_14
REMARK    7  A    between atoms: C_17  and  C_20
REMARK    8  A    between atoms: C_20  and  O_22
REMARK    9  A    between atoms: O_22  and  C_23
REMARK   10  A    between atoms: C_25  and  C_27
REMARK                            x       y       z     vdW  Elec       q    Type
REMARK                         _______ _______ _______ _____ _____    ______ ____
ROOT
ATOM      1  C   UNL     1      -1.500   1.956  -0.102  0.00  0.00    +0.036 C 
ATOM      2  C   UNL     1      -1.416   3.301   0.034  0.00  0.00    +0.097 C 
ENDROOT
BRANCH   1   6
ATOM      3  C   UNL     1       1.796  -0.240  -1.620  0.00  0.00    +0.120 A 
ATOM      4  C   UNL     1       1.132  -0.685  -0.484  0.00  0.00    +0.046 A 
ATOM      5  C   UNL     1       0.062   0.024   0.014  0.00  0.00    +0.011 A 
ATOM      6  C   UNL     1      -0.355   1.197  -0.626  0.00  0.00    -0.023 A 
ATOM      7  C   UNL     1       0.318   1.642  -1.769  0.00  0.00    +0.011 A 
ATOM      8  C   UNL     1       1.386   0.924  -2.260  0.00  0.00    +0.046 A 
BRANCH   3  10
ATOM      9  C   UNL     1       3.488  -0.429  -3.279  0.00  0.00    +0.277 C 
ATOM     10  O   UNL     1       2.850  -0.944  -2.108  0.00  0.00    -0.495 OA
ENDBRANCH   3  10
ENDBRANCH   1   6
BRANCH   2  11
ATOM     11  C   UNL     1      -0.119   3.974  -0.109  0.00  0.00    +0.262 C 
ATOM     12  O   UNL     1       0.899   3.316  -0.212  0.00  0.00    -0.268 OA
ATOM     13  N   UNL     1      -0.056   5.320  -0.126  0.00  0.00    -0.280 N 
ATOM     14  H   UNL     1      -0.857   5.845   0.031  0.00  0.00    +0.155 HD
BRANCH  13  15
ATOM     15  C   UNL     1       1.158   5.957  -0.368  0.00  0.00    +0.034 A 
ATOM     16  C   UNL     1       1.184   7.154  -1.079  0.00  0.00    +0.024 A 
ATOM     17  C   UNL     1       2.382   7.789  -1.315  0.00  0.00    +0.017 A 
ATOM     18  C   UNL     1       3.574   7.227  -0.849  0.00  0.00    +0.059 A 
ATOM     19  C   UNL     1       3.544   6.022  -0.140  0.00  0.00    +0.017 A 
ATOM     20  C   UNL     1       2.343   5.394   0.097  0.00  0.00    +0.024 A 
BRANCH  18  21
ATOM     21  C   UNL     1       4.859   7.902  -1.105  0.00  0.00    +0.339 C 
ATOM     22  O   UNL     1       5.894   7.412  -0.699  0.00  0.00    -0.245 OA
BRANCH  21  23
ATOM     23  O   UNL     1       4.886   9.063  -1.788  0.00  0.00    -0.464 OA
ATOM     24  C   UNL     1       6.187   9.672  -2.003  0.00  0.00    +0.280 C 
ENDBRANCH  21  23
ENDBRANCH  18  21
ENDBRANCH  13  15
ENDBRANCH   2  11
BRANCH   2  25
ATOM     25  N   UNL     1      -2.566   4.049   0.309  0.00  0.00    -0.275 N 
ATOM     26  C   UNL     1      -2.627   4.804   1.424  0.00  0.00    +0.284 C 
ATOM     27  O   UNL     1      -1.649   4.911   2.142  0.00  0.00    -0.266 OA
ATOM     28  H   UNL     1      -3.318   4.024  -0.302  0.00  0.00    +0.155 HD
BRANCH  26  29
ATOM     29  C   UNL     1      -3.870   5.495   1.773  0.00  0.00    +0.191 A 
ATOM     30  C   UNL     1      -4.070   6.284   2.871  0.00  0.00    +0.056 A 
ATOM     31  C   UNL     1      -5.395   6.740   2.806  0.00  0.00    +0.058 A 
ATOM     32  C   UNL     1      -5.944   6.210   1.688  0.00  0.00    +0.171 A 
ATOM     33  O   UNL     1      -5.021   5.461   1.069  0.00  0.00    -0.444 OA
ATOM     34 BR   UNL     1      -7.719   6.482   1.098  0.00  0.00    -0.008 Br
ENDBRANCH  26  29
ENDBRANCH   2  25
TORSDOF 8
