REMARK  Name = ZINC66243923
REMARK  4 active torsions:
REMARK  status: ('A' for Active; 'I' for Inactive)
REMARK    1  A    between atoms: C_3  and  C_15
REMARK    2  A    between atoms: C_6  and  C_7
REMARK    3  A    between atoms: C_7  and  N_8
REMARK    4  A    between atoms: N_10  and  C_11
REMARK                            x       y       z     vdW  Elec       q    Type
REMARK                         _______ _______ _______ _____ _____    ______ ____
ROOT
ATOM      1  C   UNL     1      -0.038   1.570  -0.181  0.00  0.00    +0.006 A 
ATOM      2  C   UNL     1       1.159   2.255  -0.223  0.00  0.00    +0.009 A 
ATOM      3  C   UNL     1       2.363   1.556  -0.147  0.00  0.00    -0.018 A 
ATOM      4  C   UNL     1       2.349   0.168  -0.029  0.00  0.00    +0.009 A 
ATOM      5  C   UNL     1       1.146  -0.507   0.011  0.00  0.00    +0.006 A 
ATOM      6  C   UNL     1      -0.045   0.192  -0.064  0.00  0.00    -0.028 A 
ENDROOT
BRANCH   3   7
ATOM      7  C   UNL     1       3.653   2.287  -0.192  0.00  0.00    -0.017 A 
ATOM      8  C   UNL     1       3.669   3.677  -0.304  0.00  0.00    +0.012 A 
ATOM      9  C   UNL     1       4.866   4.355  -0.342  0.00  0.00    +0.046 A 
ATOM     10  C   UNL     1       6.073   3.661  -0.269  0.00  0.00    +0.124 A 
ATOM     11  C   UNL     1       6.050   2.275  -0.165  0.00  0.00    -0.002 A 
ATOM     12  C   UNL     1       4.858   1.590  -0.116  0.00  0.00    +0.015 A 
ATOM     13  C   UNL     1       7.492   1.808  -0.131  0.00  0.00    +0.080 C 
ATOM     14  C   UNL     1       8.247   3.064  -0.625  0.00  0.00    +0.234 C 
ATOM     15  O   UNL     1       7.350   4.132  -0.277  0.00  0.00    -0.491 OA
ENDBRANCH   3   7
BRANCH   6  16
ATOM     16  C   UNL     1      -1.355  -0.551  -0.019  0.00  0.00    +0.151 C 
BRANCH  16  17
ATOM     17  N   UNL     1      -1.762  -0.908  -1.380  0.00  0.00    -0.354 N 
ATOM     18  C   UNL     1      -2.934  -1.596  -1.590  0.00  0.00    +0.169 C 
ATOM     19  N   UNL     1      -3.295  -1.914  -2.801  0.00  0.00    -0.355 N 
ATOM     20  N   UNL     1      -3.725  -1.948  -0.521  0.00  0.00    -0.371 N 
ATOM     21  H   UNL     1      -1.204  -0.660  -2.134  0.00  0.00    +0.163 HD
ATOM     22  H   UNL     1      -3.498  -1.643   0.371  0.00  0.00    +0.159 HD
ATOM     23  H   UNL     1      -4.510  -2.501  -0.660  0.00  0.00    +0.159 HD
ATOM     24  H   UNL     1      -2.772  -1.609  -3.559  0.00  0.00    +0.163 HD
BRANCH  19  25
ATOM     25  C   UNL     1      -4.492  -2.731  -3.017  0.00  0.00    +0.082 C 
ATOM     26  C   UNL     1      -4.555  -3.565  -4.299  0.00  0.00    +0.026 C 
ATOM     27  C   UNL     1      -4.330  -4.251  -2.950  0.00  0.00    +0.026 C 
ENDBRANCH  19  25
ENDBRANCH  16  17
ENDBRANCH   6  16
TORSDOF 4
