REMARK  Name = ZINC23186060
REMARK  8 active torsions:
REMARK  status: ('A' for Active; 'I' for Inactive)
REMARK    1  A    between atoms: C_1  and  C_2
REMARK    2  A    between atoms: C_2  and  C_3
REMARK    3  A    between atoms: C_2  and  C_4
REMARK    4  A    between atoms: C_6  and  C_9
REMARK    5  A    between atoms: C_9  and  N_10
REMARK    6  A    between atoms: N_13  and  C_16
REMARK    7  A    between atoms: C_16  and  C_17
REMARK    8  A    between atoms: N_23  and  C_24
REMARK                            x       y       z     vdW  Elec       q    Type
REMARK                         _______ _______ _______ _____ _____    ______ ____
ROOT
ATOM      1  C   UNL     1      -0.454   1.555   3.851  0.00  0.00    +0.120 A 
ATOM      2  N   UNL     1      -1.404   0.981   4.568  0.00  0.00    -0.202 NA
ATOM      3  C   UNL     1      -1.891   1.595   5.644  0.00  0.00    +0.217 A 
ATOM      4  N   UNL     1      -1.422   2.787   5.996  0.00  0.00    -0.181 NA
ATOM      5  C   UNL     1      -0.467   3.361   5.272  0.00  0.00    +0.224 A 
ATOM      6  N   UNL     1       0.019   2.738   4.201  0.00  0.00    -0.201 NA
ATOM      7  N   UNL     1       0.025   4.600   5.634  0.00  0.00    -0.284 N 
ATOM      8  N   UNL     1      -2.884   0.995   6.392  0.00  0.00    -0.327 N 
ATOM      9  H   UNL     1       0.876   5.035   5.090  0.00  0.00    +0.155 HD
ATOM     10  H   UNL     1      -3.286   1.504   7.280  0.00  0.00    +0.145 HD
ATOM     11  H   UNL     1      -3.272   0.009   6.099  0.00  0.00    +0.145 HD
ENDROOT
BRANCH   7  12
ATOM     12  C   UNL     1      -0.560   5.303   6.693  0.00  0.00    +0.034 A 
ATOM     13  C   UNL     1      -1.924   5.194   6.931  0.00  0.00    +0.025 A 
ATOM     14  C   UNL     1      -2.498   5.884   7.980  0.00  0.00    +0.022 A 
ATOM     15  C   UNL     1      -1.718   6.694   8.787  0.00  0.00    +0.041 A 
ATOM     16  C   UNL     1      -0.359   6.808   8.549  0.00  0.00    +0.022 A 
ATOM     17  C   UNL     1       0.221   6.115   7.504  0.00  0.00    +0.025 A 
ATOM     18 CL   UNL     1      -2.444   7.566  10.100  0.00  0.00    -0.084 Cl
ENDBRANCH   7  12
BRANCH   1  19
ATOM     19  C   UNL     1       0.096   0.856   2.634  0.00  0.00    -0.001 C 
BRANCH  19  23
ATOM     20  N   UNL     1      -1.144   2.573  -1.021  0.00  0.00    -0.297 NA
ATOM     21  C   UNL     1      -0.930   1.120  -0.981  0.00  0.00    +0.066 C 
ATOM     22  C   UNL     1      -0.045   0.770   0.218  0.00  0.00    -0.063 C 
ATOM     23  N   UNL     1      -0.689   1.240   1.453  0.00  0.00    +0.386 N 
ATOM     24  C   UNL     1      -0.903   2.693   1.412  0.00  0.00    -0.063 C 
ATOM     25  C   UNL     1      -1.788   3.042   0.213  0.00  0.00    +0.066 C 
ATOM     26  H   UNL     1      -1.672   0.753   1.529  0.00  0.00    -0.081 HD
BRANCH  20  27
ATOM     27  C   UNL     1      -1.928   2.957  -2.203  0.00  0.00    +0.183 C 
BRANCH  27  30
ATOM     28  C   UNL     1      -1.436   6.451  -2.862  0.00  0.00    +0.174 A 
ATOM     29  N   UNL     1      -1.048   5.173  -3.015  0.00  0.00    -0.195 NA
ATOM     30  C   UNL     1      -1.919   4.457  -2.346  0.00  0.00    +0.241 A 
ATOM     31  O   UNL     1      -2.802   5.311  -1.819  0.00  0.00    -0.337 OA
ATOM     32  N   UNL     1      -2.504   6.448  -2.122  0.00  0.00    -0.061 NA
BRANCH  28  34
ATOM     33  C   UNL     1      -1.735   8.406  -4.358  0.00  0.00    +0.015 C 
ATOM     34  C   UNL     1      -0.758   7.665  -3.444  0.00  0.00    +0.054 C 
ATOM     35  C   UNL     1      -0.315   8.594  -2.311  0.00  0.00    +0.015 C 
ENDBRANCH  28  34
ENDBRANCH  27  30
ENDBRANCH  20  27
ENDBRANCH  19  23
ENDBRANCH   1  19
TORSDOF 6
