REMARK  Name = ZINC04133516
REMARK  12 active torsions:
REMARK  status: ('A' for Active; 'I' for Inactive)
REMARK    1  A    between atoms: C_1  and  C_2
REMARK    2  A    between atoms: C_5  and  C_24
REMARK    3  A    between atoms: C_9  and  C_14
REMARK    4  A    between atoms: C_14  and  N_15
REMARK    5  A    between atoms: N_15  and  C_16
REMARK    6  A    between atoms: N_15  and  C_20
REMARK    7  A    between atoms: C_16  and  C_17
REMARK    8  A    between atoms: C_17  and  N_50
REMARK    9  A    between atoms: C_18  and  N_50
REMARK   10  A    between atoms: C_19  and  N_50
REMARK   11  A    between atoms: C_20  and  N_22
REMARK   12  A    between atoms: N_22  and  C_23
REMARK                            x       y       z     vdW  Elec       q    Type
REMARK                         _______ _______ _______ _____ _____    ______ ____
ROOT
ATOM      1  C   UNL     1      -0.924  -4.693   3.307  0.00  0.00    +0.044 C 
ATOM      2  C   UNL     1      -0.607  -3.600   4.295  0.00  0.00    -0.041 A 
ATOM      3  C   UNL     1      -0.870  -3.778   5.623  0.00  0.00    +0.004 A 
ATOM      4  C   UNL     1      -0.582  -2.778   6.541  0.00  0.00    +0.005 A 
ATOM      5  C   UNL     1      -0.025  -1.586   6.131  0.00  0.00    -0.026 A 
ATOM      6  C   UNL     1       0.251  -1.381   4.783  0.00  0.00    +0.052 A 
ATOM      7  C   UNL     1      -0.042  -2.398   3.855  0.00  0.00    +0.002 A 
ATOM      8  C   UNL     1       0.253  -2.173   2.439  0.00  0.00    +0.020 A 
ATOM      9  C   UNL     1       0.800  -0.988   2.072  0.00  0.00    +0.035 A 
ATOM     10  C   UNL     1       1.081  -0.003   3.043  0.00  0.00    +0.254 A 
ATOM     11  O   UNL     1       1.577   1.053   2.691  0.00  0.00    -0.268 OA
ATOM     12  N   UNL     1       0.809  -0.199   4.345  0.00  0.00    -0.322 N 
ATOM     13  H   UNL     1       1.014   0.524   5.005  0.00  0.00    +0.169 HD
ATOM     14  C   UNL     1       0.282  -0.508   7.138  0.00  0.00    +0.046 C 
ENDROOT
BRANCH   9  15
ATOM     15  C   UNL     1       1.117  -0.725   0.622  0.00  0.00    +0.147 C 
BRANCH  15  16
ATOM     16  N   UNL     1       0.002  -0.004   0.002  0.00  0.00    -0.310 N 
BRANCH  16  17
ATOM     17  C   UNL     1      -1.005  -0.689  -0.576  0.00  0.00    +0.133 C 
ATOM     18  S   UNL     1      -2.308   0.154  -1.300  0.00  0.00    -0.019 S 
BRANCH  17  19
ATOM     19  N   UNL     1      -0.987  -2.036  -0.583  0.00  0.00    -0.329 N 
ATOM     20  C   UNL     1      -2.082  -2.780  -1.211  0.00  0.00    +0.127 C 
ATOM     21  H   UNL     1      -0.249  -2.513  -0.173  0.00  0.00    +0.147 HD
ENDBRANCH  17  19
ENDBRANCH  16  17
BRANCH  16  22
ATOM     22  C   UNL     1      -0.018   1.461   0.010  0.00  0.00    +0.088 C 
BRANCH  22  23
ATOM     23  C   UNL     1      -0.734   1.954   1.269  0.00  0.00    -0.060 C 
BRANCH  23  26
ATOM     24  C   UNL     1      -1.632   3.932   2.339  0.00  0.00    -0.097 C 
ATOM     25  C   UNL     1       0.604   3.967   1.411  0.00  0.00    -0.097 C 
ATOM     26  N   UNL     1      -0.764   3.432   1.252  0.00  0.00    +0.377 N 
ATOM     27  H   UNL     1      -1.143   3.747   0.351  0.00  0.00    -0.083 HD
ENDBRANCH  23  26
ENDBRANCH  22  23
ENDBRANCH  16  22
ENDBRANCH  15  16
ENDBRANCH   9  15
TORSDOF 7
