REMARK  Name = ZINC60377253
REMARK  11 active torsions:
REMARK  status: ('A' for Active; 'I' for Inactive)
REMARK    1  A    between atoms: C_1  and  C_2
REMARK    2  A    between atoms: C_4  and  N_14
REMARK    3  A    between atoms: N_5  and  C_7
REMARK    4  A    between atoms: C_15  and  C_17
REMARK    5  A    between atoms: C_17  and  N_18
REMARK    6  A    between atoms: N_18  and  C_19
REMARK    7  A    between atoms: N_18  and  C_20
REMARK    8  A    between atoms: C_20  and  C_22
REMARK    9  A    between atoms: C_20  and  C_23
REMARK   10  A    between atoms: C_27  and  S_29
REMARK   11  A    between atoms: S_29  and  N_32
REMARK                            x       y       z     vdW  Elec       q    Type
REMARK                         _______ _______ _______ _____ _____    ______ ____
ROOT
ATOM      1  C   UNL     1       0.044  -4.310  -3.778  0.00  0.00    +0.019 C 
ENDROOT
BRANCH   1   3
ATOM      2  N   UNL     1       0.040  -3.238  -1.549  0.00  0.00    -0.272 N 
ATOM      3  C   UNL     1       0.031  -3.094  -2.889  0.00  0.00    +0.202 C 
ATOM      4  O   UNL     1       0.013  -1.984  -3.379  0.00  0.00    -0.278 OA
ATOM      5  H   UNL     1       0.054  -4.125  -1.157  0.00  0.00    +0.156 HD
BRANCH   2   9
ATOM      6  C   UNL     1      -0.018   1.503   0.010  0.00  0.00    +0.067 C 
ATOM      7  C   UNL     1       0.002  -0.004   0.002  0.00  0.00    +0.062 A 
ATOM      8  C   UNL     1       0.008  -0.815  -1.137  0.00  0.00    +0.068 A 
ATOM      9  C   UNL     1       0.028  -2.112  -0.726  0.00  0.00    +0.129 A 
ATOM     10  N   UNL     1       0.035  -2.109   0.635  0.00  0.00    -0.218 N 
ATOM     11  N   UNL     1       0.023  -0.774   1.060  0.00  0.00    -0.170 NA
BRANCH  10  12
ATOM     12  C   UNL     1       0.055  -3.240   1.464  0.00  0.00    +0.068 A 
ATOM     13  C   UNL     1      -0.615  -4.394   1.081  0.00  0.00    +0.030 A 
ATOM     14  C   UNL     1      -0.594  -5.507   1.899  0.00  0.00    +0.040 A 
ATOM     15  C   UNL     1       0.095  -5.473   3.099  0.00  0.00    +0.124 A 
ATOM     16  C   UNL     1       0.764  -4.322   3.483  0.00  0.00    +0.040 A 
ATOM     17  C   UNL     1       0.750  -3.209   2.665  0.00  0.00    +0.030 A 
ATOM     18  F   UNL     1       0.114  -6.562   3.898  0.00  0.00    -0.205 F 
ENDBRANCH  10  12
ENDBRANCH   2   9
ENDBRANCH   1   3
BRANCH   1  19
ATOM     19  N   UNL     1       0.031  -3.889  -5.185  0.00  0.00    +0.388 N 
ATOM     20  C   UNL     1      -1.235  -3.205  -5.480  0.00  0.00    -0.095 C 
ATOM     21  H   UNL     1       0.801  -3.259  -5.354  0.00  0.00    -0.081 HD
BRANCH  19  22
ATOM     22  C   UNL     1       0.164  -5.068  -6.051  0.00  0.00    -0.040 C 
ATOM     23  C   UNL     1       1.482  -5.780  -5.744  0.00  0.00    -0.008 C 
BRANCH  22  24
ATOM     24  C   UNL     1       0.151  -4.635  -7.494  0.00  0.00    -0.059 A 
ATOM     25  C   UNL     1       0.825  -3.491  -7.879  0.00  0.00    +0.002 A 
ATOM     26  C   UNL     1       0.813  -3.094  -9.203  0.00  0.00    +0.002 A 
ATOM     27  C   UNL     1       0.127  -3.842 -10.143  0.00  0.00    +0.028 A 
ATOM     28  C   UNL     1      -0.546  -4.986  -9.758  0.00  0.00    +0.105 A 
ATOM     29  C   UNL     1      -0.530  -5.386  -8.434  0.00  0.00    +0.030 A 
BRANCH  28  30
ATOM     30  S   UNL     1      -1.420  -5.939 -10.955  0.00  0.00    +0.056 S 
ATOM     31  O   UNL     1      -2.418  -6.662 -10.249  0.00  0.00    -0.153 OA
ATOM     32  O   UNL     1      -1.731  -5.058 -12.026  0.00  0.00    -0.153 OA
BRANCH  30  33
ATOM     33  N   UNL     1      -0.360  -7.060 -11.557  0.00  0.00    -0.204 NA
ATOM     34  H   UNL     1       0.553  -7.089 -11.231  0.00  0.00    +0.144 HD
ATOM     35  H   UNL     1      -0.652  -7.688 -12.237  0.00  0.00    +0.144 HD
ENDBRANCH  30  33
ENDBRANCH  28  30
ENDBRANCH  22  24
ENDBRANCH  19  22
ENDBRANCH   1  19
TORSDOF 8
