REMARK  Name = ZINC34747761
REMARK  6 active torsions:
REMARK  status: ('A' for Active; 'I' for Inactive)
REMARK    1  A    between atoms: C_1  and  C_2
REMARK    2  A    between atoms: C_2  and  C_4
REMARK    3  A    between atoms: C_4  and  N_5
REMARK    4  A    between atoms: N_23  and  C_24
REMARK    5  A    between atoms: C_24  and  C_25
REMARK    6  A    between atoms: N_27  and  C_28
REMARK                            x       y       z     vdW  Elec       q    Type
REMARK                         _______ _______ _______ _____ _____    ______ ____
ROOT
ATOM      1  N   UNL     1      -1.043  -0.158   2.440  0.00  0.00    +0.384 N 
ATOM      2  C   UNL     1      -1.265  -0.122   3.891  0.00  0.00    -0.059 C 
ATOM      3  C   UNL     1      -2.572  -0.849   4.225  0.00  0.00    +0.089 C 
ATOM      4  N   UNL     1      -3.655  -0.249   3.430  0.00  0.00    -0.304 N 
ATOM      5  C   UNL     1      -3.449  -0.096   1.982  0.00  0.00    +0.089 C 
ATOM      6  C   UNL     1      -2.100   0.595   1.753  0.00  0.00    -0.059 C 
ATOM      7  C   UNL     1      -4.825   0.155   4.023  0.00  0.00    +0.202 A 
ATOM      8  N   UNL     1      -4.898   1.355   4.562  0.00  0.00    -0.208 NA
ATOM      9  C   UNL     1      -6.019   1.771   5.142  0.00  0.00    +0.117 A 
ATOM     10  C   UNL     1      -7.165   0.967   5.210  0.00  0.00    +0.076 A 
ATOM     11  C   UNL     1      -8.332   1.562   5.884  0.00  0.00    -0.023 A 
ATOM     12  C   UNL     1      -8.187   2.808   6.362  0.00  0.00    -0.004 A 
ATOM     13  S   UNL     1      -6.517   3.265   5.958  0.00  0.00    -0.073 S 
ATOM     14  C   UNL     1      -9.442   3.313   7.022  0.00  0.00    +0.043 C 
ATOM     15  C   UNL     1     -10.553   2.366   6.518  0.00  0.00    +0.010 C 
ATOM     16  C   UNL     1      -9.754   1.087   6.198  0.00  0.00    +0.037 C 
ATOM     17  C   UNL     1      -7.058  -0.330   4.617  0.00  0.00    +0.264 A 
ATOM     18  O   UNL     1      -8.006  -1.097   4.629  0.00  0.00    -0.267 OA
ATOM     19  N   UNL     1      -5.896  -0.689   4.041  0.00  0.00    -0.271 N 
ATOM     20  H   UNL     1      -1.055  -1.116   2.123  0.00  0.00    -0.081 HD
ENDROOT
BRANCH   1  21
ATOM     21  C   UNL     1       0.262   0.441   2.130  0.00  0.00    -0.048 C 
BRANCH  21  23
ATOM     22  C   UNL     1       1.851  -1.625   1.990  0.00  0.00    +0.036 C 
ATOM     23  C   UNL     1       1.357  -0.406   2.726  0.00  0.00    -0.096 C 
ATOM     24  C   UNL     1       1.880  -0.082   3.883  0.00  0.00    +0.005 C 
ENDBRANCH  21  23
ENDBRANCH   1  21
BRANCH  19  25
ATOM     25  C   UNL     1      -5.777  -2.013   3.426  0.00  0.00    +0.224 C 
BRANCH  25  26
ATOM     26  C   UNL     1      -5.411  -3.026   4.481  0.00  0.00    +0.237 C 
ATOM     27  O   UNL     1      -5.263  -2.675   5.632  0.00  0.00    -0.274 OA
ATOM     28  N   UNL     1      -5.247  -4.320   4.144  0.00  0.00    -0.283 N 
ATOM     29  H   UNL     1      -5.291  -4.588   3.212  0.00  0.00    +0.155 HD
BRANCH  28  30
ATOM     30  C   UNL     1      -5.014  -5.275   5.135  0.00  0.00    +0.041 A 
ATOM     31  C   UNL     1      -5.590  -5.141   6.379  0.00  0.00    +0.024 A 
ATOM     32  C   UNL     1      -5.365  -6.087   7.374  0.00  0.00    +0.002 A 
ATOM     33  C   UNL     1      -4.571  -7.170   7.148  0.00  0.00    +0.008 A 
ATOM     34  C   UNL     1      -3.965  -7.345   5.892  0.00  0.00    -0.016 A 
ATOM     35  C   UNL     1      -4.191  -6.391   4.870  0.00  0.00    +0.003 A 
ATOM     36  C   UNL     1      -3.588  -6.569   3.615  0.00  0.00    +0.010 A 
ATOM     37  C   UNL     1      -2.800  -7.657   3.394  0.00  0.00    +0.001 A 
ATOM     38  C   UNL     1      -2.581  -8.599   4.397  0.00  0.00    +0.001 A 
ATOM     39  C   UNL     1      -3.140  -8.453   5.630  0.00  0.00    +0.008 A 
ENDBRANCH  28  30
ENDBRANCH  25  26
ENDBRANCH  19  25
TORSDOF 5
