REMARK  Name = ZINC08868740
REMARK  7 active torsions:
REMARK  status: ('A' for Active; 'I' for Inactive)
REMARK    1  A    between atoms: C_1  and  C_2
REMARK    2  A    between atoms: C_5  and  S_8
REMARK    3  A    between atoms: S_8  and  N_11
REMARK    4  A    between atoms: C_15  and  C_17
REMARK    5  A    between atoms: N_19  and  C_20
REMARK    6  A    between atoms: C_21  and  C_29
REMARK    7  A    between atoms: C_28  and  N_57
REMARK                            x       y       z     vdW  Elec       q    Type
REMARK                         _______ _______ _______ _____ _____    ______ ____
ROOT
ATOM      1  C   UNL     1       6.503   1.561  -1.844  0.00  0.00    +0.236 C 
ATOM      2  O   UNL     1       6.778   2.159  -0.826  0.00  0.00    -0.274 OA
ATOM      3  N   UNL     1       7.431   0.789  -2.445  0.00  0.00    -0.278 N 
ATOM      4  H   UNL     1       7.210   0.311  -3.259  0.00  0.00    +0.155 HD
ENDROOT
BRANCH   3   5
ATOM      5  C   UNL     1       8.700   0.680  -1.898  0.00  0.00    +0.084 A 
ATOM      6  C   UNL     1       9.780  -0.058  -2.365  0.00  0.00    +0.068 A 
ATOM      7  C   UNL     1      11.011  -0.000  -1.599  0.00  0.00    -0.027 A 
ATOM      8  C   UNL     1      10.968   0.779  -0.494  0.00  0.00    -0.021 A 
ATOM      9  S   UNL     1       9.327   1.437  -0.470  0.00  0.00    -0.079 S 
ATOM     10  C   UNL     1      12.088   1.014   0.471  0.00  0.00    -0.036 C 
ATOM     11  C   UNL     1      13.451  -0.095  -1.198  0.00  0.00    -0.074 C 
ATOM     12  C   UNL     1      12.292  -0.740  -1.964  0.00  0.00    +0.018 C 
ATOM     13  C   UNL     1      14.326   0.265   1.031  0.00  0.00    -0.096 C 
ATOM     14  N   UNL     1      13.113  -0.032   0.239  0.00  0.00    +0.381 N 
ATOM     15  H   UNL     1      12.737  -0.941   0.534  0.00  0.00    -0.082 HD
BRANCH   6  16
ATOM     16  C   UNL     1       9.680  -0.865  -3.585  0.00  0.00    +0.244 C 
ATOM     17  O   UNL     1       9.956  -0.373  -4.664  0.00  0.00    -0.270 OA
ATOM     18  N   UNL     1       9.282  -2.150  -3.513  0.00  0.00    -0.325 N 
ATOM     19  H   UNL     1       9.062  -2.542  -2.653  0.00  0.00    +0.145 HD
ATOM     20  H   UNL     1       9.216  -2.684  -4.320  0.00  0.00    +0.145 HD
ENDBRANCH   6  16
ENDBRANCH   3   5
BRANCH   1  25
ATOM     21  N   UNL     1       4.297   2.570  -1.610  0.00  0.00    -0.165 NA
ATOM     22  C   UNL     1       3.895   3.733  -2.422  0.00  0.00    +0.110 C 
ATOM     23  C   UNL     1       3.963   3.236  -3.888  0.00  0.00    +0.019 C 
ATOM     24  C   UNL     1       5.207   2.310  -3.845  0.00  0.00    +0.031 C 
ATOM     25  C   UNL     1       5.123   1.680  -2.438  0.00  0.00    +0.166 C 
BRANCH  21  26
ATOM     26  S   UNL     1       3.891   2.312  -0.025  0.00  0.00    +0.062 S 
ATOM     27  O   UNL     1       3.608   3.588   0.534  0.00  0.00    -0.153 OA
ATOM     28  O   UNL     1       4.882   1.448   0.512  0.00  0.00    -0.153 OA
BRANCH  26  33
ATOM     29  C   UNL     1      -1.293  -0.775   0.011  0.00  0.00    +0.044 C 
ATOM     30  C   UNL     1       0.002  -0.004   0.002  0.00  0.00    -0.050 A 
ATOM     31  C   UNL     1      -0.017   1.378   0.010  0.00  0.00    +0.005 A 
ATOM     32  C   UNL     1       1.171   2.086   0.002  0.00  0.00    +0.029 A 
ATOM     33  C   UNL     1       2.377   1.411  -0.015  0.00  0.00    +0.106 A 
ATOM     34  C   UNL     1       2.396   0.029  -0.021  0.00  0.00    +0.029 A 
ATOM     35  C   UNL     1       1.208  -0.679  -0.013  0.00  0.00    +0.005 A 
ENDBRANCH  26  33
ENDBRANCH  21  26
ENDBRANCH   1  25
TORSDOF 5
