REMARK  Name = ZINC02323546
REMARK  9 active torsions:
REMARK  status: ('A' for Active; 'I' for Inactive)
REMARK    1  A    between atoms: C_6  and  O_7
REMARK    2  A    between atoms: O_7  and  C_8
REMARK    3  A    between atoms: C_8  and  C_9
REMARK    4  A    between atoms: C_9  and  O_10
REMARK    5  A    between atoms: O_10  and  C_11
REMARK    6  A    between atoms: C_16  and  C_17
REMARK    7  A    between atoms: N_18  and  N_19
REMARK    8  A    between atoms: C_20  and  C_22
REMARK    9  A    between atoms: C_22  and  C_23
REMARK                            x       y       z     vdW  Elec       q    Type
REMARK                         _______ _______ _______ _____ _____    ______ ____
ROOT
ATOM      1  C   UNL     1      -3.380  -0.552  -1.351  0.00  0.00    +0.129 A 
ATOM      2  C   UNL     1      -4.002  -1.290  -0.357  0.00  0.00    +0.048 A 
ATOM      3  C   UNL     1      -5.317  -1.687  -0.509  0.00  0.00    +0.023 A 
ATOM      4  C   UNL     1      -6.019  -1.360  -1.658  0.00  0.00    +0.042 A 
ATOM      5  C   UNL     1      -5.412  -0.631  -2.660  0.00  0.00    +0.033 A 
ATOM      6  C   UNL     1      -4.085  -0.220  -2.515  0.00  0.00    +0.038 A 
ATOM      7 CL   UNL     1      -7.669  -1.871  -1.838  0.00  0.00    -0.084 Cl
ENDROOT
BRANCH   6   8
ATOM      8  C   UNL     1      -3.431   0.560  -3.581  0.00  0.00    +0.142 C 
ATOM      9  N   UNL     1      -2.198   0.941  -3.442  0.00  0.00    -0.188 NA
BRANCH   9  10
ATOM     10  N   UNL     1      -1.576   1.682  -4.455  0.00  0.00    -0.207 N 
ATOM     11  C   UNL     1      -0.295   2.078  -4.312  0.00  0.00    +0.239 C 
ATOM     12  O   UNL     1       0.319   1.791  -3.305  0.00  0.00    -0.274 OA
ATOM     13  H   UNL     1      -2.132   1.942  -5.368  0.00  0.00    +0.177 HD
BRANCH  11  14
ATOM     14  C   UNL     1       0.374   2.875  -5.401  0.00  0.00    +0.162 C 
BRANCH  14  15
ATOM     15  C   UNL     1       1.792   3.188  -4.997  0.00  0.00    +0.112 A 
ATOM     16  N   UNL     1       2.901   2.508  -5.204  0.00  0.00    -0.144 NA
ATOM     17  N   UNL     1       4.023   2.912  -4.795  0.00  0.00    -0.126 NA
ATOM     18  C   UNL     1       4.156   4.051  -4.129  0.00  0.00    +0.179 A 
ATOM     19  S   UNL     1       2.450   4.593  -4.104  0.00  0.00    -0.035 S 
ATOM     20  N   UNL     1       5.292   4.653  -3.607  0.00  0.00    -0.336 N 
ATOM     21  H   UNL     1       5.211   5.613  -3.076  0.00  0.00    +0.144 HD
ATOM     22  H   UNL     1       6.273   4.170  -3.723  0.00  0.00    +0.144 HD
ENDBRANCH  14  15
ENDBRANCH  11  14
ENDBRANCH   9  10
ENDBRANCH   6   8
BRANCH   1  23
ATOM     23  O   UNL     1      -2.089  -0.158  -1.200  0.00  0.00    -0.488 OA
BRANCH  23  24
ATOM     24  C   UNL     1      -1.433  -0.534   0.013  0.00  0.00    +0.270 C 
BRANCH  24  25
ATOM     25  C   UNL     1       0.002  -0.004   0.002  0.00  0.00    +0.270 C 
BRANCH  25  26
ATOM     26  O   UNL     1      -0.017   1.425   0.010  0.00  0.00    -0.489 OA
BRANCH  26  32
ATOM     27  C   UNL     1       2.359   1.319  -0.008  0.00  0.00    +0.047 A 
ATOM     28  C   UNL     1       3.580   1.965  -0.022  0.00  0.00    +0.019 A 
ATOM     29  C   UNL     1       3.633   3.348  -0.015  0.00  0.00    +0.018 A 
ATOM     30  C   UNL     1       2.463   4.086   0.000  0.00  0.00    +0.019 A 
ATOM     31  C   UNL     1       1.240   3.444   0.009  0.00  0.00    +0.047 A 
ATOM     32  C   UNL     1       1.185   2.058   0.002  0.00  0.00    +0.121 A 
ATOM     33 BR   UNL     1       5.306   4.229  -0.028  0.00  0.00    -0.050 Br
ENDBRANCH  26  32
ENDBRANCH  25  26
ENDBRANCH  24  25
ENDBRANCH  23  24
ENDBRANCH   1  23
TORSDOF 9
