REMARK  Name = ZINC45441021
REMARK  10 active torsions:
REMARK  status: ('A' for Active; 'I' for Inactive)
REMARK    1  A    between atoms: C_1  and  C_2
REMARK    2  A    between atoms: C_5  and  C_25
REMARK    3  A    between atoms: N_8  and  C_10
REMARK    4  A    between atoms: C_10  and  C_11
REMARK    5  A    between atoms: C_11  and  C_12
REMARK    6  A    between atoms: C_12  and  C_13
REMARK    7  A    between atoms: C_13  and  N_14
REMARK    8  A    between atoms: N_17  and  C_18
REMARK    9  A    between atoms: C_18  and  C_19
REMARK   10  A    between atoms: C_18  and  C_22
REMARK                            x       y       z     vdW  Elec       q    Type
REMARK                         _______ _______ _______ _____ _____    ______ ____
ROOT
ATOM      1  N   UNL     1       3.022   2.084   7.711  0.00  0.00    -0.299 N 
ATOM      2  C   UNL     1       2.484   1.764   8.905  0.00  0.00    +0.301 C 
ATOM      3  O   UNL     1       1.427   2.258   9.248  0.00  0.00    -0.253 OA
ATOM      4  N   UNL     1       3.117   0.896   9.719  0.00  0.00    -0.281 N 
ATOM      5  H   UNL     1       3.865   1.689   7.438  0.00  0.00    +0.150 HD
ATOM      6  H   UNL     1       3.960   0.502   9.445  0.00  0.00    +0.151 HD
ENDROOT
BRANCH   1   7
ATOM      7  C   UNL     1       2.333   3.027   6.827  0.00  0.00    +0.105 C 
BRANCH   7   8
ATOM      8  C   UNL     1       3.150   3.214   5.546  0.00  0.00    +0.017 C 
BRANCH   8   9
ATOM      9  C   UNL     1       2.430   4.199   4.622  0.00  0.00    -0.017 C 
BRANCH   9  10
ATOM     10  C   UNL     1       3.247   4.387   3.342  0.00  0.00    -0.079 C 
BRANCH  10  16
ATOM     11  C   UNL     1       0.256   7.036   1.986  0.00  0.00    +0.005 C 
ATOM     12  C   UNL     1       0.516   5.769   1.170  0.00  0.00    -0.031 C 
ATOM     13  C   UNL     1       1.357   6.118  -0.062  0.00  0.00    +0.003 C 
ATOM     14  C   UNL     1       2.718   6.650   0.395  0.00  0.00    -0.031 C 
ATOM     15  C   UNL     1       3.397   5.604   1.282  0.00  0.00    -0.076 C 
ATOM     16  N   UNL     1       2.557   5.333   2.455  0.00  0.00    +0.380 N 
ATOM     17  C   UNL     1       1.275   4.755   2.029  0.00  0.00    -0.076 C 
ATOM     18  C   UNL     1       3.594   6.929  -0.828  0.00  0.00    +0.005 C 
ATOM     19  H   UNL     1       2.387   6.194   2.952  0.00  0.00    -0.082 HD
ENDBRANCH  10  16
ENDBRANCH   9  10
ENDBRANCH   8   9
ENDBRANCH   7   8
ENDBRANCH   1   7
BRANCH   4  20
ATOM     20  C   UNL     1       2.532   0.548  11.016  0.00  0.00    +0.246 C 
BRANCH  20  21
ATOM     21  C   UNL     1       1.538  -0.570  10.836  0.00  0.00    +0.240 C 
ATOM     22  O   UNL     1       1.651  -1.337   9.903  0.00  0.00    -0.273 OA
ATOM     23  N   UNL     1       0.524  -0.718  11.711  0.00  0.00    -0.327 N 
ATOM     24  H   UNL     1       0.391  -0.063  12.414  0.00  0.00    +0.145 HD
ATOM     25  H   UNL     1      -0.073  -1.479  11.637  0.00  0.00    +0.145 HD
ENDBRANCH  20  21
BRANCH  20  26
ATOM     26  C   UNL     1       3.623   0.104  11.956  0.00  0.00    +0.240 C 
ATOM     27  O   UNL     1       4.663  -0.337  11.513  0.00  0.00    -0.273 OA
ATOM     28  N   UNL     1       3.444   0.196  13.288  0.00  0.00    -0.327 N 
ATOM     29  H   UNL     1       2.643   0.614  13.642  0.00  0.00    +0.145 HD
ATOM     30  H   UNL     1       4.116  -0.154  13.894  0.00  0.00    +0.145 HD
ENDBRANCH  20  26
ENDBRANCH   4  20
TORSDOF 8
