REMARK  Name = ZINC39567368
REMARK  12 active torsions:
REMARK  status: ('A' for Active; 'I' for Inactive)
REMARK    1  A    between atoms: C_1  and  C_2
REMARK    2  A    between atoms: C_2  and  C_4
REMARK    3  A    between atoms: C_2  and  N_28
REMARK    4  A    between atoms: C_7  and  S_16
REMARK    5  A    between atoms: N_8  and  C_9
REMARK    6  A    between atoms: S_16  and  C_17
REMARK    7  A    between atoms: C_17  and  C_19
REMARK    8  A    between atoms: C_17  and  C_22
REMARK    9  A    between atoms: C_19  and  C_20
REMARK   10  A    between atoms: C_19  and  C_21
REMARK   11  A    between atoms: N_28  and  C_29
REMARK   12  A    between atoms: N_28  and  C_30
REMARK                            x       y       z     vdW  Elec       q    Type
REMARK                         _______ _______ _______ _____ _____    ______ ____
ROOT
ATOM      1  C   UNL     1       0.811  -0.479  -1.199  0.00  0.00    +0.125 A 
ATOM      2  N   UNL     1       2.095  -0.580  -1.398  0.00  0.00    -0.135 NA
ATOM      3  N   UNL     1       2.326  -1.037  -2.576  0.00  0.00    -0.122 NA
ATOM      4  C   UNL     1       1.192  -1.256  -3.201  0.00  0.00    +0.197 A 
ATOM      5  N   UNL     1       0.187  -0.912  -2.339  0.00  0.00    -0.275 N 
ENDROOT
BRANCH   5   6
ATOM      6  C   UNL     1      -1.194  -0.984  -2.574  0.00  0.00    +0.050 A 
ATOM      7  C   UNL     1      -1.982  -1.849  -1.828  0.00  0.00    +0.028 A 
ATOM      8  C   UNL     1      -3.341  -1.918  -2.061  0.00  0.00    +0.022 A 
ATOM      9  C   UNL     1      -3.918  -1.126  -3.038  0.00  0.00    +0.041 A 
ATOM     10  C   UNL     1      -3.135  -0.262  -3.783  0.00  0.00    +0.022 A 
ATOM     11  C   UNL     1      -1.775  -0.186  -3.550  0.00  0.00    +0.028 A 
ATOM     12 CL   UNL     1      -5.627  -1.216  -3.330  0.00  0.00    -0.084 Cl
ENDBRANCH   5   6
BRANCH   1  14
ATOM     13  C   UNL     1       0.261   1.539   0.134  0.00  0.00    -0.005 C 
ATOM     14  C   UNL     1       0.138   0.016   0.055  0.00  0.00    -0.003 C 
BRANCH  14  15
ATOM     15  N   UNL     1       0.782  -0.589   1.228  0.00  0.00    +0.382 N 
ATOM     16  C   UNL     1       0.126  -0.107   2.451  0.00  0.00    -0.096 C 
ATOM     17  C   UNL     1       0.663  -2.051   1.153  0.00  0.00    -0.096 C 
ATOM     18  H   UNL     1       1.758  -0.332   1.247  0.00  0.00    -0.082 HD
ENDBRANCH  14  15
ENDBRANCH   1  14
BRANCH   4  19
ATOM     19  S   UNL     1       1.000  -1.881  -4.837  0.00  0.00    -0.073 S 
BRANCH  19  20
ATOM     20  C   UNL     1       2.699  -2.006  -5.461  0.00  0.00    +0.143 C 
BRANCH  20  21
ATOM     21  C   UNL     1       3.440  -3.068  -4.691  0.00  0.00    +0.234 C 
ATOM     22  O   UNL     1       2.828  -3.968  -4.157  0.00  0.00    -0.274 OA
ATOM     23  N   UNL     1       4.784  -3.018  -4.596  0.00  0.00    -0.239 N 
ATOM     24  C   UNL     1       5.446  -3.969  -3.907  0.00  0.00    +0.303 C 
ATOM     25  O   UNL     1       4.832  -4.871  -3.372  0.00  0.00    -0.253 OA
ATOM     26  N   UNL     1       6.790  -3.919  -3.812  0.00  0.00    -0.313 N 
ATOM     27  H   UNL     1       5.274  -2.298  -5.023  0.00  0.00    +0.159 HD
ATOM     28  H   UNL     1       7.280  -3.199  -4.239  0.00  0.00    +0.146 HD
ATOM     29  H   UNL     1       7.266  -4.603  -3.316  0.00  0.00    +0.146 HD
ENDBRANCH  20  21
BRANCH  20  30
ATOM     30  C   UNL     1       2.672  -2.377  -6.945  0.00  0.00    +0.005 C 
ATOM     31  C   UNL     1       1.925  -1.295  -7.728  0.00  0.00    +0.009 C 
ATOM     32  C   UNL     1       4.105  -2.489  -7.469  0.00  0.00    +0.009 C 
ENDBRANCH  20  30
ENDBRANCH  19  20
ENDBRANCH   4  19
TORSDOF 7
