REMARK  Name = ZINC21816249
REMARK  4 active torsions:
REMARK  status: ('A' for Active; 'I' for Inactive)
REMARK    1  A    between atoms: C_5  and  N_8
REMARK    2  A    between atoms: C_6  and  N_7
REMARK    3  A    between atoms: C_9  and  C_11
REMARK    4  A    between atoms: C_11  and  N_12
REMARK                            x       y       z     vdW  Elec       q    Type
REMARK                         _______ _______ _______ _____ _____    ______ ____
ROOT
ATOM      1  N   UNL     1      -0.067   5.907   0.036  0.00  0.00    -0.284 N 
ATOM      2  C   UNL     1       1.073   6.594  -0.173  0.00  0.00    +0.201 C 
ATOM      3  O   UNL     1       2.094   6.003  -0.458  0.00  0.00    -0.278 OA
ATOM      4  H   UNL     1      -1.009   6.445   0.213  0.00  0.00    +0.155 HD
ENDROOT
BRANCH   1   9
ATOM      5  C   UNL     1       0.222   2.414   1.189  0.00  0.00    +0.044 A 
ATOM      6  C   UNL     1      -0.021   1.732   0.010  0.00  0.00    +0.044 A 
ATOM      7  C   UNL     1      -0.284   2.429  -1.156  0.00  0.00    +0.042 A 
ATOM      8  C   UNL     1      -0.300   3.813  -1.149  0.00  0.00    +0.065 A 
ATOM      9  C   UNL     1      -0.052   4.504   0.028  0.00  0.00    +0.073 A 
ATOM     10  C   UNL     1       0.213   3.801   1.202  0.00  0.00    +0.049 A 
ATOM     11 CL   UNL     1      -0.631   4.684  -2.614  0.00  0.00    -0.082 Cl
ATOM     12 CL   UNL     1      -0.003  -0.004  -0.006  0.00  0.00    -0.083 Cl
BRANCH  10  13
ATOM     13  N   UNL     1       0.464   4.492   2.392  0.00  0.00    -0.356 N 
ATOM     14  H   UNL     1       0.457   5.592   2.401  0.00  0.00    +0.142 HD
ATOM     15  H   UNL     1       0.669   3.936   3.319  0.00  0.00    +0.142 HD
ENDBRANCH  10  13
ENDBRANCH   1   9
BRANCH   2  16
ATOM     16  C   UNL     1       1.081   8.096  -0.053  0.00  0.00    +0.019 C 
BRANCH  16  17
ATOM     17  N   UNL     1       2.432   8.603  -0.325  0.00  0.00    +0.386 N 
ATOM     18  C   UNL     1       3.385   8.124   0.679  0.00  0.00    -0.067 C 
ATOM     19  C   UNL     1       4.816   8.263   0.146  0.00  0.00    +0.050 C 
ATOM     20  S   UNL     1       5.139  10.026  -0.171  0.00  0.00    -0.164 S 
ATOM     21  C   UNL     1       3.703  10.523  -1.171  0.00  0.00    +0.050 C 
ATOM     22  C   UNL     1       2.431  10.062  -0.451  0.00  0.00    -0.067 C 
ATOM     23  H   UNL     1       2.769   8.204  -1.294  0.00  0.00    -0.081 HD
ENDBRANCH  16  17
ENDBRANCH   2  16
TORSDOF 4
