REMARK  Name = ZINC35912035
REMARK  10 active torsions:
REMARK  status: ('A' for Active; 'I' for Inactive)
REMARK    1  A    between atoms: C_1  and  C_2
REMARK    2  A    between atoms: C_4  and  C_15
REMARK    3  A    between atoms: N_6  and  C_7
REMARK    4  A    between atoms: C_12  and  O_13
REMARK    5  A    between atoms: O_13  and  C_14
REMARK    6  A    between atoms: C_16  and  C_35
REMARK    7  A    between atoms: C_22  and  C_25
REMARK    8  A    between atoms: C_25  and  C_26
REMARK    9  A    between atoms: N_28  and  C_29
REMARK   10  A    between atoms: C_29  and  C_30
REMARK                            x       y       z     vdW  Elec       q    Type
REMARK                         _______ _______ _______ _____ _____    ______ ____
ROOT
ATOM      1  C   UNL     1       0.125  -3.314  -1.557  0.00  0.00    +0.088 A 
ATOM      2  C   UNL     1       0.374  -4.575  -1.024  0.00  0.00    +0.055 A 
ATOM      3  N   UNL     1       0.416  -5.617  -1.846  0.00  0.00    -0.227 NA
ATOM      4  C   UNL     1       0.228  -5.476  -3.136  0.00  0.00    +0.180 A 
ATOM      5  N   UNL     1      -0.023  -4.277  -3.749  0.00  0.00    -0.258 N 
ATOM      6  C   UNL     1      -0.081  -3.177  -2.941  0.00  0.00    +0.268 A 
ATOM      7  O   UNL     1      -0.305  -2.077  -3.420  0.00  0.00    -0.266 OA
ATOM      8  C   UNL     1      -0.197  -4.303  -5.112  0.00  0.00    +0.044 A 
ATOM      9  C   UNL     1      -0.122  -5.446  -5.794  0.00  0.00    +0.071 A 
ATOM     10  S   UNL     1       0.215  -6.625  -4.495  0.00  0.00    -0.057 S 
ATOM     11  C   UNL     1       0.593  -4.754   0.456  0.00  0.00    +0.066 C 
ENDROOT
BRANCH   1  15
ATOM     12  C   UNL     1      -0.359   1.476   0.051  0.00  0.00    +0.066 C 
ATOM     13  C   UNL     1      -0.146  -0.016   0.019  0.00  0.00    +0.043 A 
ATOM     14  C   UNL     1      -0.178  -0.801  -1.079  0.00  0.00    +0.053 A 
ATOM     15  C   UNL     1       0.070  -2.127  -0.671  0.00  0.00    +0.100 A 
ATOM     16  N   UNL     1       0.245  -2.127   0.634  0.00  0.00    -0.166 NA
ATOM     17  N   UNL     1       0.119  -0.808   1.091  0.00  0.00    -0.233 N 
BRANCH  17  18
ATOM     18  C   UNL     1       0.242  -0.381   2.420  0.00  0.00    +0.107 A 
ATOM     19  C   UNL     1       1.028   0.720   2.727  0.00  0.00    +0.031 A 
ATOM     20  C   UNL     1       1.148   1.139   4.039  0.00  0.00    +0.002 A 
ATOM     21  C   UNL     1       0.487   0.462   5.048  0.00  0.00    +0.004 A 
ATOM     22  C   UNL     1      -0.297  -0.636   4.750  0.00  0.00    +0.048 A 
ATOM     23  C   UNL     1      -0.428  -1.059   3.436  0.00  0.00    +0.145 A 
BRANCH  23  24
ATOM     24  O   UNL     1      -1.203  -2.136   3.141  0.00  0.00    -0.493 OA
ATOM     25  C   UNL     1      -1.861  -2.781   4.233  0.00  0.00    +0.277 C 
ENDBRANCH  23  24
ENDBRANCH  17  18
ENDBRANCH   1  15
BRANCH   8  26
ATOM     26  C   UNL     1      -0.477  -3.018  -5.848  0.00  0.00    +0.150 C 
BRANCH  26  27
ATOM     27  C   UNL     1      -1.955  -2.727  -5.806  0.00  0.00    +0.219 C 
ATOM     28  O   UNL     1      -2.707  -3.488  -5.234  0.00  0.00    -0.275 OA
ATOM     29  N   UNL     1      -2.441  -1.621  -6.403  0.00  0.00    -0.308 N 
ATOM     30  H   UNL     1      -1.839  -1.012  -6.861  0.00  0.00    +0.149 HD
BRANCH  29  31
ATOM     31  C   UNL     1      -3.878  -1.338  -6.362  0.00  0.00    +0.178 C 
BRANCH  31  32
ATOM     32  C   UNL     1      -4.158  -0.053  -7.098  0.00  0.00    +0.122 A 
ATOM     33  C   UNL     1      -4.446   0.057  -8.408  0.00  0.00    +0.046 A 
ATOM     34  C   UNL     1      -4.635   1.433  -8.671  0.00  0.00    +0.041 A 
ATOM     35  C   UNL     1      -4.450   2.082  -7.508  0.00  0.00    +0.195 A 
ATOM     36  O   UNL     1      -4.167   1.176  -6.557  0.00  0.00    -0.466 OA
ENDBRANCH  31  32
ENDBRANCH  29  31
ENDBRANCH  26  27
ENDBRANCH   8  26
TORSDOF 7
