REMARK  Name = ZINC39630947
REMARK  15 active torsions:
REMARK  status: ('A' for Active; 'I' for Inactive)
REMARK    1  A    between atoms: C_1  and  C_2
REMARK    2  A    between atoms: C_2  and  C_3
REMARK    3  A    between atoms: C_3  and  C_4
REMARK    4  A    between atoms: C_4  and  C_5
REMARK    5  A    between atoms: C_5  and  C_7
REMARK    6  A    between atoms: C_5  and  C_8
REMARK    7  A    between atoms: C_12  and  C_21
REMARK    8  A    between atoms: N_23  and  C_24
REMARK    9  A    between atoms: C_24  and  C_25
REMARK   10  A    between atoms: C_25  and  C_26
REMARK   11  A    between atoms: C_25  and  C_27
REMARK   12  A    between atoms: C_25  and  C_28
REMARK   13  A    between atoms: C_28  and  N_29
REMARK   14  A    between atoms: N_29  and  C_30
REMARK   15  A    between atoms: N_29  and  C_31
REMARK                            x       y       z     vdW  Elec       q    Type
REMARK                         _______ _______ _______ _____ _____    ______ ____
ROOT
ATOM      1  C   UNL     1       1.601  -2.962   3.286  0.00  0.00    +0.218 C 
ATOM      2  O   UNL     1       1.242  -3.470   2.244  0.00  0.00    -0.275 OA
ATOM      3  N   UNL     1       2.085  -3.734   4.279  0.00  0.00    -0.300 N 
ATOM      4  C   UNL     1       2.468  -3.317   5.649  0.00  0.00    +0.121 C 
ATOM      5  C   UNL     1       1.981  -4.467   6.558  0.00  0.00    +0.100 C 
ATOM      6  C   UNL     1       1.911  -5.694   5.634  0.00  0.00    -0.004 C 
ATOM      7  C   UNL     1       2.350  -5.192   4.251  0.00  0.00    +0.115 C 
ATOM      8  C   UNL     1       0.482  -6.225   5.567  0.00  0.00    -0.010 C 
ATOM      9  C   UNL     1       0.448  -7.478   4.688  0.00  0.00    -0.082 C 
ATOM     10  N   UNL     1       1.343  -8.496   5.251  0.00  0.00    +0.379 N 
ATOM     11  C   UNL     1       2.729  -8.014   5.226  0.00  0.00    -0.082 C 
ATOM     12  C   UNL     1       2.860  -6.783   6.127  0.00  0.00    -0.010 C 
ATOM     13  H   UNL     1       1.073  -8.691   6.204  0.00  0.00    -0.086 HD
ATOM     14  H   UNL     1       1.274  -9.342   4.705  0.00  0.00    -0.086 HD
ENDROOT
BRANCH   5  15
ATOM     15  C   UNL     1       2.963  -4.704   7.676  0.00  0.00    +0.218 C 
ATOM     16  O   UNL     1       4.147  -4.512   7.494  0.00  0.00    -0.275 OA
ATOM     17  N   UNL     1       2.527  -5.130   8.877  0.00  0.00    -0.315 N 
ATOM     18  H   UNL     1       1.580  -5.284   9.023  0.00  0.00    +0.149 HD
BRANCH  17  19
ATOM     19  C   UNL     1       3.482  -5.361   9.964  0.00  0.00    +0.108 C 
BRANCH  19  20
ATOM     20  C   UNL     1       2.732  -5.836  11.210  0.00  0.00    -0.034 C 
ATOM     21  C   UNL     1       1.722  -4.768  11.636  0.00  0.00    +0.010 C 
ATOM     22  C   UNL     1       1.993  -7.139  10.895  0.00  0.00    +0.010 C 
BRANCH  20  23
ATOM     23  C   UNL     1       3.729  -6.077  12.345  0.00  0.00    -0.072 C 
BRANCH  23  24
ATOM     24  N   UNL     1       3.016  -6.593  13.522  0.00  0.00    +0.376 N 
ATOM     25  C   UNL     1       2.905  -8.054  13.425  0.00  0.00    -0.097 C 
ATOM     26  C   UNL     1       3.759  -6.237  14.738  0.00  0.00    -0.097 C 
ATOM     27  H   UNL     1       2.093  -6.187  13.560  0.00  0.00    -0.083 HD
ENDBRANCH  23  24
ENDBRANCH  20  23
ENDBRANCH  19  20
ENDBRANCH  17  19
ENDBRANCH   5  15
BRANCH   1  28
ATOM     28  C   UNL     1       1.504  -1.470   3.469  0.00  0.00    +0.072 C 
ATOM     29  C   UNL     1       0.160  -1.121   4.111  0.00  0.00    +0.017 C 
BRANCH  28  30
ATOM     30  C   UNL     1       1.614  -0.780   2.108  0.00  0.00    +0.012 C 
BRANCH  30  31
ATOM     31  C   UNL     1       1.642   0.737   2.305  0.00  0.00    +0.000 C 
BRANCH  31  33
ATOM     32  C   UNL     1       1.779   2.943   1.141  0.00  0.00    +0.004 C 
ATOM     33  C   UNL     1       1.751   1.426   0.944  0.00  0.00    -0.003 C 
ENDBRANCH  31  33
ENDBRANCH  30  31
ENDBRANCH  28  30
ENDBRANCH   1  28
TORSDOF 9
