REMARK  Name = ZINC07191914
REMARK  6 active torsions:
REMARK  status: ('A' for Active; 'I' for Inactive)
REMARK    1  A    between atoms: C_8  and  C_10
REMARK    2  A    between atoms: C_15  and  C_16
REMARK    3  A    between atoms: C_15  and  N_48
REMARK    4  A    between atoms: N_18  and  C_19
REMARK    5  A    between atoms: C_22  and  S_25
REMARK    6  A    between atoms: S_25  and  N_28
REMARK                            x       y       z     vdW  Elec       q    Type
REMARK                         _______ _______ _______ _____ _____    ______ ____
ROOT
ATOM      1  C   UNL     1      -3.189   1.171  -1.496  0.00  0.00    +0.020 C 
ENDROOT
BRANCH   1   6
ATOM      2  C   UNL     1      -2.288   1.562   0.726  0.00  0.00    -0.011 C 
ATOM      3  C   UNL     1      -0.828   1.625   1.254  0.00  0.00    -0.010 C 
ATOM      4  C   UNL     1      -0.039   1.052   0.046  0.00  0.00    -0.020 C 
ATOM      5  C   UNL     1      -0.821   1.589  -1.171  0.00  0.00    -0.077 C 
ATOM      6  N   UNL     1      -2.179   1.918  -0.701  0.00  0.00    +0.391 N 
ATOM      7  H   UNL     1      -2.343   2.925  -0.813  0.00  0.00    -0.080 HD
BRANCH   2  15
ATOM      8  C   UNL     1      -6.433   4.403   4.308  0.00  0.00    +0.002 A 
ATOM      9  C   UNL     1      -6.042   5.664   3.880  0.00  0.00    +0.001 A 
ATOM     10  C   UNL     1      -5.025   5.781   2.952  0.00  0.00    +0.017 A 
ATOM     11  C   UNL     1      -4.419   4.646   2.470  0.00  0.00    +0.039 A 
ATOM     12  C   UNL     1      -4.795   3.349   2.888  0.00  0.00    +0.078 A 
ATOM     13  C   UNL     1      -5.839   3.273   3.837  0.00  0.00    +0.029 A 
ATOM     14  N   UNL     1      -4.094   2.350   2.313  0.00  0.00    -0.246 NA
ATOM     15  C   UNL     1      -3.148   2.569   1.444  0.00  0.00    +0.066 A 
ATOM     16  S   UNL     1      -3.113   4.300   1.318  0.00  0.00    -0.074 S 
ENDBRANCH   2  15
ENDBRANCH   1   6
BRANCH   1  17
ATOM     17  C   UNL     1      -3.168   1.664  -2.920  0.00  0.00    +0.201 C 
ATOM     18  O   UNL     1      -2.337   2.477  -3.268  0.00  0.00    -0.278 OA
ATOM     19  N   UNL     1      -4.072   1.203  -3.806  0.00  0.00    -0.287 N 
ATOM     20  H   UNL     1      -4.775   0.602  -3.513  0.00  0.00    +0.155 HD
BRANCH  19  21
ATOM     21  C   UNL     1      -3.997   1.591  -5.148  0.00  0.00    +0.033 A 
ATOM     22  C   UNL     1      -3.581   2.873  -5.480  0.00  0.00    +0.025 A 
ATOM     23  C   UNL     1      -3.503   3.252  -6.806  0.00  0.00    +0.030 A 
ATOM     24  C   UNL     1      -3.850   2.358  -7.803  0.00  0.00    +0.105 A 
ATOM     25  C   UNL     1      -4.270   1.081  -7.476  0.00  0.00    +0.030 A 
ATOM     26  C   UNL     1      -4.345   0.696  -6.152  0.00  0.00    +0.025 A 
BRANCH  24  27
ATOM     27  S   UNL     1      -3.756   2.846  -9.493  0.00  0.00    +0.056 S 
ATOM     28  O   UNL     1      -2.815   3.909  -9.557  0.00  0.00    -0.153 OA
ATOM     29  O   UNL     1      -3.611   1.655 -10.253  0.00  0.00    -0.153 OA
BRANCH  27  30
ATOM     30  N   UNL     1      -5.226   3.491  -9.899  0.00  0.00    -0.204 NA
ATOM     31  H   UNL     1      -5.934   3.537  -9.238  0.00  0.00    +0.144 HD
ATOM     32  H   UNL     1      -5.379   3.823 -10.797  0.00  0.00    +0.144 HD
ENDBRANCH  27  30
ENDBRANCH  24  27
ENDBRANCH  19  21
ENDBRANCH   1  17
TORSDOF 6
