REMARK  Name = ZINC04145068
REMARK  8 active torsions:
REMARK  status: ('A' for Active; 'I' for Inactive)
REMARK    1  A    between atoms: C_1  and  N_50
REMARK    2  A    between atoms: N_4  and  C_7
REMARK    3  A    between atoms: C_7  and  S_9
REMARK    4  A    between atoms: S_9  and  C_10
REMARK    5  A    between atoms: C_10  and  C_11
REMARK    6  A    between atoms: N_17  and  C_18
REMARK    7  A    between atoms: C_21  and  O_24
REMARK    8  A    between atoms: O_24  and  C_25
REMARK                            x       y       z     vdW  Elec       q    Type
REMARK                         _______ _______ _______ _____ _____    ______ ____
ROOT
ATOM      1  C   UNL     1       3.451   6.195   0.306  0.00  0.00    +0.146 A 
ATOM      2  N   UNL     1       4.609   5.558   0.292  0.00  0.00    -0.199 NA
ATOM      3  C   UNL     1       4.639   4.231   0.185  0.00  0.00    +0.217 A 
ATOM      4  N   UNL     1       3.503   3.548   0.092  0.00  0.00    -0.181 NA
ATOM      5  C   UNL     1       2.342   4.193   0.106  0.00  0.00    +0.224 A 
ATOM      6  N   UNL     1       2.320   5.520   0.209  0.00  0.00    -0.198 NA
ATOM      7  N   UNL     1       1.158   3.487   0.010  0.00  0.00    -0.284 N 
ATOM      8  N   UNL     1       5.848   3.566   0.171  0.00  0.00    -0.327 N 
ATOM      9  H   UNL     1       0.315   3.962  -0.060  0.00  0.00    +0.155 HD
ATOM     10  H   UNL     1       5.869   2.600   0.093  0.00  0.00    +0.145 HD
ATOM     11  H   UNL     1       6.677   4.066   0.239  0.00  0.00    +0.145 HD
ENDROOT
BRANCH   7  12
ATOM     12  C   UNL     1       1.176   2.087   0.013  0.00  0.00    +0.034 A 
ATOM     13  C   UNL     1       2.132   1.406   0.754  0.00  0.00    +0.027 A 
ATOM     14  C   UNL     1       2.149   0.025   0.756  0.00  0.00    +0.047 A 
ATOM     15  C   UNL     1       1.210  -0.682   0.019  0.00  0.00    +0.120 A 
ATOM     16  C   UNL     1       0.254  -0.002  -0.721  0.00  0.00    +0.047 A 
ATOM     17  C   UNL     1       0.236   1.379  -0.725  0.00  0.00    +0.027 A 
BRANCH  15  18
ATOM     18  O   UNL     1       1.226  -2.041   0.022  0.00  0.00    -0.495 OA
ATOM     19  C   UNL     1       0.230  -2.704  -0.759  0.00  0.00    +0.277 C 
ENDBRANCH  15  18
ENDBRANCH   7  12
BRANCH   1  20
ATOM     20  C   UNL     1       3.422   7.697   0.427  0.00  0.00    +0.152 C 
BRANCH  20  21
ATOM     21  S   UNL     1       3.466   8.437  -1.224  0.00  0.00    -0.095 S 
BRANCH  21  22
ATOM     22  C   UNL     1       3.423  10.145  -0.796  0.00  0.00    +0.109 C 
ATOM     23  S   UNL     1       3.359  10.614   0.850  0.00  0.00    -0.028 S 
BRANCH  22  27
ATOM     24  C   UNL     1       1.535  13.636  -4.496  0.00  0.00    -0.096 C 
ATOM     25  C   UNL     1       2.289  13.178  -2.241  0.00  0.00    -0.060 C 
ATOM     26  C   UNL     1       3.405  12.515  -1.427  0.00  0.00    +0.087 C 
ATOM     27  N   UNL     1       3.441  11.083  -1.763  0.00  0.00    -0.323 N 
ATOM     28  C   UNL     1       3.502  10.703  -3.183  0.00  0.00    +0.087 C 
ATOM     29  C   UNL     1       2.376  11.438  -3.928  0.00  0.00    -0.060 C 
ATOM     30  N   UNL     1       2.510  12.889  -3.675  0.00  0.00    +0.380 N 
ATOM     31  H   UNL     1       3.459  13.185  -3.932  0.00  0.00    -0.082 HD
ENDBRANCH  22  27
ENDBRANCH  21  22
ENDBRANCH  20  21
ENDBRANCH   1  20
TORSDOF 6
