REMARK  Name = ZINC65602037
REMARK  12 active torsions:
REMARK  status: ('A' for Active; 'I' for Inactive)
REMARK    1  A    between atoms: C_1  and  C_2
REMARK    2  A    between atoms: C_2  and  N_3
REMARK    3  A    between atoms: N_3  and  C_4
REMARK    4  A    between atoms: N_3  and  C_6
REMARK    5  A    between atoms: C_4  and  C_5
REMARK    6  A    between atoms: C_6  and  C_7
REMARK    7  A    between atoms: C_6  and  C_24
REMARK    8  A    between atoms: C_7  and  N_8
REMARK    9  A    between atoms: C_9  and  C_11
REMARK   10  A    between atoms: N_13  and  C_14
REMARK   11  A    between atoms: N_13  and  C_15
REMARK   12  A    between atoms: C_18  and  C_21
REMARK                            x       y       z     vdW  Elec       q    Type
REMARK                         _______ _______ _______ _____ _____    ______ ____
ROOT
ATOM      1  N   UNL     1      -3.567  -1.258  -0.810  0.00  0.00    -0.309 N 
ATOM      2  C   UNL     1      -4.862  -1.585  -0.988  0.00  0.00    +0.299 C 
ATOM      3  O   UNL     1      -5.530  -1.954  -0.044  0.00  0.00    -0.265 OA
ATOM      4  H   UNL     1      -3.053  -0.894  -1.548  0.00  0.00    +0.149 HD
ENDROOT
BRANCH   2   5
ATOM      5  C   UNL     1      -5.476  -1.493  -2.347  0.00  0.00    +0.305 C 
ATOM      6  O   UNL     1      -4.797  -1.167  -3.299  0.00  0.00    -0.265 OA
ATOM      7  N   UNL     1      -6.784  -1.772  -2.516  0.00  0.00    -0.267 N 
ATOM      8  C   UNL     1      -7.616  -2.111  -1.359  0.00  0.00    +0.139 C 
BRANCH   7   9
ATOM      9  C   UNL     1      -7.344  -1.739  -3.791  0.00  0.00    +0.036 A 
ATOM     10  C   UNL     1      -6.589  -1.286  -4.869  0.00  0.00    +0.024 A 
ATOM     11  C   UNL     1      -7.140  -1.252  -6.130  0.00  0.00    +0.015 A 
ATOM     12  C   UNL     1      -8.458  -1.673  -6.327  0.00  0.00    +0.037 A 
ATOM     13  C   UNL     1      -9.213  -2.128  -5.242  0.00  0.00    +0.015 A 
ATOM     14  C   UNL     1      -8.655  -2.164  -3.985  0.00  0.00    +0.024 A 
BRANCH  12  15
ATOM     15  C   UNL     1      -9.052  -1.638  -7.678  0.00  0.00    +0.242 C 
ATOM     16  O   UNL     1      -8.394  -1.242  -8.621  0.00  0.00    -0.270 OA
ATOM     17  N   UNL     1     -10.323  -2.044  -7.867  0.00  0.00    -0.325 N 
ATOM     18  H   UNL     1     -10.847  -2.360  -7.114  0.00  0.00    +0.145 HD
ATOM     19  H   UNL     1     -10.713  -2.021  -8.754  0.00  0.00    +0.145 HD
ENDBRANCH  12  15
ENDBRANCH   7   9
ENDBRANCH   2   5
BRANCH   1  20
ATOM     20  C   UNL     1      -2.935  -1.452   0.497  0.00  0.00    +0.097 C 
BRANCH  20  21
ATOM     21  C   UNL     1      -1.513  -0.888   0.465  0.00  0.00    +0.016 C 
BRANCH  21  22
ATOM     22  C   UNL     1      -0.896  -1.005   1.835  0.00  0.00    +0.093 A 
ATOM     23  C   UNL     1       0.103  -1.838   2.179  0.00  0.00    +0.043 A 
ATOM     24  C   UNL     1       0.366  -1.618   3.550  0.00  0.00    +0.041 A 
ATOM     25  C   UNL     1      -0.487  -0.663   3.962  0.00  0.00    +0.195 A 
ATOM     26  O   UNL     1      -1.245  -0.292   2.918  0.00  0.00    -0.469 OA
ENDBRANCH  21  22
BRANCH  21  27
ATOM     27  N   UNL     1      -1.556   0.525   0.067  0.00  0.00    +0.387 N 
ATOM     28  H   UNL     1      -1.920   0.599  -0.872  0.00  0.00    -0.081 HD
BRANCH  27  30
ATOM     29  C   UNL     1      -2.600   2.701   0.482  0.00  0.00    -0.017 C 
ATOM     30  C   UNL     1      -2.426   1.268   0.989  0.00  0.00    -0.081 C 
ENDBRANCH  27  30
BRANCH  27  31
ATOM     31  C   UNL     1      -0.200   1.088   0.112  0.00  0.00    -0.081 C 
ATOM     32  C   UNL     1       0.679   0.384  -0.923  0.00  0.00    -0.017 C 
ENDBRANCH  27  31
ENDBRANCH  21  27
ENDBRANCH  20  21
ENDBRANCH   1  20
TORSDOF 9
