REMARK  Name = ZINC40002650
REMARK  15 active torsions:
REMARK  status: ('A' for Active; 'I' for Inactive)
REMARK    1  A    between atoms: C_1  and  C_2
REMARK    2  A    between atoms: C_5  and  C_7
REMARK    3  A    between atoms: C_7  and  C_8
REMARK    4  A    between atoms: N_10  and  N_11
REMARK    5  A    between atoms: C_12  and  C_14
REMARK    6  A    between atoms: C_14  and  N_15
REMARK    7  A    between atoms: N_15  and  C_16
REMARK    8  A    between atoms: C_16  and  C_18
REMARK    9  A    between atoms: C_16  and  C_28
REMARK   10  A    between atoms: C_21  and  C_24
REMARK   11  A    between atoms: C_24  and  C_25
REMARK   12  A    between atoms: C_25  and  C_26
REMARK   13  A    between atoms: C_25  and  C_27
REMARK   14  A    between atoms: C_28  and  C_29
REMARK   15  A    between atoms: C_28  and  C_30
REMARK                            x       y       z     vdW  Elec       q    Type
REMARK                         _______ _______ _______ _____ _____    ______ ____
ROOT
ATOM      1  N   UNL     1      -4.775  -6.348   6.919  0.00  0.00    +0.389 N 
ATOM      2  H   UNL     1      -4.725  -5.939   5.998  0.00  0.00    -0.084 HD
ATOM      3  H   UNL     1      -4.107  -7.100   6.990  0.00  0.00    -0.084 HD
ENDROOT
BRANCH   1   4
ATOM      4  C   UNL     1      -4.468  -5.323   7.926  0.00  0.00    +0.017 C 
BRANCH   4   6
ATOM      5  N   UNL     1      -2.574  -3.842   8.507  0.00  0.00    -0.236 N 
ATOM      6  C   UNL     1      -3.074  -4.797   7.698  0.00  0.00    +0.212 C 
ATOM      7  O   UNL     1      -2.403  -5.232   6.786  0.00  0.00    -0.276 OA
ATOM      8  H   UNL     1      -3.110  -3.494   9.237  0.00  0.00    +0.173 HD
BRANCH   5  11
ATOM      9  C   UNL     1      -0.778  -2.398   9.104  0.00  0.00    +0.235 C 
ATOM     10  O   UNL     1      -1.449  -1.963  10.016  0.00  0.00    -0.274 OA
ATOM     11  N   UNL     1      -1.278  -3.352   8.295  0.00  0.00    -0.234 N 
ATOM     12  H   UNL     1      -0.742  -3.700   7.566  0.00  0.00    +0.173 HD
BRANCH   9  13
ATOM     13  C   UNL     1       0.616  -1.871   8.876  0.00  0.00    +0.160 C 
BRANCH  13  18
ATOM     14  C   UNL     1       2.321  -0.127  13.246  0.00  0.00    +0.066 C 
ATOM     15  C   UNL     1       1.692   0.049  11.888  0.00  0.00    +0.046 A 
ATOM     16  C   UNL     1       1.320   1.273  11.431  0.00  0.00    +0.070 A 
ATOM     17  S   UNL     1       0.666   0.840   9.827  0.00  0.00    -0.080 S 
ATOM     18  C   UNL     1       0.931  -0.820   9.909  0.00  0.00    +0.087 A 
ATOM     19  N   UNL     1       1.482  -0.976  11.087  0.00  0.00    -0.249 NA
ENDBRANCH  13  18
ENDBRANCH   9  13
ENDBRANCH   5  11
ENDBRANCH   4   6
ENDBRANCH   1   4
BRANCH   1  20
ATOM     20  C   UNL     1      -6.128  -6.871   7.150  0.00  0.00    -0.038 C 
BRANCH  20  21
ATOM     21  C   UNL     1      -6.166  -7.601   8.468  0.00  0.00    -0.061 A 
ATOM     22  C   UNL     1      -5.102  -8.396   8.850  0.00  0.00    +0.002 A 
ATOM     23  C   UNL     1      -5.137  -9.065  10.059  0.00  0.00    +0.004 A 
ATOM     24  C   UNL     1      -6.237  -8.939  10.886  0.00  0.00    -0.047 A 
ATOM     25  C   UNL     1      -7.301  -8.143  10.506  0.00  0.00    +0.004 A 
ATOM     26  C   UNL     1      -7.264  -7.470   9.299  0.00  0.00    +0.002 A 
BRANCH  24  27
ATOM     27  C   UNL     1      -6.276  -9.669  12.204  0.00  0.00    +0.038 C 
BRANCH  27  28
ATOM     28  C   UNL     1      -5.672  -8.784  13.296  0.00  0.00    -0.013 C 
ATOM     29  C   UNL     1      -5.824  -9.473  14.654  0.00  0.00    +0.007 C 
ATOM     30  C   UNL     1      -4.188  -8.554  13.004  0.00  0.00    +0.007 C 
ENDBRANCH  27  28
ENDBRANCH  24  27
ENDBRANCH  20  21
BRANCH  20  31
ATOM     31  C   UNL     1      -6.501  -7.835   6.022  0.00  0.00    -0.027 C 
ATOM     32  C   UNL     1      -7.890  -8.418   6.289  0.00  0.00    +0.006 C 
ATOM     33  C   UNL     1      -6.511  -7.083   4.690  0.00  0.00    +0.006 C 
ENDBRANCH  20  31
ENDBRANCH   1  20
TORSDOF 10
