REMARK  Name = ZINC06744548
REMARK  11 active torsions:
REMARK  status: ('A' for Active; 'I' for Inactive)
REMARK    1  A    between atoms: C_1  and  C_2
REMARK    2  A    between atoms: C_4  and  O_10
REMARK    3  A    between atoms: C_6  and  C_9
REMARK    4  A    between atoms: O_10  and  C_11
REMARK    5  A    between atoms: C_11  and  C_12
REMARK    6  A    between atoms: N_14  and  C_15
REMARK    7  A    between atoms: C_15  and  C_16
REMARK    8  A    between atoms: C_16  and  C_18
REMARK    9  A    between atoms: C_16  and  N_26
REMARK   10  A    between atoms: C_21  and  O_24
REMARK   11  A    between atoms: O_24  and  C_25
REMARK                            x       y       z     vdW  Elec       q    Type
REMARK                         _______ _______ _______ _____ _____    ______ ____
ROOT
ATOM      1  C   UNL     1       0.020  -6.629  -5.192  0.00  0.00    +0.093 C 
ENDROOT
BRANCH   1   4
ATOM      2  C   UNL     1      -1.376  -4.902  -6.195  0.00  0.00    +0.251 C 
ATOM      3  O   UNL     1      -0.675  -4.068  -5.662  0.00  0.00    -0.272 OA
ATOM      4  N   UNL     1      -1.113  -6.213  -6.022  0.00  0.00    -0.314 N 
ATOM      5  H   UNL     1      -1.673  -6.880  -6.448  0.00  0.00    +0.149 HD
BRANCH   2   6
ATOM      6  C   UNL     1      -2.541  -4.474  -7.049  0.00  0.00    +0.324 C 
BRANCH   6   7
ATOM      7  O   UNL     1      -2.612  -3.047  -7.077  0.00  0.00    -0.483 OA
BRANCH   7  11
ATOM      8  C   UNL     1      -4.902   0.945  -8.702  0.00  0.00    +0.045 C 
ATOM      9  C   UNL     1      -4.762  -0.553  -8.625  0.00  0.00    -0.028 A 
ATOM     10  C   UNL     1      -3.743  -1.114  -7.880  0.00  0.00    +0.050 A 
ATOM     11  C   UNL     1      -3.615  -2.494  -7.809  0.00  0.00    +0.122 A 
ATOM     12  C   UNL     1      -4.511  -3.307  -8.486  0.00  0.00    +0.050 A 
ATOM     13  C   UNL     1      -5.529  -2.743  -9.230  0.00  0.00    -0.028 A 
ATOM     14  C   UNL     1      -5.659  -1.367  -9.296  0.00  0.00    +0.047 A 
ATOM     15 CL   UNL     1      -6.943  -0.660 -10.226  0.00  0.00    -0.083 Cl
ATOM     16  C   UNL     1      -6.504  -3.626  -9.966  0.00  0.00    +0.045 C 
ENDBRANCH   7  11
ENDBRANCH   6   7
ENDBRANCH   2   6
ENDBRANCH   1   4
BRANCH   1  17
ATOM     17  C   UNL     1       0.028  -8.154  -5.068  0.00  0.00    -0.020 C 
BRANCH  17  18
ATOM     18  N   UNL     1       1.106  -8.566  -4.158  0.00  0.00    +0.385 N 
ATOM     19  C   UNL     1       1.149 -10.031  -4.084  0.00  0.00    -0.078 C 
ATOM     20  C   UNL     1       2.321 -10.467  -3.202  0.00  0.00    -0.019 C 
ATOM     21  C   UNL     1       2.137  -9.888  -1.796  0.00  0.00    -0.004 C 
ATOM     22  C   UNL     1       2.019  -8.364  -1.893  0.00  0.00    -0.019 C 
ATOM     23  C   UNL     1       0.859  -8.007  -2.824  0.00  0.00    -0.078 C 
ATOM     24  H   UNL     1       1.988  -8.223  -4.507  0.00  0.00    -0.081 HD
ENDBRANCH  17  18
BRANCH  17  25
ATOM     25  C   UNL     1       0.255  -8.767  -6.425  0.00  0.00    -0.059 A 
ATOM     26  C   UNL     1       1.535  -8.842  -6.944  0.00  0.00    +0.005 A 
ATOM     27  C   UNL     1       1.745  -9.403  -8.189  0.00  0.00    +0.046 A 
ATOM     28  C   UNL     1       0.671  -9.893  -8.918  0.00  0.00    +0.120 A 
ATOM     29  C   UNL     1      -0.611  -9.817  -8.395  0.00  0.00    +0.046 A 
ATOM     30  C   UNL     1      -0.816  -9.260  -7.148  0.00  0.00    +0.005 A 
BRANCH  28  31
ATOM     31  O   UNL     1       0.876 -10.445 -10.143  0.00  0.00    -0.495 OA
ATOM     32  C   UNL     1      -0.276 -10.928 -10.837  0.00  0.00    +0.277 C 
ENDBRANCH  28  31
ENDBRANCH  17  25
ENDBRANCH   1  17
TORSDOF 8
