REMARK  Name = ZINC14655639
REMARK  14 active torsions:
REMARK  status: ('A' for Active; 'I' for Inactive)
REMARK    1  A    between atoms: C_1  and  C_2
REMARK    2  A    between atoms: C_2  and  C_3
REMARK    3  A    between atoms: C_3  and  C_5
REMARK    4  A    between atoms: C_3  and  C_6
REMARK    5  A    between atoms: C_11  and  O_12
REMARK    6  A    between atoms: O_12  and  C_13
REMARK    7  A    between atoms: C_13  and  C_14
REMARK    8  A    between atoms: N_16  and  N_17
REMARK    9  A    between atoms: N_17  and  C_18
REMARK   10  A    between atoms: C_18  and  N_20
REMARK   11  A    between atoms: C_21  and  C_23
REMARK   12  A    between atoms: C_28  and  O_29
REMARK   13  A    between atoms: O_29  and  C_30
REMARK   14  A    between atoms: C_30  and  C_31
REMARK                            x       y       z     vdW  Elec       q    Type
REMARK                         _______ _______ _______ _____ _____    ______ ____
ROOT
ATOM      1  N   UNL     1       3.512   7.343   0.007  0.00  0.00    -0.245 N 
ATOM      2  H   UNL     1       4.342   7.846   0.003  0.00  0.00    +0.172 HD
ENDROOT
BRANCH   1   5
ATOM      3  C   UNL     1       2.256   9.365   0.029  0.00  0.00    +0.267 C 
ATOM      4  O   UNL     1       3.293   9.994   0.023  0.00  0.00    -0.271 OA
ATOM      5  N   UNL     1       2.284   8.018   0.022  0.00  0.00    -0.232 N 
ATOM      6  H   UNL     1       1.455   7.515   0.027  0.00  0.00    +0.173 HD
BRANCH   3   7
ATOM      7  C   UNL     1       0.935  10.091   0.044  0.00  0.00    +0.326 C 
BRANCH   7   8
ATOM      8  O   UNL     1       1.167  11.501   0.050  0.00  0.00    -0.482 OA
BRANCH   8  14
ATOM      9  C   UNL     1       0.224  13.685   0.075  0.00  0.00    -0.003 A 
ATOM     10  C   UNL     1      -0.891  14.501   0.084  0.00  0.00    +0.007 A 
ATOM     11  C   UNL     1      -2.156  13.945   0.092  0.00  0.00    +0.001 A 
ATOM     12  C   UNL     1      -2.310  12.571   0.086  0.00  0.00    +0.004 A 
ATOM     13  C   UNL     1      -1.199  11.750   0.072  0.00  0.00    +0.046 A 
ATOM     14  C   UNL     1       0.072  12.306   0.063  0.00  0.00    +0.125 A 
BRANCH   9  15
ATOM     15  C   UNL     1       1.603  14.292   0.072  0.00  0.00    +0.019 C 
ATOM     16  C   UNL     1       1.787  15.147   1.327  0.00  0.00    +0.012 C 
BRANCH  15  18
ATOM     17  C   UNL     1       3.210  15.685  -1.240  0.00  0.00    +0.004 C 
ATOM     18  C   UNL     1       1.772  15.169  -1.171  0.00  0.00    +0.004 C 
ENDBRANCH  15  18
ENDBRANCH   9  15
ENDBRANCH   8  14
ENDBRANCH   7   8
ENDBRANCH   3   7
ENDBRANCH   1   5
BRANCH   1  19
ATOM     19  C   UNL     1       3.541   5.996   0.001  0.00  0.00    +0.153 C 
ATOM     20  S   UNL     1       5.041   5.171  -0.017  0.00  0.00    -0.017 S 
BRANCH  19  21
ATOM     21  N   UNL     1       2.388   5.298   0.007  0.00  0.00    -0.263 N 
ATOM     22  C   UNL     1       2.416   3.950   0.000  0.00  0.00    +0.253 C 
ATOM     23  O   UNL     1       3.481   3.365  -0.012  0.00  0.00    -0.270 OA
ATOM     24  H   UNL     1       1.538   5.765   0.017  0.00  0.00    +0.157 HD
BRANCH  22  25
ATOM     25  C   UNL     1       1.155   3.186   0.008  0.00  0.00    +0.080 A 
ATOM     26  C   UNL     1      -0.072   3.855   0.022  0.00  0.00    +0.032 A 
ATOM     27  C   UNL     1      -1.247   3.135   0.030  0.00  0.00    +0.019 A 
ATOM     28  C   UNL     1      -1.218   1.749   0.017  0.00  0.00    +0.019 A 
ATOM     29  C   UNL     1      -0.013   1.076   0.008  0.00  0.00    +0.047 A 
ATOM     30  C   UNL     1       1.180   1.785   0.000  0.00  0.00    +0.133 A 
ATOM     31 BR   UNL     1      -2.907   4.041   0.050  0.00  0.00    -0.050 Br
BRANCH  30  32
ATOM     32  O   UNL     1       2.365   1.124  -0.015  0.00  0.00    -0.491 OA
BRANCH  32  33
ATOM     33  C   UNL     1       2.312  -0.304  -0.022  0.00  0.00    +0.226 C 
ATOM     34  C   UNL     1       3.734  -0.867  -0.038  0.00  0.00    +0.048 C 
ENDBRANCH  32  33
ENDBRANCH  30  32
ENDBRANCH  22  25
ENDBRANCH  19  21
ENDBRANCH   1  19
TORSDOF 11
