REMARK  Name = ZINC39590294
REMARK  3 active torsions:
REMARK  status: ('A' for Active; 'I' for Inactive)
REMARK    1  A    between atoms: C_13  and  C_15
REMARK    2  A    between atoms: C_18  and  N_22
REMARK    3  A    between atoms: C_23  and  C_25
REMARK                            x       y       z     vdW  Elec       q    Type
REMARK                         _______ _______ _______ _____ _____    ______ ____
ROOT
ATOM      1  C   UNL     1       0.155  -6.570   1.144  0.00  0.00    +0.086 C 
ATOM      2  C   UNL     1       0.150  -7.915   1.244  0.00  0.00    +0.021 C 
ATOM      3  N   UNL     1       1.296  -8.628   1.242  0.00  0.00    -0.320 N 
ATOM      4  C   UNL     1       1.252  -9.965   1.874  0.00  0.00    +0.219 C 
ATOM      5  S   UNL     1      -0.512 -10.416   1.578  0.00  0.00    -0.114 S 
ATOM      6  C   UNL     1      -1.147  -8.699   1.370  0.00  0.00    +0.123 C 
ATOM      7  H   UNL     1       2.109  -8.280   0.844  0.00  0.00    +0.148 HD
ENDROOT
BRANCH   1  20
ATOM      8  C   UNL     1       0.271   1.405   2.340  0.00  0.00    +0.005 A 
ATOM      9  C   UNL     1       1.498   2.054   2.377  0.00  0.00    +0.018 A 
ATOM     10  C   UNL     1       2.658   1.307   2.411  0.00  0.00    +0.084 A 
ATOM     11  N   UNL     1       2.613  -0.012   2.409  0.00  0.00    -0.350 N 
ATOM     12  C   UNL     1       1.464  -0.668   2.374  0.00  0.00    +0.099 A 
ATOM     13  C   UNL     1       0.256   0.022   2.338  0.00  0.00    +0.042 A 
ATOM     14  N   UNL     1       1.463  -2.058   2.373  0.00  0.00    -0.314 N 
ATOM     15  C   UNL     1       0.201  -2.805   2.459  0.00  0.00    +0.125 C 
ATOM     16  C   UNL     1       0.118  -3.767   1.267  0.00  0.00    +0.127 C 
ATOM     17  N   UNL     1       1.380  -4.515   1.179  0.00  0.00    -0.295 N 
ATOM     18  C   UNL     1       2.643  -3.768   1.093  0.00  0.00    +0.127 C 
ATOM     19  C   UNL     1       2.725  -2.806   2.279  0.00  0.00    +0.125 C 
ATOM     20  C   UNL     1       1.380  -5.863   1.177  0.00  0.00    +0.241 C 
ATOM     21  O   UNL     1       2.434  -6.472   1.205  0.00  0.00    -0.271 OA
ATOM     22  H   UNL     1       3.443  -0.513   2.433  0.00  0.00    +0.166 HD
ENDBRANCH   1  20
BRANCH   4  23
ATOM     23  N   UNL     1       1.546  -9.884   3.307  0.00  0.00    -0.284 N 
ATOM     24  C   UNL     1       1.852 -11.001   3.997  0.00  0.00    +0.251 C 
ATOM     25  O   UNL     1       1.979 -12.060   3.413  0.00  0.00    -0.270 OA
ATOM     26  H   UNL     1       1.521  -9.026   3.760  0.00  0.00    +0.152 HD
BRANCH  24  27
ATOM     27  C   UNL     1       2.032 -10.939   5.455  0.00  0.00    +0.101 A 
ATOM     28  C   UNL     1       2.477 -12.053   6.163  0.00  0.00    +0.020 A 
ATOM     29  C   UNL     1       2.635 -11.957   7.545  0.00  0.00    +0.018 A 
ATOM     30  C   UNL     1       2.358 -10.791   8.183  0.00  0.00    +0.086 A 
ATOM     31  N   UNL     1       1.925  -9.703   7.502  0.00  0.00    -0.328 N 
ATOM     32  C   UNL     1       1.761  -9.741   6.166  0.00  0.00    +0.261 A 
ATOM     33  O   UNL     1       1.375  -8.750   5.569  0.00  0.00    -0.267 OA
ATOM     34  H   UNL     1       1.734  -8.883   7.983  0.00  0.00    +0.168 HD
ENDBRANCH  24  27
ENDBRANCH   4  23
TORSDOF 3
