REMARK  Name = ZINC66939959
REMARK  8 active torsions:
REMARK  status: ('A' for Active; 'I' for Inactive)
REMARK    1  A    between atoms: C_1  and  N_2
REMARK    2  A    between atoms: N_2  and  C_3
REMARK    3  A    between atoms: N_2  and  C_9
REMARK    4  A    between atoms: C_12  and  C_16
REMARK    5  A    between atoms: C_16  and  N_17
REMARK    6  A    between atoms: N_17  and  C_18
REMARK    7  A    between atoms: C_18  and  C_20
REMARK    8  A    between atoms: C_18  and  C_27
REMARK                            x       y       z     vdW  Elec       q    Type
REMARK                         _______ _______ _______ _____ _____    ______ ____
ROOT
ATOM      1  C   UNL     1      -0.004  -2.815  -4.927  0.00  0.00    -0.045 C 
ENDROOT
BRANCH   1   5
ATOM      2  C   UNL     1       0.000  -0.697  -1.213  0.00  0.00    +0.069 A 
ATOM      3  C   UNL     1       1.200  -1.030  -1.826  0.00  0.00    +0.026 A 
ATOM      4  C   UNL     1       1.195  -1.715  -3.026  0.00  0.00    +0.004 A 
ATOM      5  C   UNL     1      -0.004  -2.069  -3.618  0.00  0.00    -0.062 A 
ATOM      6  C   UNL     1      -1.202  -1.739  -3.011  0.00  0.00    +0.042 A 
ATOM      7  C   UNL     1      -1.204  -1.058  -1.807  0.00  0.00    +0.145 A 
ATOM      8  F   UNL     1      -2.375  -0.741  -1.212  0.00  0.00    -0.204 F 
BRANCH   2  10
ATOM      9  C   UNL     1      -0.018   1.461   0.010  0.00  0.00    +0.135 C 
ATOM     10  N   UNL     1       0.002  -0.004   0.002  0.00  0.00    -0.301 N 
BRANCH  10  11
ATOM     11  C   UNL     1       0.023  -0.709   1.208  0.00  0.00    +0.034 A 
ATOM     12  C   UNL     1       0.048  -2.098   1.202  0.00  0.00    +0.023 A 
ATOM     13  C   UNL     1       0.068  -2.792   2.396  0.00  0.00    +0.002 A 
ATOM     14  C   UNL     1       0.065  -2.105   3.596  0.00  0.00    +0.000 A 
ATOM     15  C   UNL     1       0.040  -0.723   3.606  0.00  0.00    +0.002 A 
ATOM     16  C   UNL     1       0.025  -0.022   2.416  0.00  0.00    +0.023 A 
ENDBRANCH  10  11
ENDBRANCH   2  10
ENDBRANCH   1   5
BRANCH   1  17
ATOM     17  N   UNL     1       0.012  -4.261  -4.666  0.00  0.00    +0.392 N 
ATOM     18  H   UNL     1       0.842  -4.499  -4.144  0.00  0.00    -0.084 HD
ATOM     19  H   UNL     1      -0.805  -4.516  -4.133  0.00  0.00    -0.084 HD
BRANCH  17  20
ATOM     20  C   UNL     1       0.012  -4.988  -5.942  0.00  0.00    +0.047 C 
BRANCH  20  21
ATOM     21  C   UNL     1       0.152  -6.465  -5.678  0.00  0.00    -0.053 A 
ATOM     22  C   UNL     1      -0.523  -7.046  -4.621  0.00  0.00    +0.005 A 
ATOM     23  C   UNL     1      -0.395  -8.400  -4.378  0.00  0.00    +0.038 A 
ATOM     24  C   UNL     1       0.410  -9.176  -5.195  0.00  0.00    +0.123 A 
ATOM     25  C   UNL     1       1.086  -8.594  -6.254  0.00  0.00    +0.038 A 
ATOM     26  C   UNL     1       0.952  -7.240  -6.498  0.00  0.00    +0.005 A 
ATOM     27  F   UNL     1       0.536 -10.500  -4.958  0.00  0.00    -0.205 F 
ENDBRANCH  20  21
BRANCH  20  28
ATOM     28  C   UNL     1      -1.283  -4.729  -6.668  0.00  0.00    +0.201 C 
ATOM     29  O   UNL     1      -2.123  -4.009  -6.171  0.00  0.00    -0.277 OA
ATOM     30  N   UNL     1      -1.508  -5.297  -7.869  0.00  0.00    -0.330 N 
ATOM     31  H   UNL     1      -0.837  -5.873  -8.267  0.00  0.00    +0.145 HD
ATOM     32  H   UNL     1      -2.342  -5.130  -8.336  0.00  0.00    +0.145 HD
ENDBRANCH  20  28
ENDBRANCH  17  20
ENDBRANCH   1  17
TORSDOF 7
