REMARK  Name = ZINC26991939
REMARK  11 active torsions:
REMARK  status: ('A' for Active; 'I' for Inactive)
REMARK    1  A    between atoms: C_1  and  C_2
REMARK    2  A    between atoms: C_2  and  C_41
REMARK    3  A    between atoms: C_6  and  C_21
REMARK    4  A    between atoms: C_17  and  C_19
REMARK    5  A    between atoms: C_17  and  C_20
REMARK    6  A    between atoms: C_21  and  O_22
REMARK    7  A    between atoms: O_22  and  C_23
REMARK    8  A    between atoms: C_23  and  C_24
REMARK    9  A    between atoms: C_24  and  C_26
REMARK   10  A    between atoms: C_24  and  O_40
REMARK   11  A    between atoms: C_26  and  N_27
REMARK                            x       y       z     vdW  Elec       q    Type
REMARK                         _______ _______ _______ _____ _____    ______ ____
ROOT
ATOM      1  O   UNL     1       1.910   0.266  -4.647  0.00  0.00    -0.375 OA
ENDROOT
BRANCH   1   2
ATOM      2  C   UNL     1       2.335   0.053  -3.300  0.00  0.00    +0.194 C 
BRANCH   2   7
ATOM      3  C   UNL     1      -0.126  -0.589   1.439  0.00  0.00    +0.074 C 
ATOM      4  C   UNL     1      -0.004  -0.062   0.008  0.00  0.00    +0.166 C 
ATOM      5  O   UNL     1       1.249  -0.480  -0.554  0.00  0.00    -0.341 OA
ATOM      6  C   UNL     1       1.973   0.722  -0.918  0.00  0.00    +0.184 C 
ATOM      7  C   UNL     1       1.612   1.034  -2.375  0.00  0.00    +0.178 C 
ATOM      8  O   UNL     1       2.005   2.364  -2.695  0.00  0.00    -0.340 OA
ATOM      9  C   UNL     1       1.297   3.378  -1.976  0.00  0.00    +0.285 C 
ATOM     10  C   UNL     1       1.511   3.176  -0.464  0.00  0.00    +0.209 C 
ATOM     11  C   UNL     1       1.332   1.778   0.003  0.00  0.00    +0.187 C 
ATOM     12  O   UNL     1      -0.051   1.378   0.017  0.00  0.00    -0.341 OA
ATOM     13  O   UNL     1       2.865   3.666  -0.260  0.00  0.00    -0.338 OA
ATOM     14  C   UNL     1       3.160   4.552  -1.352  0.00  0.00    +0.168 C 
ATOM     15  O   UNL     1       2.008   4.626  -2.210  0.00  0.00    -0.318 OA
ATOM     16  C   UNL     1       4.356   4.016  -2.141  0.00  0.00    +0.074 C 
ATOM     17  C   UNL     1       3.486   5.944  -0.807  0.00  0.00    +0.074 C 
ATOM     18  C   UNL     1      -1.155  -0.609  -0.838  0.00  0.00    +0.074 C 
ENDBRANCH   2   7
ENDBRANCH   1   2
BRANCH   1  19
ATOM     19  C   UNL     1       2.530  -0.603  -5.597  0.00  0.00    +0.192 C 
BRANCH  19  20
ATOM     20  C   UNL     1       2.003  -0.287  -6.998  0.00  0.00    +0.154 C 
BRANCH  20  21
ATOM     21  O   UNL     1       0.608  -0.590  -7.062  0.00  0.00    -0.388 OA
ATOM     22  H   UNL     1       0.051  -0.426  -7.997  0.00  0.00    +0.210 HD
ENDBRANCH  20  21
BRANCH  20  23
ATOM     23  C   UNL     1       2.755  -1.131  -8.029  0.00  0.00    +0.118 C 
BRANCH  23  24
ATOM     24  N   UNL     1       2.258  -0.818  -9.375  0.00  0.00    -0.297 NA
ATOM     25  C   UNL     1       2.591  -1.891 -10.322  0.00  0.00    +0.103 C 
ATOM     26  C   UNL     1       1.988  -1.565 -11.691  0.00  0.00    +0.122 C 
ATOM     27  N   UNL     1       2.510  -0.274 -12.158  0.00  0.00    -0.313 N 
ATOM     28  C   UNL     1       2.177   0.799 -11.211  0.00  0.00    +0.122 C 
ATOM     29  C   UNL     1       2.780   0.474  -9.842  0.00  0.00    +0.103 C 
ATOM     30  C   UNL     1       2.040   0.022 -13.432  0.00  0.00    +0.123 A 
ATOM     31  C   UNL     1       2.262  -0.872 -14.474  0.00  0.00    +0.044 A 
ATOM     32  C   UNL     1       1.783  -0.568 -15.736  0.00  0.00    +0.006 A 
ATOM     33  C   UNL     1       1.105   0.629 -15.917  0.00  0.00    +0.040 A 
ATOM     34  C   UNL     1       0.925   1.475 -14.839  0.00  0.00    +0.131 A 
ATOM     35  N   UNL     1       1.389   1.156 -13.644  0.00  0.00    -0.221 NA
ATOM     36 CL   UNL     1       0.079   2.975 -15.057  0.00  0.00    -0.062 Cl
ENDBRANCH  23  24
ENDBRANCH  20  23
ENDBRANCH  19  20
ENDBRANCH   1  19
TORSDOF 7
