REMARK  Name = ZINC55162661
REMARK  6 active torsions:
REMARK  status: ('A' for Active; 'I' for Inactive)
REMARK    1  A    between atoms: C_1  and  C_2
REMARK    2  A    between atoms: C_7  and  C_9
REMARK    3  A    between atoms: C_7  and  C_10
REMARK    4  A    between atoms: C_11  and  C_13
REMARK    5  A    between atoms: C_18  and  C_21
REMARK    6  A    between atoms: C_21  and  N_22
REMARK                            x       y       z     vdW  Elec       q    Type
REMARK                         _______ _______ _______ _____ _____    ______ ____
ROOT
ATOM      1  C   UNL     1      -0.162  -2.301   3.797  0.00  0.00    +0.039 C 
ATOM      2  C   UNL     1      -1.115  -1.905   2.668  0.00  0.00    +0.133 C 
ATOM      3  C   UNL     1      -0.648  -2.544   1.356  0.00  0.00    +0.139 C 
ATOM      4  N   UNL     1      -1.465  -2.001   0.259  0.00  0.00    -0.296 N 
ATOM      5  C   UNL     1      -1.604  -0.540   0.157  0.00  0.00    +0.142 C 
ATOM      6  C   UNL     1      -2.024   0.002   1.528  0.00  0.00    +0.080 C 
ATOM      7  O   UNL     1      -1.121  -0.482   2.524  0.00  0.00    -0.368 OA
ATOM      8  C   UNL     1      -3.442  -0.472   1.852  0.00  0.00    +0.043 C 
ATOM      9  C   UNL     1      -1.989   1.532   1.506  0.00  0.00    +0.043 C 
ATOM     10  C   UNL     1      -2.068  -2.818  -0.627  0.00  0.00    +0.219 C 
ATOM     11  O   UNL     1      -1.878  -4.015  -0.576  0.00  0.00    -0.275 OA
ENDROOT
BRANCH  10  12
ATOM     12  C   UNL     1      -2.980  -2.245  -1.681  0.00  0.00    +0.075 C 
ATOM     13  C   UNL     1      -2.151  -1.462  -2.701  0.00  0.00    +0.013 C 
ATOM     14  C   UNL     1      -1.136  -2.398  -3.360  0.00  0.00    +0.001 C 
ATOM     15  C   UNL     1      -1.875  -3.535  -4.068  0.00  0.00    +0.002 C 
ATOM     16  C   UNL     1      -2.703  -4.318  -3.048  0.00  0.00    -0.028 C 
ATOM     17  C   UNL     1      -3.719  -3.382  -2.390  0.00  0.00    +0.014 C 
BRANCH  16  18
ATOM     18  C   UNL     1      -3.442  -5.456  -3.756  0.00  0.00    -0.083 C 
BRANCH  18  19
ATOM     19  N   UNL     1      -2.467  -6.418  -4.286  0.00  0.00    +0.378 N 
ATOM     20  H   UNL     1      -1.857  -5.953  -4.942  0.00  0.00    -0.090 HD
ATOM     21  H   UNL     1      -1.919  -6.794  -3.526  0.00  0.00    -0.090 HD
ATOM     22  H   UNL     1      -2.954  -7.168  -4.753  0.00  0.00    -0.090 HD
ENDBRANCH  18  19
ENDBRANCH  16  18
ENDBRANCH  10  12
TORSDOF 3
