REMARK  Name = ZINC16026465
REMARK  4 active torsions:
REMARK  status: ('A' for Active; 'I' for Inactive)
REMARK    1  A    between atoms: C_12  and  C_15
REMARK    2  A    between atoms: C_15  and  C_16
REMARK    3  A    between atoms: N_21  and  C_24
REMARK    4  A    between atoms: C_24  and  C_25
REMARK                            x       y       z     vdW  Elec       q    Type
REMARK                         _______ _______ _______ _____ _____    ______ ____
ROOT
ATOM      1  C   UNL     1       1.574  -3.976  -3.069  0.00  0.00    +0.000 A 
ATOM      2  C   UNL     1       1.545  -5.105  -2.271  0.00  0.00    +0.002 A 
ATOM      3  C   UNL     1       1.756  -5.002  -0.912  0.00  0.00    +0.023 A 
ATOM      4  C   UNL     1       1.999  -3.759  -0.333  0.00  0.00    +0.039 A 
ATOM      5  C   UNL     1       2.026  -2.631  -1.146  0.00  0.00    +0.003 A 
ATOM      6  C   UNL     1       1.815  -2.737  -2.502  0.00  0.00    +0.008 A 
ATOM      7  C   UNL     1       2.310  -1.468  -0.234  0.00  0.00    +0.136 C 
ATOM      8  C   UNL     1       1.361  -0.355  -0.331  0.00  0.00    +0.122 C 
ATOM      9  C   UNL     1       2.169   0.799   0.388  0.00  0.00    +0.107 C 
ATOM     10  C   UNL     1       3.487   0.635  -0.381  0.00  0.00    +0.076 C 
ATOM     11  N   UNL     1       3.612  -0.836  -0.618  0.00  0.00    -0.295 NA
ATOM     12  C   UNL     1       1.236   1.913   0.001  0.00  0.00    +0.227 C 
ATOM     13  O   UNL     1       1.534   3.058  -0.265  0.00  0.00    -0.275 OA
ATOM     14  N   UNL     1      -0.017   1.369   0.010  0.00  0.00    -0.239 N 
ATOM     15  C   UNL     1       0.002  -0.004   0.002  0.00  0.00    +0.228 C 
ATOM     16  O   UNL     1      -0.921  -0.757   0.226  0.00  0.00    -0.275 OA
ATOM     17  C   UNL     1       2.432  -2.077   1.139  0.00  0.00    +0.243 C 
ATOM     18  O   UNL     1       2.662  -1.488   2.174  0.00  0.00    -0.273 OA
ATOM     19  N   UNL     1       2.239  -3.402   0.996  0.00  0.00    -0.283 N 
ATOM     20  H   UNL     1       4.420  -1.256  -0.001  0.00  0.00    +0.124 HD
ATOM     21  H   UNL     1       2.253  -4.174   1.779  0.00  0.00    +0.155 HD
ENDROOT
BRANCH  10  22
ATOM     22  C   UNL     1       4.653   1.135   0.474  0.00  0.00    +0.115 C 
BRANCH  22  23
ATOM     23  C   UNL     1       5.938   1.004  -0.302  0.00  0.00    +0.212 C 
ATOM     24  O   UNL     1       5.923   0.556  -1.429  0.00  0.00    -0.276 OA
ATOM     25  N   UNL     1       7.104   1.386   0.256  0.00  0.00    -0.329 N 
ATOM     26  H   UNL     1       8.042   1.291  -0.310  0.00  0.00    +0.145 HD
ATOM     27  H   UNL     1       7.117   1.793   1.278  0.00  0.00    +0.145 HD
ENDBRANCH  22  23
ENDBRANCH  10  22
BRANCH  14  28
ATOM     28  C   UNL     1      -1.247   2.163   0.020  0.00  0.00    +0.148 C 
BRANCH  28  29
ATOM     29  C   UNL     1      -1.668   2.432   1.466  0.00  0.00    +0.136 C 
ATOM     30  C   UNL     1      -3.027   3.165   1.488  0.00  0.00    +0.035 C 
ATOM     31  C   UNL     1      -2.832   4.184   2.646  0.00  0.00    +0.031 C 
ATOM     32  C   UNL     1      -1.326   4.517   2.495  0.00  0.00    +0.160 C 
ATOM     33  O   UNL     1      -0.706   3.281   2.103  0.00  0.00    -0.375 OA
ENDBRANCH  28  29
ENDBRANCH  14  28
TORSDOF 4
