REMARK  Name = ZINC04788297
REMARK  11 active torsions:
REMARK  status: ('A' for Active; 'I' for Inactive)
REMARK    1  A    between atoms: C_1  and  C_2
REMARK    2  A    between atoms: C_5  and  N_8
REMARK    3  A    between atoms: C_13  and  C_15
REMARK    4  A    between atoms: C_16  and  C_18
REMARK    5  A    between atoms: C_18  and  C_19
REMARK    6  A    between atoms: C_19  and  C_20
REMARK    7  A    between atoms: N_22  and  C_23
REMARK    8  A    between atoms: C_29  and  C_43
REMARK    9  A    between atoms: C_31  and  N_33
REMARK   10  A    between atoms: C_35  and  C_42
REMARK   11  A    between atoms: C_38  and  C_41
REMARK                            x       y       z     vdW  Elec       q    Type
REMARK                         _______ _______ _______ _____ _____    ______ ____
ROOT
ATOM      1  C   UNL     1      -1.213 -10.998  -2.271  0.00  0.00    +0.218 C 
ATOM      2  O   UNL     1      -1.306 -10.386  -3.314  0.00  0.00    -0.275 OA
ATOM      3  N   UNL     1      -1.214 -12.346  -2.279  0.00  0.00    -0.285 N 
ATOM      4  H   UNL     1      -1.221 -12.836  -1.442  0.00  0.00    +0.155 HD
ENDROOT
BRANCH   3   5
ATOM      5  C   UNL     1      -1.206 -13.039  -3.495  0.00  0.00    +0.034 A 
ATOM      6  C   UNL     1      -0.502 -12.518  -4.586  0.00  0.00    +0.025 A 
ATOM      7  C   UNL     1      -0.477 -13.170  -5.779  0.00  0.00    +0.028 A 
ATOM      8  C   UNL     1      -1.165 -14.386  -5.930  0.00  0.00    +0.048 A 
ATOM      9  C   UNL     1      -1.881 -14.919  -4.830  0.00  0.00    +0.003 A 
ATOM     10  C   UNL     1      -1.888 -14.231  -3.607  0.00  0.00    +0.033 A 
ATOM     11  C   UNL     1      -2.570 -16.139  -4.985  0.00  0.00    -0.038 A 
ATOM     12  C   UNL     1      -2.520 -16.759  -6.197  0.00  0.00    +0.045 A 
ATOM     13  C   UNL     1      -1.795 -16.181  -7.248  0.00  0.00    +0.099 A 
ATOM     14  N   UNL     1      -1.152 -15.041  -7.097  0.00  0.00    -0.343 N 
ATOM     15  C   UNL     1      -3.343 -16.741  -3.840  0.00  0.00    +0.044 C 
ATOM     16  H   UNL     1      -0.660 -14.669  -7.846  0.00  0.00    +0.167 HD
BRANCH  13  17
ATOM     17  N   UNL     1      -1.752 -16.824  -8.477  0.00  0.00    -0.316 N 
ATOM     18  C   UNL     1      -2.358 -18.152  -8.648  0.00  0.00    +0.109 C 
ATOM     19  C   UNL     1      -3.333 -18.101  -9.828  0.00  0.00    +0.004 C 
ATOM     20  C   UNL     1      -2.601 -17.580 -11.067  0.00  0.00    +0.009 C 
ATOM     21  C   UNL     1      -2.090 -16.162 -10.801  0.00  0.00    +0.004 C 
ATOM     22  C   UNL     1      -1.106 -16.188  -9.633  0.00  0.00    +0.109 C 
ATOM     23  C   UNL     1      -1.388 -15.629 -12.052  0.00  0.00    +0.009 C 
ATOM     24  C   UNL     1      -3.872 -19.506 -10.106  0.00  0.00    +0.009 C 
ENDBRANCH  13  17
ENDBRANCH   3   5
BRANCH   1  25
ATOM     25  C   UNL     1      -1.095 -10.252  -0.967  0.00  0.00    +0.105 C 
BRANCH  25  26
ATOM     26  C   UNL     1      -1.118  -8.747  -1.237  0.00  0.00    +0.105 C 
BRANCH  26  34
ATOM     27  N   UNL     1       0.192  -4.195  -0.017  0.00  0.00    -0.324 N 
ATOM     28  C   UNL     1       0.079  -4.935  -1.281  0.00  0.00    +0.124 C 
ATOM     29  C   UNL     1      -1.111  -5.898  -1.180  0.00  0.00    +0.126 C 
ATOM     30  N   UNL     1      -0.999  -6.653   0.075  0.00  0.00    -0.298 N 
ATOM     31  C   UNL     1      -0.885  -5.913   1.340  0.00  0.00    +0.130 C 
ATOM     32  C   UNL     1       0.310  -4.950   1.238  0.00  0.00    +0.088 C 
ATOM     33  C   UNL     1       1.617  -5.746   1.237  0.00  0.00    +0.029 C 
ATOM     34  C   UNL     1      -1.000  -8.001   0.068  0.00  0.00    +0.216 C 
ATOM     35  O   UNL     1      -0.907  -8.613   1.110  0.00  0.00    -0.276 OA
BRANCH  27  40
ATOM     36  C   UNL     1       0.201   1.476   0.016  0.00  0.00    +0.044 C 
ATOM     37  C   UNL     1       0.198  -0.031   0.007  0.00  0.00    -0.050 A 
ATOM     38  C   UNL     1       0.193  -0.728   1.202  0.00  0.00    +0.005 A 
ATOM     39  C   UNL     1       0.191  -2.109   1.197  0.00  0.00    +0.023 A 
ATOM     40  C   UNL     1       0.194  -2.798  -0.009  0.00  0.00    +0.030 A 
ATOM     41  C   UNL     1       0.200  -2.095  -1.207  0.00  0.00    +0.023 A 
ATOM     42  C   UNL     1       0.196  -0.714  -1.195  0.00  0.00    +0.005 A 
ENDBRANCH  27  40
ENDBRANCH  26  34
ENDBRANCH  25  26
ENDBRANCH   1  25
TORSDOF 6
