REMARK  Name = ZINC45693619
REMARK  10 active torsions:
REMARK  status: ('A' for Active; 'I' for Inactive)
REMARK    1  A    between atoms: C_1  and  C_2
REMARK    2  A    between atoms: C_2  and  N_3
REMARK    3  A    between atoms: N_3  and  C_4
REMARK    4  A    between atoms: N_3  and  C_6
REMARK    5  A    between atoms: C_4  and  C_5
REMARK    6  A    between atoms: C_6  and  C_7
REMARK    7  A    between atoms: C_7  and  C_9
REMARK    8  A    between atoms: C_7  and  N_10
REMARK    9  A    between atoms: N_10  and  C_11
REMARK   10  A    between atoms: C_17  and  C_22
REMARK                            x       y       z     vdW  Elec       q    Type
REMARK                         _______ _______ _______ _____ _____    ______ ____
ROOT
ATOM      1  C   UNL     1      -2.384   0.102  -2.074  0.00  0.00    +0.173 C 
ATOM      2  C   UNL     1      -2.630   0.895  -3.337  0.00  0.00    +0.001 A 
ATOM      3  C   UNL     1      -1.875   1.113  -4.468  0.00  0.00    +0.022 A 
ATOM      4  C   UNL     1      -2.373   1.906  -5.488  0.00  0.00    +0.019 A 
ATOM      5  C   UNL     1      -3.627   2.477  -5.365  0.00  0.00    +0.020 A 
ATOM      6  C   UNL     1      -4.385   2.260  -4.233  0.00  0.00    -0.028 A 
ATOM      7  C   UNL     1      -3.890   1.463  -3.203  0.00  0.00    +0.042 A 
ATOM      8  N   UNL     1      -4.455   1.100  -1.979  0.00  0.00    -0.283 N 
ATOM      9  C   UNL     1      -3.641   0.307  -1.256  0.00  0.00    +0.239 C 
ATOM     10  O   UNL     1      -3.871  -0.156  -0.159  0.00  0.00    -0.273 OA
ATOM     11  C   UNL     1      -5.749   2.888  -4.110  0.00  0.00    +0.046 C 
ATOM     12 BR   UNL     1      -1.341   2.209  -7.043  0.00  0.00    -0.050 Br
ATOM     13  H   UNL     1      -5.333   1.388  -1.682  0.00  0.00    +0.155 HD
ENDROOT
BRANCH   1  14
ATOM     14  N   UNL     1      -2.202  -1.322  -2.389  0.00  0.00    -0.301 NA
ATOM     15  H   UNL     1      -1.763  -1.440  -3.289  0.00  0.00    +0.123 HD
BRANCH  14  16
ATOM     16  C   UNL     1      -1.433  -1.999  -1.335  0.00  0.00    +0.035 C 
ATOM     17  C   UNL     1      -2.300  -3.080  -0.687  0.00  0.00    +0.022 C 
BRANCH  16  18
ATOM     18  C   UNL     1      -0.188  -2.643  -1.947  0.00  0.00    -0.060 C 
BRANCH  18  19
ATOM     19  N   UNL     1       0.608  -1.616  -2.633  0.00  0.00    +0.380 N 
ATOM     20  H   UNL     1       0.028  -1.131  -3.300  0.00  0.00    -0.082 HD
BRANCH  19  22
ATOM     21  C   UNL     1       1.825   0.492  -2.372  0.00  0.00    -0.017 C 
ATOM     22  C   UNL     1       1.127  -0.659  -1.646  0.00  0.00    -0.082 C 
ENDBRANCH  19  22
BRANCH  19  23
ATOM     23  C   UNL     1       1.731  -2.254  -3.333  0.00  0.00    -0.082 C 
ATOM     24  C   UNL     1       1.193  -3.146  -4.454  0.00  0.00    -0.017 C 
ENDBRANCH  19  23
ENDBRANCH  18  19
ENDBRANCH  16  18
ENDBRANCH  14  16
ENDBRANCH   1  14
TORSDOF 6
