REMARK  Name = ZINC37649873
REMARK  8 active torsions:
REMARK  status: ('A' for Active; 'I' for Inactive)
REMARK    1  A    between atoms: C_1  and  C_2
REMARK    2  A    between atoms: C_5  and  C_7
REMARK    3  A    between atoms: C_7  and  C_9
REMARK    4  A    between atoms: C_7  and  N_10
REMARK    5  A    between atoms: N_10  and  C_11
REMARK    6  A    between atoms: C_11  and  C_12
REMARK    7  A    between atoms: C_16  and  S_18
REMARK    8  A    between atoms: S_18  and  N_21
REMARK                            x       y       z     vdW  Elec       q    Type
REMARK                         _______ _______ _______ _____ _____    ______ ____
ROOT
ATOM      1  C   UNL     1       2.653  -5.532  -1.027  0.00  0.00    -0.046 C 
ENDROOT
BRANCH   1   2
ATOM      2  C   UNL     1       3.845  -5.609  -1.946  0.00  0.00    -0.063 A 
ATOM      3  C   UNL     1       3.660  -5.804  -3.303  0.00  0.00    +0.002 A 
ATOM      4  C   UNL     1       4.753  -5.875  -4.146  0.00  0.00    +0.002 A 
ATOM      5  C   UNL     1       6.031  -5.750  -3.633  0.00  0.00    +0.028 A 
ATOM      6  C   UNL     1       6.216  -5.554  -2.277  0.00  0.00    +0.105 A 
ATOM      7  C   UNL     1       5.122  -5.479  -1.435  0.00  0.00    +0.030 A 
BRANCH   6   8
ATOM      8  S   UNL     1       7.844  -5.395  -1.624  0.00  0.00    +0.056 S 
ATOM      9  O   UNL     1       7.770  -5.765  -0.254  0.00  0.00    -0.153 OA
ATOM     10  O   UNL     1       8.715  -6.043  -2.541  0.00  0.00    -0.153 OA
BRANCH   8  11
ATOM     11  N   UNL     1       8.232  -3.786  -1.660  0.00  0.00    -0.204 NA
ATOM     12  H   UNL     1       7.593  -3.141  -2.002  0.00  0.00    +0.144 HD
ATOM     13  H   UNL     1       9.097  -3.488  -1.339  0.00  0.00    +0.144 HD
ENDBRANCH   8  11
ENDBRANCH   6   8
ENDBRANCH   1   2
BRANCH   1  14
ATOM     14  N   UNL     1       2.205  -4.137  -0.923  0.00  0.00    +0.386 N 
ATOM     15  H   UNL     1       1.946  -3.798  -1.837  0.00  0.00    -0.085 HD
ATOM     16  H   UNL     1       2.952  -3.570  -0.553  0.00  0.00    -0.085 HD
BRANCH  14  17
ATOM     17  C   UNL     1       1.043  -4.062  -0.027  0.00  0.00    -0.037 C 
ATOM     18  C   UNL     1       1.465  -4.458   1.389  0.00  0.00    -0.008 C 
BRANCH  17  23
ATOM     19  C   UNL     1      -0.018   1.503   0.010  0.00  0.00    +0.051 C 
ATOM     20  C   UNL     1       0.002  -0.004   0.002  0.00  0.00    -0.013 A 
ATOM     21  C   UNL     1      -1.039  -0.872   0.002  0.00  0.00    +0.011 A 
ATOM     22  C   UNL     1      -0.780  -2.230  -0.007  0.00  0.00    +0.010 A 
ATOM     23  C   UNL     1       0.507  -2.653  -0.016  0.00  0.00    -0.024 A 
ATOM     24  S   UNL     1       1.404  -1.109  -0.018  0.00  0.00    -0.100 S 
ENDBRANCH  17  23
ENDBRANCH  14  17
ENDBRANCH   1  14
TORSDOF 6
