REMARK  Name = ZINC22673973
REMARK  6 active torsions:
REMARK  status: ('A' for Active; 'I' for Inactive)
REMARK    1  A    between atoms: C_4  and  C_7
REMARK    2  A    between atoms: C_7  and  N_8
REMARK    3  A    between atoms: C_14  and  N_19
REMARK    4  A    between atoms: C_15  and  C_16
REMARK    5  A    between atoms: C_20  and  C_22
REMARK    6  A    between atoms: C_22  and  C_23
REMARK                            x       y       z     vdW  Elec       q    Type
REMARK                         _______ _______ _______ _____ _____    ______ ____
ROOT
ATOM      1  N   UNL     1       2.859   4.194  -1.388  0.00  0.00    -0.293 NA
ATOM      2  C   UNL     1       3.982   5.141  -1.440  0.00  0.00    +0.090 C 
ATOM      3  C   UNL     1       4.632   5.111  -2.826  0.00  0.00    +0.052 C 
ATOM      4  C   UNL     1       3.536   5.293  -3.869  0.00  0.00    -0.021 A 
ATOM      5  C   UNL     1       2.241   5.092  -3.535  0.00  0.00    +0.010 A 
ATOM      6  S   UNL     1       1.336   5.411  -5.021  0.00  0.00    -0.076 S 
ATOM      7  C   UNL     1       2.656   5.804  -6.073  0.00  0.00    +0.084 A 
ATOM      8  C   UNL     1       3.767   5.679  -5.248  0.00  0.00    +0.068 A 
ATOM      9  C   UNL     1       1.723   4.687  -2.190  0.00  0.00    +0.127 C 
ENDROOT
BRANCH   8  10
ATOM     10  C   UNL     1       5.121   5.930  -5.752  0.00  0.00    +0.244 C 
ATOM     11  O   UNL     1       5.770   5.018  -6.231  0.00  0.00    -0.270 OA
ATOM     12  N   UNL     1       5.646   7.169  -5.684  0.00  0.00    -0.325 N 
ATOM     13  H   UNL     1       6.662   7.356  -6.062  0.00  0.00    +0.145 HD
ATOM     14  H   UNL     1       5.060   7.992  -5.251  0.00  0.00    +0.145 HD
ENDBRANCH   8  10
BRANCH   7  15
ATOM     15  N   UNL     1       2.614   6.157  -7.413  0.00  0.00    -0.279 N 
ATOM     16  C   UNL     1       1.431   6.228  -8.054  0.00  0.00    +0.222 C 
ATOM     17  O   UNL     1       0.403   5.982  -7.459  0.00  0.00    -0.275 OA
ATOM     18  H   UNL     1       3.546   6.380  -7.953  0.00  0.00    +0.155 HD
BRANCH  16  19
ATOM     19  C   UNL     1       1.384   6.612  -9.511  0.00  0.00    +0.138 C 
BRANCH  19  20
ATOM     20  C   UNL     1      -0.046   6.617  -9.984  0.00  0.00    -0.001 A 
ATOM     21  C   UNL     1      -0.945   7.632  -9.977  0.00  0.00    +0.011 A 
ATOM     22  C   UNL     1      -2.216   7.405 -10.471  0.00  0.00    +0.008 A 
ATOM     23  C   UNL     1      -2.530   6.172 -10.938  0.00  0.00    +0.045 A 
ATOM     24  S   UNL     1      -1.000   5.284 -10.692  0.00  0.00    -0.101 S 
ENDBRANCH  19  20
ENDBRANCH  16  19
ENDBRANCH   7  15
BRANCH   1  25
ATOM     25  C   UNL     1       2.451   3.937  -0.001  0.00  0.00    +0.120 C 
BRANCH  25  29
ATOM     26  C   UNL     1      -1.219   1.751   0.017  0.00  0.00    +0.000 A 
ATOM     27  C   UNL     1      -0.013   1.076   0.008  0.00  0.00    +0.000 A 
ATOM     28  C   UNL     1       1.175   1.783   0.000  0.00  0.00    +0.005 A 
ATOM     29  C   UNL     1       1.156   3.165   0.008  0.00  0.00    -0.033 A 
ATOM     30  C   UNL     1      -0.050   3.840   0.023  0.00  0.00    +0.005 A 
ATOM     31  C   UNL     1      -1.238   3.133   0.030  0.00  0.00    +0.000 A 
ENDBRANCH  25  29
ENDBRANCH   1  25
TORSDOF 6
