REMARK  Name = ZINC12331599
REMARK  7 active torsions:
REMARK  status: ('A' for Active; 'I' for Inactive)
REMARK    1  A    between atoms: C_1  and  C_2
REMARK    2  A    between atoms: N_4  and  C_5
REMARK    3  A    between atoms: C_7  and  C_19
REMARK    4  A    between atoms: C_9  and  C_11
REMARK    5  A    between atoms: C_18  and  N_65
REMARK    6  A    between atoms: C_19  and  N_67
REMARK    7  A    between atoms: C_20  and  N_67
REMARK                            x       y       z     vdW  Elec       q    Type
REMARK                         _______ _______ _______ _____ _____    ______ ____
ROOT
ATOM      1  C   UNL     1      -2.575   4.675  -0.030  0.00  0.00    +0.034 A 
ATOM      2  C   UNL     1      -3.784   4.047   0.248  0.00  0.00    +0.025 A 
ATOM      3  C   UNL     1      -3.839   2.673   0.383  0.00  0.00    -0.062 A 
ATOM      4  C   UNL     1      -2.695   1.914   0.241  0.00  0.00    +0.015 A 
ATOM      5  C   UNL     1      -1.476   2.535  -0.038  0.00  0.00    +0.039 A 
ATOM      6  C   UNL     1      -1.419   3.923  -0.168  0.00  0.00    +0.036 A 
ENDROOT
BRANCH   5   7
ATOM      7  C   UNL     1      -0.248   1.725  -0.189  0.00  0.00    +0.247 C 
ATOM      8  O   UNL     1      -0.266   0.715  -0.865  0.00  0.00    -0.270 OA
ATOM      9  N   UNL     1       0.892   2.110   0.417  0.00  0.00    -0.301 N 
ATOM     10  C   UNL     1       0.965   3.383   1.151  0.00  0.00    +0.089 C 
ATOM     11  C   UNL     1       1.534   3.102   2.550  0.00  0.00    -0.060 C 
ATOM     12  C   UNL     1       2.625   1.075   1.785  0.00  0.00    -0.060 C 
ATOM     13  C   UNL     1       2.099   1.271   0.359  0.00  0.00    +0.089 C 
ATOM     14  C   UNL     1       3.475   2.253   3.722  0.00  0.00    -0.096 C 
ATOM     15  N   UNL     1       2.830   2.404   2.402  0.00  0.00    +0.380 N 
ATOM     16  H   UNL     1       3.441   2.963   1.794  0.00  0.00    -0.082 HD
ENDBRANCH   5   7
BRANCH   1  20
ATOM     17  C   UNL     1      -3.595   8.249  -0.628  0.00  0.00    +0.109 C 
ATOM     18  C   UNL     1      -3.609   6.742  -0.596  0.00  0.00    +0.214 C 
ATOM     19  O   UNL     1      -4.596   6.137  -0.957  0.00  0.00    -0.276 OA
ATOM     20  N   UNL     1      -2.525   6.067  -0.166  0.00  0.00    -0.286 N 
ATOM     21  H   UNL     1      -1.710   6.546   0.050  0.00  0.00    +0.155 HD
ENDBRANCH   1  20
BRANCH   3  22
ATOM     22  C   UNL     1      -5.153   2.000   0.684  0.00  0.00    -0.046 C 
BRANCH  22  23
ATOM     23  N   UNL     1      -5.325   1.907   2.147  0.00  0.00    +0.384 N 
ATOM     24  H   UNL     1      -5.316   2.852   2.549  0.00  0.00    -0.085 HD
ATOM     25  H   UNL     1      -4.553   1.359   2.544  0.00  0.00    -0.085 HD
BRANCH  23  26
ATOM     26  C   UNL     1      -6.605   1.251   2.471  0.00  0.00    -0.065 C 
ATOM     27  C   UNL     1      -7.727   2.292   2.469  0.00  0.00    -0.024 C 
ATOM     28  C   UNL     1      -9.054   1.613   2.815  0.00  0.00    +0.005 C 
ATOM     29  C   UNL     1      -8.953   0.975   4.202  0.00  0.00    -0.010 C 
ATOM     30  C   UNL     1      -8.648   2.056   5.240  0.00  0.00    +0.007 C 
ATOM     31  C   UNL     1      -7.322   2.735   4.894  0.00  0.00    -0.010 C 
ATOM     32  C   UNL     1      -7.422   3.373   3.507  0.00  0.00    +0.005 C 
ATOM     33  C   UNL     1      -6.200   1.695   4.897  0.00  0.00    +0.005 C 
ATOM     34  C   UNL     1      -6.505   0.613   3.858  0.00  0.00    -0.024 C 
ATOM     35  C   UNL     1      -7.832  -0.066   4.204  0.00  0.00    +0.005 C 
ENDBRANCH  23  26
ENDBRANCH  22  23
ENDBRANCH   3  22
TORSDOF 5
