REMARK  Name = ZINC36704493
REMARK  10 active torsions:
REMARK  status: ('A' for Active; 'I' for Inactive)
REMARK    1  A    between atoms: C_1  and  C_2
REMARK    2  A    between atoms: C_7  and  C_8
REMARK    3  A    between atoms: N_12  and  C_13
REMARK    4  A    between atoms: C_13  and  C_14
REMARK    5  A    between atoms: C_14  and  N_15
REMARK    6  A    between atoms: N_15  and  C_16
REMARK    7  A    between atoms: N_15  and  C_17
REMARK    8  A    between atoms: C_18  and  C_20
REMARK    9  A    between atoms: N_25  and  S_26
REMARK   10  A    between atoms: S_26  and  C_29
REMARK                            x       y       z     vdW  Elec       q    Type
REMARK                         _______ _______ _______ _____ _____    ______ ____
ROOT
ATOM      1  C   UNL     1      -1.626   1.331   0.114  0.00  0.00    +0.044 C 
ATOM      2  C   UNL     1      -0.813   0.063   0.164  0.00  0.00    -0.045 A 
ATOM      3  C   UNL     1      -0.027  -0.282  -0.926  0.00  0.00    +0.005 A 
ATOM      4  C   UNL     1       0.720  -1.444  -0.881  0.00  0.00    +0.017 A 
ATOM      5  C   UNL     1       0.673  -2.238   0.238  0.00  0.00    +0.041 A 
ATOM      6  C   UNL     1      -0.116  -1.918   1.367  0.00  0.00    +0.083 A 
ATOM      7  C   UNL     1      -0.862  -0.719   1.288  0.00  0.00    -0.021 A 
ATOM      8  C   UNL     1      -1.725  -0.301   2.450  0.00  0.00    +0.046 C 
ATOM      9  N   UNL     1      -0.056  -2.798   2.390  0.00  0.00    -0.224 NA
ATOM     10  C   UNL     1       0.683  -3.881   2.347  0.00  0.00    +0.168 A 
ATOM     11  S   UNL     1       1.434  -3.766   0.729  0.00  0.00    -0.052 S 
ATOM     12  N   UNL     1       0.842  -4.864   3.311  0.00  0.00    -0.251 N 
ATOM     13  C   UNL     1       0.182  -4.772   4.482  0.00  0.00    +0.240 C 
ATOM     14  O   UNL     1      -0.604  -3.866   4.666  0.00  0.00    -0.273 OA
ENDROOT
BRANCH  13  15
ATOM     15  C   UNL     1       0.420  -5.793   5.564  0.00  0.00    +0.166 C 
ATOM     16  C   UNL     1      -0.679  -6.875   5.516  0.00  0.00    +0.031 C 
ATOM     17  C   UNL     1      -0.945  -7.167   7.017  0.00  0.00    +0.019 C 
ATOM     18  C   UNL     1      -0.762  -5.762   7.644  0.00  0.00    +0.110 C 
ATOM     19  N   UNL     1       0.348  -5.150   6.884  0.00  0.00    -0.164 NA
BRANCH  19  20
ATOM     20  S   UNL     1       1.343  -3.943   7.426  0.00  0.00    +0.068 S 
ATOM     21  O   UNL     1       1.321  -4.005   8.845  0.00  0.00    -0.152 OA
ATOM     22  O   UNL     1       2.547  -4.043   6.678  0.00  0.00    -0.152 OA
BRANCH  20  23
ATOM     23  C   UNL     1       0.597  -2.411   6.977  0.00  0.00    +0.144 A 
ATOM     24  C   UNL     1      -0.278  -1.651   7.678  0.00  0.00    +0.038 A 
ATOM     25  C   UNL     1      -0.738  -0.471   7.121  0.00  0.00    +0.030 A 
ATOM     26  C   UNL     1      -0.298  -0.111   5.889  0.00  0.00    +0.080 A 
ATOM     27  S   UNL     1       0.804  -1.456   5.483  0.00  0.00    -0.057 S 
ATOM     28 CL   UNL     1      -0.698   1.295   4.954  0.00  0.00    -0.076 Cl
ENDBRANCH  20  23
ENDBRANCH  19  20
ENDBRANCH  13  15
BRANCH  12  29
ATOM     29  C   UNL     1       1.726  -6.003   3.056  0.00  0.00    +0.097 C 
BRANCH  29  30
ATOM     30  C   UNL     1       3.147  -5.656   3.505  0.00  0.00    -0.060 C 
BRANCH  30  31
ATOM     31  N   UNL     1       4.035  -6.799   3.250  0.00  0.00    +0.377 N 
ATOM     32  C   UNL     1       4.130  -7.031   1.802  0.00  0.00    -0.097 C 
ATOM     33  C   UNL     1       5.370  -6.512   3.789  0.00  0.00    -0.097 C 
ATOM     34  H   UNL     1       3.661  -7.622   3.698  0.00  0.00    -0.083 HD
ENDBRANCH  30  31
ENDBRANCH  29  30
ENDBRANCH  12  29
TORSDOF 6
