REMARK  Name = ZINC63708113
REMARK  7 active torsions:
REMARK  status: ('A' for Active; 'I' for Inactive)
REMARK    1  A    between atoms: C_1  and  C_2
REMARK    2  A    between atoms: C_4  and  N_8
REMARK    3  A    between atoms: C_9  and  C_11
REMARK    4  A    between atoms: C_11  and  S_12
REMARK    5  A    between atoms: S_12  and  C_13
REMARK    6  A    between atoms: C_25  and  C_28
REMARK    7  A    between atoms: C_32  and  N_34
REMARK                            x       y       z     vdW  Elec       q    Type
REMARK                         _______ _______ _______ _____ _____    ______ ____
ROOT
ATOM      1  C   UNL     1      -2.893  -7.316  -3.492  0.00  0.00    +0.245 C 
ATOM      2  N   UNL     1      -1.735  -7.353  -4.384  0.00  0.00    -0.357 N 
ATOM      3  C   UNL     1      -1.508  -6.456  -5.327  0.00  0.00    +0.048 A 
ATOM      4  C   UNL     1      -0.314  -6.466  -6.080  0.00  0.00    +0.026 A 
ATOM      5  C   UNL     1      -0.081  -5.475  -6.981  0.00  0.00    +0.002 A 
ATOM      6  C   UNL     1      -0.993  -4.444  -7.198  0.00  0.00    +0.001 A 
ATOM      7  C   UNL     1      -2.182  -4.395  -6.532  0.00  0.00    +0.013 A 
ATOM      8  C   UNL     1      -2.496  -5.403  -5.617  0.00  0.00    +0.035 A 
ATOM      9  C   UNL     1      -3.737  -5.496  -4.964  0.00  0.00    +0.113 C 
ATOM     10  N   UNL     1      -3.974  -6.524  -4.086  0.00  0.00    -0.220 N 
ATOM     11  N   UNL     1      -5.316  -6.668  -3.913  0.00  0.00    -0.212 NA
ATOM     12  C   UNL     1      -5.934  -5.430  -4.434  0.00  0.00    +0.188 C 
ATOM     13  N   UNL     1      -4.813  -4.682  -5.029  0.00  0.00    -0.311 N 
ATOM     14  H   UNL     1      -5.659  -7.479  -4.407  0.00  0.00    +0.147 HD
ATOM     15  H   UNL     1      -4.842  -3.784  -5.394  0.00  0.00    +0.149 HD
ATOM     16  H   UNL     1      -1.097  -8.076  -4.277  0.00  0.00    +0.162 HD
ENDROOT
BRANCH  12  17
ATOM     17  C   UNL     1      -6.967  -5.757  -5.482  0.00  0.00    -0.009 A 
ATOM     18  C   UNL     1      -7.668  -6.947  -5.413  0.00  0.00    +0.007 A 
ATOM     19  C   UNL     1      -8.615  -7.247  -6.374  0.00  0.00    +0.003 A 
ATOM     20  C   UNL     1      -8.862  -6.358  -7.403  0.00  0.00    +0.033 A 
ATOM     21  C   UNL     1      -8.161  -5.168  -7.471  0.00  0.00    +0.127 A 
ATOM     22  C   UNL     1      -7.217  -4.866  -6.508  0.00  0.00    +0.039 A 
BRANCH  21  23
ATOM     23  N   UNL     1      -8.425  -4.216  -8.573  0.00  0.00    +0.056 N 
ATOM     24  O   UNL     1      -9.253  -4.479  -9.414  0.00  0.00    -0.126 OA
ATOM     25  O   UNL     1      -7.812  -3.175  -8.633  0.00  0.00    -0.126 OA
ENDBRANCH  21  23
ENDBRANCH  12  17
BRANCH   1  26
ATOM     26  S   UNL     1      -2.407  -6.573  -1.910  0.00  0.00    -0.107 S 
BRANCH  26  27
ATOM     27  C   UNL     1      -1.851  -4.906  -2.361  0.00  0.00    +0.168 C 
BRANCH  27  29
ATOM     28  N   UNL     1      -0.957  -2.905  -1.213  0.00  0.00    -0.288 N 
ATOM     29  C   UNL     1      -1.413  -4.170  -1.120  0.00  0.00    +0.225 C 
ATOM     30  O   UNL     1      -1.470  -4.717  -0.039  0.00  0.00    -0.275 OA
ATOM     31  H   UNL     1      -0.911  -2.468  -2.078  0.00  0.00    +0.151 HD
BRANCH  28  35
ATOM     32  C   UNL     1      -0.018   1.503   0.010  0.00  0.00    +0.067 C 
ATOM     33  C   UNL     1       0.002  -0.004   0.002  0.00  0.00    +0.060 C 
ATOM     34  C   UNL     1      -1.086  -0.777   0.003  0.00  0.00    +0.045 C 
ATOM     35  C   UNL     1      -0.531  -2.190  -0.007  0.00  0.00    +0.239 C 
ATOM     36  N   UNL     1       0.926  -1.973  -0.013  0.00  0.00    -0.160 NA
ATOM     37  N   UNL     1       1.125  -0.756  -0.013  0.00  0.00    -0.157 NA
ENDBRANCH  28  35
ENDBRANCH  27  29
ENDBRANCH  26  27
ENDBRANCH   1  26
TORSDOF 6
