REMARK  Name = ZINC03495689
REMARK  10 active torsions:
REMARK  status: ('A' for Active; 'I' for Inactive)
REMARK    1  A    between atoms: C_1  and  C_2
REMARK    2  A    between atoms: C_2  and  C_4
REMARK    3  A    between atoms: C_2  and  N_47
REMARK    4  A    between atoms: C_9  and  O_10
REMARK    5  A    between atoms: O_10  and  C_11
REMARK    6  A    between atoms: C_12  and  C_13
REMARK    7  A    between atoms: C_12  and  N_47
REMARK    8  A    between atoms: N_15  and  C_16
REMARK    9  A    between atoms: C_16  and  C_17
REMARK   10  A    between atoms: N_19  and  C_20
REMARK                            x       y       z     vdW  Elec       q    Type
REMARK                         _______ _______ _______ _____ _____    ______ ____
ROOT
ATOM      1  C   UNL     1       3.783  -4.427  -1.613  0.00  0.00    +0.196 C 
ATOM      2  O   UNL     1       4.741  -3.692  -1.495  0.00  0.00    -0.278 OA
ATOM      3  N   UNL     1       3.933  -5.643  -2.176  0.00  0.00    -0.308 N 
ATOM      4  H   UNL     1       3.167  -6.231  -2.270  0.00  0.00    +0.149 HD
ENDROOT
BRANCH   1   5
ATOM      5  C   UNL     1       2.427  -3.982  -1.129  0.00  0.00    +0.016 C 
BRANCH   5   6
ATOM      6  N   UNL     1       2.538  -2.626  -0.560  0.00  0.00    +0.389 N 
ATOM      7  H   UNL     1       3.200  -2.641   0.225  0.00  0.00    -0.084 HD
ATOM      8  H   UNL     1       2.879  -1.982  -1.283  0.00  0.00    -0.084 HD
BRANCH   6  10
ATOM      9  C   UNL     1       0.993  -2.674   1.346  0.00  0.00    -0.009 C 
ATOM     10  C   UNL     1       1.223  -2.163  -0.078  0.00  0.00    -0.040 C 
BRANCH  10  11
ATOM     11  C   UNL     1       1.197  -0.657  -0.081  0.00  0.00    -0.020 A 
ATOM     12  C   UNL     1       2.381   0.056  -0.092  0.00  0.00    +0.005 A 
ATOM     13  C   UNL     1       2.357   1.438  -0.096  0.00  0.00    +0.000 A 
ATOM     14  C   UNL     1       1.149   2.111  -0.088  0.00  0.00    +0.004 A 
ATOM     15  C   UNL     1      -0.037   1.404  -0.077  0.00  0.00    +0.046 A 
ATOM     16  C   UNL     1      -0.016   0.016  -0.073  0.00  0.00    +0.122 A 
BRANCH  16  17
ATOM     17  O   UNL     1      -1.182  -0.682  -0.062  0.00  0.00    -0.495 OA
ATOM     18  C   UNL     1      -2.393   0.077  -0.054  0.00  0.00    +0.277 C 
ENDBRANCH  16  17
ENDBRANCH  10  11
ENDBRANCH   6  10
ENDBRANCH   5   6
ENDBRANCH   1   5
BRANCH   3  19
ATOM     19  C   UNL     1       5.251  -6.075  -2.646  0.00  0.00    +0.200 C 
BRANCH  19  20
ATOM     20  C   UNL     1       5.146  -7.461  -3.229  0.00  0.00    +0.234 C 
ATOM     21  O   UNL     1       4.076  -8.031  -3.250  0.00  0.00    -0.274 OA
ATOM     22  N   UNL     1       6.242  -8.067  -3.727  0.00  0.00    -0.282 N 
ATOM     23  H   UNL     1       7.084  -7.588  -3.769  0.00  0.00    +0.155 HD
BRANCH  22  24
ATOM     24  C   UNL     1       6.165  -9.390  -4.184  0.00  0.00    +0.072 A 
ATOM     25  C   UNL     1       5.007  -9.846  -4.800  0.00  0.00    +0.029 A 
ATOM     26  C   UNL     1       4.933 -11.149  -5.254  0.00  0.00    +0.043 A 
ATOM     27  C   UNL     1       6.009 -12.004  -5.088  0.00  0.00    +0.161 A 
ATOM     28  C   UNL     1       7.165 -11.554  -4.469  0.00  0.00    +0.195 A 
ATOM     29  C   UNL     1       7.245 -10.248  -4.016  0.00  0.00    +0.182 A 
ATOM     30  F   UNL     1       8.371  -9.808  -3.414  0.00  0.00    -0.200 F 
ATOM     31  F   UNL     1       8.214 -12.391  -4.306  0.00  0.00    -0.199 F 
ATOM     32  F   UNL     1       5.932 -13.279  -5.529  0.00  0.00    -0.202 F 
ENDBRANCH  22  24
ENDBRANCH  19  20
ENDBRANCH   3  19
TORSDOF 8
