REMARK  Name = ZINC39711376
REMARK  11 active torsions:
REMARK  status: ('A' for Active; 'I' for Inactive)
REMARK    1  A    between atoms: C_1  and  C_2
REMARK    2  A    between atoms: C_7  and  N_8
REMARK    3  A    between atoms: N_11  and  C_14
REMARK    4  A    between atoms: C_14  and  C_16
REMARK    5  A    between atoms: C_14  and  C_25
REMARK    6  A    between atoms: N_20  and  C_21
REMARK    7  A    between atoms: C_21  and  C_22
REMARK    8  A    between atoms: C_22  and  O_23
REMARK    9  A    between atoms: O_23  and  C_24
REMARK   10  A    between atoms: C_31  and  O_37
REMARK   11  A    between atoms: O_37  and  C_38
REMARK                            x       y       z     vdW  Elec       q    Type
REMARK                         _______ _______ _______ _____ _____    ______ ____
ROOT
ATOM      1  C   UNL     1       0.022   3.569   4.343  0.00  0.00    +0.142 C 
ENDROOT
BRANCH   1   2
ATOM      2  C   UNL     1       1.421   3.339   4.919  0.00  0.00    +0.123 C 
ATOM      3  C   UNL     1       1.391   2.046   5.710  0.00  0.00    -0.003 C 
ATOM      4  C   UNL     1       1.736   2.109   7.024  0.00  0.00    -0.007 A 
ATOM      5  C   UNL     1       1.734   0.904   7.857  0.00  0.00    +0.013 A 
ATOM      6  C   UNL     1       2.084   1.005   9.161  0.00  0.00    +0.046 A 
ATOM      7  C   UNL     1       2.447   2.237   9.725  0.00  0.00    +0.122 A 
ATOM      8  C   UNL     1       2.469   3.404   8.993  0.00  0.00    +0.069 A 
ATOM      9  C   UNL     1       2.121   3.395   7.635  0.00  0.00    +0.044 A 
ATOM     10  N   UNL     1       2.145   4.532   6.935  0.00  0.00    -0.284 N 
ATOM     11  C   UNL     1       1.831   4.595   5.654  0.00  0.00    +0.226 C 
ATOM     12  O   UNL     1       1.872   5.660   5.068  0.00  0.00    -0.275 OA
ATOM     13  H   UNL     1       2.406   5.349   7.389  0.00  0.00    +0.155 HD
BRANCH   7  14
ATOM     14  O   UNL     1       2.788   2.281  11.035  0.00  0.00    -0.495 OA
ATOM     15  C   UNL     1       2.752   1.048  11.757  0.00  0.00    +0.277 C 
ENDBRANCH   7  14
ENDBRANCH   1   2
BRANCH   1  19
ATOM     16  N   UNL     1      -1.509   0.599   1.803  0.00  0.00    -0.327 N 
ATOM     17  C   UNL     1      -2.389   1.076   2.880  0.00  0.00    +0.120 C 
ATOM     18  C   UNL     1      -1.880   2.440   3.358  0.00  0.00    +0.104 C 
ATOM     19  N   UNL     1      -0.460   2.330   3.719  0.00  0.00    -0.289 NA
ATOM     20  C   UNL     1       0.360   1.973   2.554  0.00  0.00    +0.104 C 
ATOM     21  C   UNL     1      -0.058   0.584   2.045  0.00  0.00    +0.120 C 
BRANCH  16  28
ATOM     22  C   UNL     1      -1.841   2.518  -0.271  0.00  0.00    +0.045 C 
ATOM     23  C   UNL     1      -2.215   1.070  -0.456  0.00  0.00    -0.029 A 
ATOM     24  C   UNL     1      -2.732   0.638  -1.663  0.00  0.00    +0.006 A 
ATOM     25  C   UNL     1      -3.076  -0.690  -1.834  0.00  0.00    +0.020 A 
ATOM     26  C   UNL     1      -2.904  -1.591  -0.798  0.00  0.00    +0.043 A 
ATOM     27  C   UNL     1      -2.389  -1.166   0.412  0.00  0.00    +0.043 A 
ATOM     28  C   UNL     1      -2.037   0.167   0.584  0.00  0.00    +0.034 A 
ATOM     29 CL   UNL     1      -3.338  -3.258  -1.018  0.00  0.00    -0.083 Cl
ENDBRANCH  16  28
ENDBRANCH   1  19
BRANCH   1  30
ATOM     30  C   UNL     1       0.079   4.663   3.308  0.00  0.00    +0.170 A 
ATOM     31  N   UNL     1       0.833   4.689   2.237  0.00  0.00    -0.112 NA
ATOM     32  N   UNL     1       0.594   5.788   1.608  0.00  0.00    -0.023 NA
ATOM     33  N   UNL     1      -0.293   6.464   2.250  0.00  0.00    -0.044 NA
ATOM     34  N   UNL     1      -0.640   5.801   3.301  0.00  0.00    -0.225 N 
BRANCH  34  35
ATOM     35  C   UNL     1      -1.629   6.212   4.302  0.00  0.00    +0.175 C 
BRANCH  35  36
ATOM     36  C   UNL     1      -0.940   7.040   5.389  0.00  0.00    +0.183 C 
BRANCH  36  37
ATOM     37  O   UNL     1      -1.914   7.488   6.334  0.00  0.00    -0.381 OA
ATOM     38  C   UNL     1      -1.372   8.275   7.397  0.00  0.00    +0.194 C 
ENDBRANCH  36  37
ENDBRANCH  35  36
ENDBRANCH  34  35
ENDBRANCH   1  30
TORSDOF 8
