REMARK  Name = ZINC35716685
REMARK  7 active torsions:
REMARK  status: ('A' for Active; 'I' for Inactive)
REMARK    1  A    between atoms: C_1  and  N_2
REMARK    2  A    between atoms: N_2  and  C_3
REMARK    3  A    between atoms: N_2  and  C_9
REMARK    4  A    between atoms: C_3  and  C_4
REMARK    5  A    between atoms: C_9  and  C_10
REMARK    6  A    between atoms: N_12  and  C_13
REMARK    7  A    between atoms: C_18  and  N_19
REMARK                            x       y       z     vdW  Elec       q    Type
REMARK                         _______ _______ _______ _____ _____    ______ ____
ROOT
ATOM      1  C   UNL     1      -2.068  -0.113  -1.265  0.00  0.00    +0.201 C 
ATOM      2  O   UNL     1      -1.470   0.524  -2.105  0.00  0.00    -0.278 OA
ATOM      3  N   UNL     1      -3.349  -0.476  -1.480  0.00  0.00    -0.286 N 
ATOM      4  H   UNL     1      -3.802  -1.053  -0.845  0.00  0.00    +0.155 HD
ENDROOT
BRANCH   3   5
ATOM      5  C   UNL     1      -4.024  -0.020  -2.619  0.00  0.00    +0.056 A 
ATOM      6  C   UNL     1      -3.626   1.154  -3.241  0.00  0.00    +0.045 A 
ATOM      7  C   UNL     1      -4.295   1.603  -4.365  0.00  0.00    +0.043 A 
ATOM      8  C   UNL     1      -5.361   0.883  -4.874  0.00  0.00    +0.022 A 
ATOM      9  C   UNL     1      -5.765  -0.288  -4.260  0.00  0.00    +0.026 A 
ATOM     10  C   UNL     1      -5.096  -0.748  -3.135  0.00  0.00    +0.046 A 
ATOM     11 CL   UNL     1      -3.794   3.073  -5.141  0.00  0.00    -0.083 Cl
BRANCH  10  12
ATOM     12  N   UNL     1      -5.499  -1.937  -2.517  0.00  0.00    -0.357 N 
ATOM     13  H   UNL     1      -5.033  -2.255  -1.728  0.00  0.00    +0.142 HD
ATOM     14  H   UNL     1      -6.244  -2.443  -2.877  0.00  0.00    +0.142 HD
ENDBRANCH  10  12
ENDBRANCH   3   5
BRANCH   1  15
ATOM     15  C   UNL     1      -1.381  -0.500   0.019  0.00  0.00    +0.019 C 
BRANCH  15  17
ATOM     16  C   UNL     1      -0.025   1.479   0.007  0.00  0.00    -0.095 C 
ATOM     17  N   UNL     1      -0.004   0.010   0.010  0.00  0.00    +0.387 N 
ATOM     18  H   UNL     1       0.472  -0.321  -0.816  0.00  0.00    -0.081 HD
BRANCH  17  19
ATOM     19  C   UNL     1       0.703  -0.467   1.206  0.00  0.00    -0.035 C 
BRANCH  19  20
ATOM     20  C   UNL     1       2.149  -0.048   1.136  0.00  0.00    -0.027 A 
ATOM     21  C   UNL     1       2.732   1.085   1.599  0.00  0.00    +0.009 A 
ATOM     22  C   UNL     1       4.092   1.259   1.422  0.00  0.00    +0.008 A 
ATOM     23  C   UNL     1       4.802   0.292   0.790  0.00  0.00    +0.045 A 
ATOM     24  S   UNL     1       3.539  -0.916   0.429  0.00  0.00    -0.103 S 
ENDBRANCH  19  20
ENDBRANCH  17  19
ENDBRANCH  15  17
ENDBRANCH   1  15
TORSDOF 6
