REMARK  Name = ZINC63830684
REMARK  6 active torsions:
REMARK  status: ('A' for Active; 'I' for Inactive)
REMARK    1  A    between atoms: C_1  and  C_2
REMARK    2  A    between atoms: C_5  and  C_22
REMARK    3  A    between atoms: C_6  and  C_8
REMARK    4  A    between atoms: N_10  and  C_11
REMARK    5  A    between atoms: C_11  and  C_12
REMARK    6  A    between atoms: C_12  and  C_13
REMARK                            x       y       z     vdW  Elec       q    Type
REMARK                         _______ _______ _______ _____ _____    ______ ____
ROOT
ATOM      1  C   UNL     1       3.802  -1.414   0.626  0.00  0.00    +0.252 C 
ATOM      2  O   UNL     1       4.570  -1.784  -0.244  0.00  0.00    -0.270 OA
ATOM      3  N   UNL     1       4.231  -1.297   1.899  0.00  0.00    -0.311 N 
ATOM      4  H   UNL     1       3.619  -1.002   2.591  0.00  0.00    +0.149 HD
ENDROOT
BRANCH   1   9
ATOM      5  C   UNL     1      -0.637   1.066  -0.129  0.00  0.00    +0.040 C 
ATOM      6  C   UNL     1      -0.169  -0.368   0.125  0.00  0.00    +0.130 C 
ATOM      7  N   UNL     1       0.517  -0.924  -1.060  0.00  0.00    -0.331 N 
ATOM      8  C   UNL     1       1.821  -1.266  -0.894  0.00  0.00    +0.054 C 
ATOM      9  C   UNL     1       2.459  -1.105   0.301  0.00  0.00    +0.093 C 
ATOM     10  S   UNL     1       1.195  -0.414   1.358  0.00  0.00    -0.096 S 
ATOM     11  H   UNL     1       0.061  -1.038  -1.909  0.00  0.00    +0.147 HD
BRANCH   8  12
ATOM     12  C   UNL     1       2.567  -1.827  -2.037  0.00  0.00    -0.003 A 
ATOM     13  C   UNL     1       3.187  -3.075  -1.927  0.00  0.00    +0.010 A 
ATOM     14  C   UNL     1       3.882  -3.593  -2.999  0.00  0.00    +0.001 A 
ATOM     15  C   UNL     1       3.967  -2.881  -4.182  0.00  0.00    +0.000 A 
ATOM     16  C   UNL     1       3.356  -1.645  -4.299  0.00  0.00    +0.001 A 
ATOM     17  C   UNL     1       2.652  -1.116  -3.237  0.00  0.00    +0.010 A 
ENDBRANCH   8  12
ENDBRANCH   1   9
BRANCH   3  18
ATOM     18  C   UNL     1       5.620  -1.616   2.235  0.00  0.00    +0.109 C 
BRANCH  18  19
ATOM     19  C   UNL     1       5.844  -1.402   3.733  0.00  0.00    +0.052 C 
BRANCH  19  20
ATOM     20  C   UNL     1       7.274  -1.730   4.080  0.00  0.00    -0.040 C 
ATOM     21  C   UNL     1       8.307  -0.863   4.174  0.00  0.00    -0.001 A 
ATOM     22  C   UNL     1       8.406   0.590   3.988  0.00  0.00    +0.010 A 
ATOM     23  C   UNL     1       9.606   1.192   4.154  0.00  0.00    +0.001 A 
ATOM     24  C   UNL     1      10.754   0.466   4.498  0.00  0.00    +0.002 A 
ATOM     25  C   UNL     1      10.742  -0.871   4.686  0.00  0.00    +0.026 A 
ATOM     26  C   UNL     1       9.534  -1.607   4.537  0.00  0.00    +0.043 A 
ATOM     27  N   UNL     1       9.270  -2.885   4.663  0.00  0.00    -0.380 N 
ATOM     28  C   UNL     1       7.842  -3.095   4.399  0.00  0.00    +0.144 C 
ATOM     29  H   UNL     1       9.910  -3.575   4.895  0.00  0.00    +0.160 HD
ENDBRANCH  19  20
ENDBRANCH  18  19
ENDBRANCH   3  18
TORSDOF 5
