REMARK  Name = ZINC09610452
REMARK  10 active torsions:
REMARK  status: ('A' for Active; 'I' for Inactive)
REMARK    1  A    between atoms: C_1  and  C_2
REMARK    2  A    between atoms: C_5  and  N_8
REMARK    3  A    between atoms: C_11  and  C_13
REMARK    4  A    between atoms: C_14  and  C_19
REMARK    5  A    between atoms: C_16  and  C_18
REMARK    6  A    between atoms: N_21  and  C_22
REMARK    7  A    between atoms: C_22  and  C_23
REMARK    8  A    between atoms: C_28  and  C_29
REMARK    9  A    between atoms: C_28  and  N_68
REMARK   10  A    between atoms: C_29  and  C_30
REMARK                            x       y       z     vdW  Elec       q    Type
REMARK                         _______ _______ _______ _____ _____    ______ ____
ROOT
ATOM      1  C   UNL     1       1.103  -2.141   0.506  0.00  0.00    +0.245 C 
ATOM      2  O   UNL     1       2.136  -2.740   0.280  0.00  0.00    -0.270 OA
ATOM      3  N   UNL     1      -0.013  -2.823   0.832  0.00  0.00    -0.311 N 
ATOM      4  H   UNL     1      -0.838  -2.345   1.012  0.00  0.00    +0.149 HD
ENDROOT
BRANCH   1  11
ATOM      5  N   UNL     1       3.454   1.940  -0.023  0.00  0.00    -0.214 N 
ATOM      6  C   UNL     1       2.171   1.487   0.162  0.00  0.00    +0.164 A 
ATOM      7  C   UNL     1       2.254   0.081   0.234  0.00  0.00    +0.054 A 
ATOM      8  C   UNL     1       3.615  -0.263   0.085  0.00  0.00    +0.070 A 
ATOM      9  N   UNL     1       4.307   0.831  -0.065  0.00  0.00    -0.169 NA
ATOM     10  C   UNL     1       4.174  -1.662   0.096  0.00  0.00    +0.068 C 
ATOM     11  C   UNL     1       1.070  -0.665   0.424  0.00  0.00    +0.051 A 
ATOM     12  C   UNL     1      -0.130   0.035   0.533  0.00  0.00    +0.037 A 
ATOM     13  C   UNL     1      -0.119   1.419   0.451  0.00  0.00    +0.041 A 
ATOM     14  N   UNL     1       0.997   2.091   0.273  0.00  0.00    -0.232 NA
ATOM     15  C   UNL     1      -1.420   2.172   0.563  0.00  0.00    +0.065 C 
BRANCH   5  20
ATOM     16  C   UNL     1       5.024   7.369  -0.535  0.00  0.00    +0.044 C 
ATOM     17  C   UNL     1       4.607   5.927  -0.399  0.00  0.00    -0.050 A 
ATOM     18  C   UNL     1       5.436   5.027   0.244  0.00  0.00    +0.005 A 
ATOM     19  C   UNL     1       5.057   3.705   0.371  0.00  0.00    +0.028 A 
ATOM     20  C   UNL     1       3.841   3.280  -0.149  0.00  0.00    +0.068 A 
ATOM     21  C   UNL     1       3.013   4.186  -0.800  0.00  0.00    +0.028 A 
ATOM     22  C   UNL     1       3.396   5.507  -0.919  0.00  0.00    +0.005 A 
ENDBRANCH   5  20
ENDBRANCH   1  11
BRANCH   3  23
ATOM     23  C   UNL     1       0.019  -4.285   0.913  0.00  0.00    +0.108 C 
BRANCH  23  24
ATOM     24  C   UNL     1      -1.367  -4.806   1.298  0.00  0.00    +0.003 C 
ATOM     25  C   UNL     1      -1.716  -4.336   2.713  0.00  0.00    -0.014 C 
ATOM     26  C   UNL     1      -3.076  -4.910   3.115  0.00  0.00    -0.078 C 
ATOM     27  C   UNL     1      -2.738  -6.852   1.705  0.00  0.00    -0.078 C 
ATOM     28  C   UNL     1      -1.367  -6.336   1.261  0.00  0.00    -0.014 C 
ATOM     29  N   UNL     1      -3.003  -6.386   3.083  0.00  0.00    +0.380 N 
ATOM     30  H   UNL     1      -2.236  -6.694   3.692  0.00  0.00    -0.082 HD
BRANCH  29  31
ATOM     31  C   UNL     1      -4.269  -6.965   3.577  0.00  0.00    -0.074 C 
BRANCH  31  32
ATOM     32  C   UNL     1      -4.666  -6.266   4.879  0.00  0.00    +0.024 C 
BRANCH  32  33
ATOM     33  C   UNL     1      -5.943  -6.870   5.404  0.00  0.00    -0.012 A 
ATOM     34  C   UNL     1      -6.108  -7.919   6.246  0.00  0.00    +0.011 A 
ATOM     35  C   UNL     1      -7.389  -8.300   6.599  0.00  0.00    +0.008 A 
ATOM     36  C   UNL     1      -8.442  -7.620   6.085  0.00  0.00    +0.045 A 
ATOM     37  S   UNL     1      -7.631  -6.393   5.074  0.00  0.00    -0.102 S 
ENDBRANCH  32  33
ENDBRANCH  31  32
ENDBRANCH  29  31
ENDBRANCH  23  24
ENDBRANCH   3  23
TORSDOF 7
