REMARK  Name = ZINC67582960
REMARK  9 active torsions:
REMARK  status: ('A' for Active; 'I' for Inactive)
REMARK    1  A    between atoms: C_1  and  C_2
REMARK    2  A    between atoms: C_2  and  C_4
REMARK    3  A    between atoms: C_2  and  N_11
REMARK    4  A    between atoms: C_8  and  O_10
REMARK    5  A    between atoms: N_11  and  C_12
REMARK    6  A    between atoms: N_15  and  C_16
REMARK    7  A    between atoms: C_16  and  C_17
REMARK    8  A    between atoms: C_17  and  C_19
REMARK    9  A    between atoms: C_17  and  N_24
REMARK                            x       y       z     vdW  Elec       q    Type
REMARK                         _______ _______ _______ _____ _____    ______ ____
ROOT
ATOM      1  N   UNL     1       0.756  -0.465   1.110  0.00  0.00    -0.282 N 
ATOM      2  C   UNL     1       0.165  -0.407   2.449  0.00  0.00    +0.134 C 
ATOM      3  C   UNL     1       2.056  -0.789   0.961  0.00  0.00    +0.302 C 
ATOM      4  O   UNL     1       2.547  -0.838  -0.151  0.00  0.00    -0.253 OA
ATOM      5  N   UNL     1       2.812  -1.060   2.043  0.00  0.00    -0.300 N 
ATOM      6  H   UNL     1       2.420  -1.021   2.930  0.00  0.00    +0.150 HD
ENDROOT
BRANCH   1   8
ATOM      7  C   UNL     1      -0.743   1.189   0.111  0.00  0.00    +0.033 C 
ATOM      8  C   UNL     1      -0.065  -0.171  -0.067  0.00  0.00    +0.104 C 
BRANCH   8   9
ATOM      9  C   UNL     1      -1.116  -1.239  -0.226  0.00  0.00    -0.024 A 
ATOM     10  C   UNL     1      -1.202  -1.953  -1.408  0.00  0.00    +0.006 A 
ATOM     11  C   UNL     1      -2.165  -2.934  -1.557  0.00  0.00    +0.004 A 
ATOM     12  C   UNL     1      -3.044  -3.203  -0.525  0.00  0.00    +0.045 A 
ATOM     13  C   UNL     1      -2.959  -2.489   0.661  0.00  0.00    +0.117 A 
ATOM     14  C   UNL     1      -1.988  -1.509   0.810  0.00  0.00    +0.050 A 
BRANCH  13  15
ATOM     15  O   UNL     1      -3.822  -2.752   1.677  0.00  0.00    -0.507 OA
ATOM     16  H   UNL     1      -3.510  -3.429   2.293  0.00  0.00    +0.292 HD
ENDBRANCH  13  15
ENDBRANCH   8   9
ENDBRANCH   1   8
BRANCH   5  17
ATOM     17  C   UNL     1       4.224  -1.413   1.881  0.00  0.00    +0.095 C 
BRANCH  17  18
ATOM     18  C   UNL     1       4.878  -1.544   3.258  0.00  0.00    -0.013 C 
BRANCH  18  19
ATOM     19  N   UNL     1       6.268  -1.993   3.099  0.00  0.00    +0.386 N 
ATOM     20  C   UNL     1       6.867  -2.284   4.427  0.00  0.00    -0.078 C 
ATOM     21  C   UNL     1       8.040  -3.237   4.085  0.00  0.00    -0.020 C 
ATOM     22  C   UNL     1       7.461  -4.102   2.942  0.00  0.00    -0.020 C 
ATOM     23  C   UNL     1       6.310  -3.268   2.350  0.00  0.00    -0.078 C 
ATOM     24  H   UNL     1       6.809  -1.289   2.619  0.00  0.00    -0.081 HD
ENDBRANCH  18  19
BRANCH  18  25
ATOM     25  C   UNL     1       4.858  -0.208   3.954  0.00  0.00    -0.022 A 
ATOM     26  C   UNL     1       4.013   0.243   4.912  0.00  0.00    +0.009 A 
ATOM     27  C   UNL     1       4.186   1.520   5.412  0.00  0.00    +0.008 A 
ATOM     28  C   UNL     1       5.196   2.284   4.929  0.00  0.00    +0.045 A 
ATOM     29  S   UNL     1       5.947   1.190   3.735  0.00  0.00    -0.103 S 
ENDBRANCH  18  25
ENDBRANCH  17  18
ENDBRANCH   5  17
TORSDOF 7
