REMARK  Name = ZINC43020731
REMARK  8 active torsions:
REMARK  status: ('A' for Active; 'I' for Inactive)
REMARK    1  A    between atoms: C_1  and  C_2
REMARK    2  A    between atoms: C_2  and  C_4
REMARK    3  A    between atoms: C_2  and  N_22
REMARK    4  A    between atoms: C_4  and  C_6
REMARK    5  A    between atoms: C_4  and  N_13
REMARK    6  A    between atoms: N_16  and  C_19
REMARK    7  A    between atoms: C_19  and  C_20
REMARK    8  A    between atoms: C_20  and  O_21
REMARK                            x       y       z     vdW  Elec       q    Type
REMARK                         _______ _______ _______ _____ _____    ______ ____
ROOT
ATOM      1  C   UNL     1       0.667  -0.612   1.238  0.00  0.00    +0.072 C 
ENDROOT
BRANCH   1   2
ATOM      2  C   UNL     1       0.824  -2.110   1.193  0.00  0.00    -0.031 A 
ATOM      3  C   UNL     1      -0.232  -2.927   1.554  0.00  0.00    +0.005 A 
ATOM      4  C   UNL     1      -0.089  -4.301   1.513  0.00  0.00    +0.001 A 
ATOM      5  C   UNL     1       1.110  -4.859   1.111  0.00  0.00    +0.015 A 
ATOM      6  C   UNL     1       2.166  -4.043   0.749  0.00  0.00    +0.018 A 
ATOM      7  C   UNL     1       2.021  -2.668   0.786  0.00  0.00    +0.020 A 
ATOM      8 BR   UNL     1       3.806  -4.807   0.200  0.00  0.00    -0.050 Br
ENDBRANCH   1   2
BRANCH   1   9
ATOM      9  N   UNL     1      -0.092  -0.235   2.438  0.00  0.00    -0.295 NA
ATOM     10  C   UNL     1      -0.315   1.217   2.486  0.00  0.00    +0.100 C 
ATOM     11  C   UNL     1      -1.175   1.559   3.705  0.00  0.00    +0.100 C 
ATOM     12  N   UNL     1      -0.500   1.092   4.924  0.00  0.00    -0.298 NA
ATOM     13  C   UNL     1      -0.277  -0.360   4.876  0.00  0.00    +0.100 C 
ATOM     14  C   UNL     1       0.583  -0.702   3.657  0.00  0.00    +0.100 C 
BRANCH  12  15
ATOM     15  C   UNL     1      -1.259   1.469   6.124  0.00  0.00    +0.112 C 
BRANCH  15  16
ATOM     16  C   UNL     1      -0.415   1.192   7.369  0.00  0.00    +0.171 C 
BRANCH  16  17
ATOM     17  O   UNL     1       0.733   2.043   7.366  0.00  0.00    -0.394 OA
ATOM     18  H   UNL     1       1.315   1.922   8.128  0.00  0.00    +0.209 HD
ENDBRANCH  16  17
ENDBRANCH  15  16
ENDBRANCH  12  15
ENDBRANCH   1   9
BRANCH   1  20
ATOM     19  C   UNL     1       0.699  -0.549  -1.259  0.00  0.00    -0.012 C 
ATOM     20  C   UNL     1      -0.082  -0.140  -0.009  0.00  0.00    -0.056 C 
BRANCH  20  21
ATOM     21  N   UNL     1      -1.416  -0.755  -0.041  0.00  0.00    +0.381 N 
ATOM     22  H   UNL     1      -1.931  -0.485   0.783  0.00  0.00    -0.090 HD
ATOM     23  H   UNL     1      -1.910  -0.443  -0.864  0.00  0.00    -0.090 HD
ATOM     24  H   UNL     1      -1.323  -1.759  -0.065  0.00  0.00    -0.090 HD
ENDBRANCH  20  21
ENDBRANCH   1  20
TORSDOF 7
