REMARK  Name = ZINC19688065
REMARK  6 active torsions:
REMARK  status: ('A' for Active; 'I' for Inactive)
REMARK    1  A    between atoms: C_6  and  C_8
REMARK    2  A    between atoms: C_8  and  N_9
REMARK    3  A    between atoms: C_15  and  C_17
REMARK    4  A    between atoms: C_17  and  C_18
REMARK    5  A    between atoms: C_18  and  C_19
REMARK    6  A    between atoms: C_19  and  N_20
REMARK                            x       y       z     vdW  Elec       q    Type
REMARK                         _______ _______ _______ _____ _____    ______ ____
ROOT
ATOM      1  N   UNL     1       5.273   2.136  -2.256  0.00  0.00    +0.387 N 
ATOM      2  C   UNL     1       6.173   1.105  -1.722  0.00  0.00    -0.059 C 
ATOM      3  C   UNL     1       7.335   0.890  -2.698  0.00  0.00    +0.089 C 
ATOM      4  N   UNL     1       7.968   2.191  -2.965  0.00  0.00    -0.305 N 
ATOM      5  C   UNL     1       7.108   3.312  -3.372  0.00  0.00    +0.089 C 
ATOM      6  C   UNL     1       5.956   3.432  -2.370  0.00  0.00    -0.059 C 
ATOM      7  C   UNL     1       9.300   2.350  -2.839  0.00  0.00    +0.215 C 
ATOM      8  O   UNL     1       9.805   3.429  -3.063  0.00  0.00    -0.276 OA
ATOM      9  H   UNL     1       4.973   1.826  -3.268  0.00  0.00    -0.081 HD
ENDROOT
BRANCH   1  10
ATOM     10  C   UNL     1       4.059   2.250  -1.437  0.00  0.00    +0.019 C 
BRANCH  10  16
ATOM     11  C   UNL     1      -0.019   1.547   0.011  0.00  0.00    +0.020 C 
ATOM     12  C   UNL     1       0.002  -0.004   0.002  0.00  0.00    +0.020 C 
ATOM     13  C   UNL     1       1.223  -0.328  -0.885  0.00  0.00    +0.108 C 
ATOM     14  N   UNL     1       2.098   0.853  -0.871  0.00  0.00    -0.303 N 
ATOM     15  C   UNL     1       1.494   1.879  -0.002  0.00  0.00    +0.108 C 
ATOM     16  C   UNL     1       3.260   0.977  -1.543  0.00  0.00    +0.199 C 
ATOM     17  O   UNL     1       3.662   0.064  -2.233  0.00  0.00    -0.278 OA
ENDBRANCH  10  16
ENDBRANCH   1  10
BRANCH   7  18
ATOM     18  C   UNL     1      10.162   1.187  -2.420  0.00  0.00    +0.094 C 
BRANCH  18  19
ATOM     19  C   UNL     1      11.624   1.633  -2.355  0.00  0.00    -0.010 C 
BRANCH  19  20
ATOM     20  C   UNL     1      12.499   0.452  -1.929  0.00  0.00    -0.086 C 
BRANCH  20  21
ATOM     21  N   UNL     1      13.903   0.881  -1.866  0.00  0.00    +0.378 N 
ATOM     22  H   UNL     1      14.532   0.032  -1.561  0.00  0.00    -0.090 HD
ATOM     23  H   UNL     1      14.005   1.695  -1.134  0.00  0.00    -0.090 HD
ATOM     24  H   UNL     1      14.222   1.236  -2.857  0.00  0.00    -0.090 HD
ENDBRANCH  20  21
ENDBRANCH  19  20
ENDBRANCH  18  19
ENDBRANCH   7  18
TORSDOF 6
