REMARK  Name = ZINC40527285
REMARK  11 active torsions:
REMARK  status: ('A' for Active; 'I' for Inactive)
REMARK    1  A    between atoms: C_1  and  C_2
REMARK    2  A    between atoms: C_2  and  O_3
REMARK    3  A    between atoms: O_3  and  C_4
REMARK    4  A    between atoms: C_4  and  C_6
REMARK    5  A    between atoms: C_7  and  C_28
REMARK    6  A    between atoms: C_10  and  N_11
REMARK    7  A    between atoms: C_12  and  C_14
REMARK    8  A    between atoms: C_16  and  C_20
REMARK    9  A    between atoms: C_24  and  C_27
REMARK   10  A    between atoms: C_25  and  O_26
REMARK   11  A    between atoms: C_31  and  C_34
REMARK                            x       y       z     vdW  Elec       q    Type
REMARK                         _______ _______ _______ _____ _____    ______ ____
ROOT
ATOM      1  N   UNL     1      -0.595  -2.458  -3.930  0.00  0.00    -0.274 N 
ATOM      2  C   UNL     1      -1.107  -2.787  -5.133  0.00  0.00    +0.266 C 
ATOM      3  O   UNL     1      -0.380  -3.231  -6.002  0.00  0.00    -0.268 OA
ATOM      4  H   UNL     1      -1.175  -2.105  -3.237  0.00  0.00    +0.156 HD
ENDROOT
BRANCH   2   5
ATOM      5  C   UNL     1      -2.543  -2.609  -5.395  0.00  0.00    +0.121 A 
ATOM      6  C   UNL     1      -3.213  -2.903  -6.568  0.00  0.00    +0.062 A 
ATOM      7  C   UNL     1      -4.556  -2.562  -6.324  0.00  0.00    +0.097 A 
ATOM      8  N   UNL     1      -4.632  -2.105  -5.092  0.00  0.00    -0.173 NA
ATOM      9  N   UNL     1      -3.480  -2.126  -4.525  0.00  0.00    -0.272 N 
ATOM     10  H   UNL     1      -3.301  -1.839  -3.616  0.00  0.00    +0.189 HD
BRANCH   7  11
ATOM     11  C   UNL     1      -5.681  -2.692  -7.283  0.00  0.00    +0.044 A 
ATOM     12  C   UNL     1      -5.457  -3.199  -8.560  0.00  0.00    +0.014 A 
ATOM     13  C   UNL     1      -6.507  -3.318  -9.448  0.00  0.00    +0.001 A 
ATOM     14  C   UNL     1      -7.783  -2.936  -9.073  0.00  0.00    +0.007 A 
ATOM     15  C   UNL     1      -8.017  -2.432  -7.808  0.00  0.00    -0.008 A 
ATOM     16  C   UNL     1      -6.972  -2.312  -6.905  0.00  0.00    +0.129 A 
ATOM     17  C   UNL     1      -9.409  -2.018  -7.407  0.00  0.00    +0.047 C 
BRANCH  16  18
ATOM     18  O   UNL     1      -7.201  -1.821  -5.659  0.00  0.00    -0.506 OA
ATOM     19  H   UNL     1      -7.113  -0.861  -5.592  0.00  0.00    +0.292 HD
ENDBRANCH  16  18
ENDBRANCH   7  11
ENDBRANCH   2   5
BRANCH   1  24
ATOM     20  C   UNL     1       1.448  -2.344  -2.515  0.00  0.00    +0.095 A 
ATOM     21  C   UNL     1       2.874  -2.622  -2.522  0.00  0.00    +0.005 A 
ATOM     22  C   UNL     1       3.364  -3.124  -3.684  0.00  0.00    +0.056 A 
ATOM     23  S   UNL     1       1.927  -3.214  -4.730  0.00  0.00    -0.080 S 
ATOM     24  C   UNL     1       0.756  -2.626  -3.683  0.00  0.00    +0.087 A 
BRANCH  21  25
ATOM     25  C   UNL     1       3.735  -2.373  -1.341  0.00  0.00    -0.017 A 
ATOM     26  C   UNL     1       3.687  -1.143  -0.687  0.00  0.00    +0.009 A 
ATOM     27  C   UNL     1       4.491  -0.917   0.412  0.00  0.00    +0.004 A 
ATOM     28  C   UNL     1       5.343  -1.908   0.864  0.00  0.00    -0.050 A 
ATOM     29  C   UNL     1       5.395  -3.131   0.219  0.00  0.00    +0.004 A 
ATOM     30  C   UNL     1       4.591  -3.370  -0.877  0.00  0.00    +0.009 A 
ATOM     31  C   UNL     1       6.219  -1.655   2.064  0.00  0.00    +0.044 C 
ENDBRANCH  21  25
BRANCH  20  32
ATOM     32  C   UNL     1       0.776  -1.800  -1.335  0.00  0.00    +0.342 C 
ATOM     33  O   UNL     1       0.312  -2.552  -0.499  0.00  0.00    -0.245 OA
BRANCH  32  34
ATOM     34  O   UNL     1       0.671  -0.465  -1.174  0.00  0.00    -0.461 OA
BRANCH  34  36
ATOM     35  C   UNL     1      -0.019   1.526   0.010  0.00  0.00    +0.048 C 
ATOM     36  C   UNL     1       0.002  -0.004   0.002  0.00  0.00    +0.229 C 
ENDBRANCH  34  36
ENDBRANCH  32  34
ENDBRANCH  20  32
ENDBRANCH   1  24
TORSDOF 8
