REMARK  Name = ZINC01812703
REMARK  14 active torsions:
REMARK  status: ('A' for Active; 'I' for Inactive)
REMARK    1  A    between atoms: C_1  and  C_2
REMARK    2  A    between atoms: C_2  and  C_4
REMARK    3  A    between atoms: C_4  and  O_44
REMARK    4  A    between atoms: C_9  and  C_43
REMARK    5  A    between atoms: C_20  and  N_25
REMARK    6  A    between atoms: C_23  and  C_24
REMARK    7  A    between atoms: N_25  and  O_26
REMARK    8  A    between atoms: O_26  and  C_27
REMARK    9  A    between atoms: C_27  and  C_28
REMARK   10  A    between atoms: N_30  and  C_31
REMARK   11  A    between atoms: C_31  and  C_33
REMARK   12  A    between atoms: C_31  and  C_39
REMARK   13  A    between atoms: C_39  and  O_41
REMARK   14  A    between atoms: O_41  and  C_42
REMARK                            x       y       z     vdW  Elec       q    Type
REMARK                         _______ _______ _______ _____ _____    ______ ____
ROOT
ATOM      1  C   UNL     1      -0.206  -0.894  -1.331  0.00  0.00    +0.129 C 
ATOM      2  C   UNL     1      -1.565  -1.486  -1.754  0.00  0.00    +0.043 C 
ATOM      3  C   UNL     1      -1.436  -3.019  -1.620  0.00  0.00    +0.008 C 
ATOM      4  C   UNL     1       0.079  -3.300  -1.796  0.00  0.00    +0.002 C 
ATOM      5  C   UNL     1       0.740  -2.081  -1.147  0.00  0.00    +0.007 C 
ATOM      6  C   UNL     1       2.162  -1.833  -1.584  0.00  0.00    +0.010 C 
ATOM      7  C   UNL     1       2.334  -1.942  -3.098  0.00  0.00    +0.005 C 
ATOM      8  C   UNL     1       1.888  -3.343  -3.530  0.00  0.00    +0.003 C 
ATOM      9  C   UNL     1       0.388  -3.472  -3.278  0.00  0.00    -0.003 C 
ATOM     10  C   UNL     1      -0.407  -2.495  -4.136  0.00  0.00    +0.008 C 
ATOM     11  C   UNL     1      -0.147  -2.776  -5.624  0.00  0.00    +0.031 C 
ATOM     12  C   UNL     1       1.353  -2.692  -5.848  0.00  0.00    -0.061 C 
ATOM     13  C   UNL     1       1.810  -1.856  -6.761  0.00  0.00    +0.027 C 
ATOM     14  C   UNL     1       3.256  -1.729  -7.005  0.00  0.00    +0.057 C 
ATOM     15  C   UNL     1       4.114  -2.453  -6.298  0.00  0.00    +0.001 C 
ATOM     16  C   UNL     1       3.713  -3.420  -5.242  0.00  0.00    +0.040 C 
ATOM     17  C   UNL     1       2.232  -3.559  -5.003  0.00  0.00    -0.004 C 
ATOM     18  C   UNL     1       1.893  -5.013  -5.344  0.00  0.00    +0.016 C 
ATOM     19  C   UNL     1       0.802  -2.364   0.375  0.00  0.00    +0.015 C 
ENDROOT
BRANCH   1  21
ATOM     20  C   UNL     1       0.587   0.936   0.362  0.00  0.00    +0.089 C 
ATOM     21  C   UNL     1      -0.369  -0.167  -0.013  0.00  0.00    +0.162 C 
ATOM     22  O   UNL     1      -1.265  -0.471   0.737  0.00  0.00    -0.295 OA
ENDBRANCH   1  21
BRANCH  14  23
ATOM     23  N   UNL     1       3.724  -0.844  -7.978  0.00  0.00    -0.266 N 
ATOM     24  H   UNL     1       3.097  -0.313  -8.493  0.00  0.00    +0.194 HD
BRANCH  23  25
ATOM     25  O   UNL     1       5.116  -0.721  -8.212  0.00  0.00    -0.265 OA
BRANCH  25  26
ATOM     26  C   UNL     1       5.452   0.219  -9.234  0.00  0.00    +0.288 C 
BRANCH  26  27
ATOM     27  C   UNL     1       6.950   0.268  -9.398  0.00  0.00    +0.242 C 
ATOM     28  O   UNL     1       7.659  -0.434  -8.708  0.00  0.00    -0.273 OA
ATOM     29  N   UNL     1       7.501   1.091 -10.312  0.00  0.00    -0.297 N 
ATOM     30  H   UNL     1       6.934   1.652 -10.864  0.00  0.00    +0.150 HD
BRANCH  29  31
ATOM     31  C   UNL     1       8.956   1.138 -10.471  0.00  0.00    +0.213 C 
BRANCH  31  32
ATOM     32  C   UNL     1       9.294   1.602 -11.865  0.00  0.00    -0.017 A 
ATOM     33  C   UNL     1       8.562   2.617 -12.452  0.00  0.00    +0.006 A 
ATOM     34  C   UNL     1       8.872   3.043 -13.730  0.00  0.00    +0.000 A 
ATOM     35  C   UNL     1       9.914   2.454 -14.421  0.00  0.00    +0.000 A 
ATOM     36  C   UNL     1      10.647   1.440 -13.834  0.00  0.00    +0.000 A 
ATOM     37  C   UNL     1      10.340   1.017 -12.554  0.00  0.00    +0.006 A 
ENDBRANCH  31  32
BRANCH  31  38
ATOM     38  C   UNL     1       9.541   2.098  -9.467  0.00  0.00    +0.332 C 
ATOM     39  O   UNL     1       8.816   2.682  -8.697  0.00  0.00    -0.248 OA
BRANCH  38  40
ATOM     40  O   UNL     1      10.867   2.303  -9.428  0.00  0.00    -0.466 OA
ATOM     41  C   UNL     1      11.351   3.226  -8.450  0.00  0.00    +0.280 C 
ENDBRANCH  38  40
ENDBRANCH  31  38
ENDBRANCH  29  31
ENDBRANCH  26  27
ENDBRANCH  25  26
ENDBRANCH  23  25
ENDBRANCH  14  23
BRANCH   1  42
ATOM     42  O   UNL     1       0.279   0.017  -2.314  0.00  0.00    -0.381 OA
ATOM     43  H   UNL     1      -0.300   0.777  -2.465  0.00  0.00    +0.211 HD
ENDBRANCH   1  42
TORSDOF 10
