REMARK  Name = ZINC14554176
REMARK  6 active torsions:
REMARK  status: ('A' for Active; 'I' for Inactive)
REMARK    1  A    between atoms: C_1  and  N_49
REMARK    2  A    between atoms: C_7  and  C_9
REMARK    3  A    between atoms: C_13  and  N_15
REMARK    4  A    between atoms: C_16  and  C_18
REMARK    5  A    between atoms: C_18  and  O_19
REMARK    6  A    between atoms: O_19  and  C_20
REMARK                            x       y       z     vdW  Elec       q    Type
REMARK                         _______ _______ _______ _____ _____    ______ ____
ROOT
ATOM      1  C   UNL     1      -1.672   1.211   3.434  0.00  0.00    +0.039 A 
ATOM      2  C   UNL     1      -1.965   2.571   3.557  0.00  0.00    +0.013 A 
ATOM      3  C   UNL     1      -2.517   3.055   4.725  0.00  0.00    +0.003 A 
ATOM      4  C   UNL     1      -2.772   2.199   5.781  0.00  0.00    +0.023 A 
ATOM      5  C   UNL     1      -2.479   0.846   5.671  0.00  0.00    +0.034 A 
ATOM      6  C   UNL     1      -1.929   0.348   4.499  0.00  0.00    +0.036 A 
ENDROOT
BRANCH   1  13
ATOM      7  C   UNL     1      -3.618   1.515  -2.549  0.00  0.00    -0.096 C 
ATOM      8  C   UNL     1      -1.792   0.541  -1.293  0.00  0.00    -0.060 C 
ATOM      9  C   UNL     1      -0.723   0.846  -0.239  0.00  0.00    +0.089 C 
ATOM     10  N   UNL     1      -1.391   1.265   1.003  0.00  0.00    -0.301 N 
ATOM     11  C   UNL     1      -2.406   2.328   0.921  0.00  0.00    +0.089 C 
ATOM     12  C   UNL     1      -3.409   1.964  -0.179  0.00  0.00    -0.060 C 
ATOM     13  C   UNL     1      -1.085   0.689   2.182  0.00  0.00    +0.247 C 
ATOM     14  O   UNL     1      -0.326  -0.260   2.216  0.00  0.00    -0.270 OA
ATOM     15  N   UNL     1      -2.668   1.724  -1.436  0.00  0.00    +0.380 N 
ATOM     16  H   UNL     1      -2.088   2.545  -1.643  0.00  0.00    -0.082 HD
ENDBRANCH   1  13
BRANCH   5  17
ATOM     17  N   UNL     1      -2.739  -0.016   6.743  0.00  0.00    -0.283 N 
ATOM     18  C   UNL     1      -1.911  -1.050   6.992  0.00  0.00    +0.255 C 
ATOM     19  O   UNL     1      -0.990  -1.284   6.239  0.00  0.00    -0.272 OA
ATOM     20  H   UNL     1      -3.515   0.131   7.306  0.00  0.00    +0.155 HD
BRANCH  18  21
ATOM     21  C   UNL     1      -2.131  -1.915   8.206  0.00  0.00    +0.324 C 
BRANCH  21  22
ATOM     22  O   UNL     1      -1.131  -2.935   8.251  0.00  0.00    -0.482 OA
BRANCH  22  23
ATOM     23  C   UNL     1      -1.186  -3.808   9.292  0.00  0.00    +0.135 A 
ATOM     24  C   UNL     1      -2.182  -3.684  10.251  0.00  0.00    +0.048 A 
ATOM     25  C   UNL     1      -2.236  -4.571  11.308  0.00  0.00    +0.019 A 
ATOM     26  C   UNL     1      -1.299  -5.584  11.412  0.00  0.00    +0.019 A 
ATOM     27  C   UNL     1      -0.305  -5.709  10.458  0.00  0.00    +0.034 A 
ATOM     28  C   UNL     1      -0.250  -4.827   9.395  0.00  0.00    +0.061 A 
ATOM     29 BR   UNL     1       1.104  -5.004   8.087  0.00  0.00    -0.046 Br
ATOM     30 BR   UNL     1      -1.376  -6.797  12.860  0.00  0.00    -0.050 Br
ENDBRANCH  22  23
ENDBRANCH  21  22
ENDBRANCH  18  21
ENDBRANCH   5  17
TORSDOF 5
