REMARK  Name = ZINC20353265
REMARK  12 active torsions:
REMARK  status: ('A' for Active; 'I' for Inactive)
REMARK    1  A    between atoms: C_1  and  C_2
REMARK    2  A    between atoms: C_2  and  C_3
REMARK    3  A    between atoms: C_3  and  C_5
REMARK    4  A    between atoms: C_3  and  C_6
REMARK    5  A    between atoms: C_13  and  C_15
REMARK    6  A    between atoms: C_18  and  N_21
REMARK    7  A    between atoms: N_21  and  C_22
REMARK    8  A    between atoms: C_22  and  N_24
REMARK    9  A    between atoms: C_25  and  C_27
REMARK   10  A    between atoms: C_30  and  O_34
REMARK   11  A    between atoms: O_34  and  C_35
REMARK   12  A    between atoms: C_35  and  C_36
REMARK                            x       y       z     vdW  Elec       q    Type
REMARK                         _______ _______ _______ _____ _____    ______ ____
ROOT
ATOM      1  C   UNL     1       2.264   6.598   0.035  0.00  0.00    +0.037 A 
ATOM      2  C   UNL     1       1.560   7.774   0.302  0.00  0.00    +0.015 A 
ATOM      3  C   UNL     1       2.218   8.984   0.300  0.00  0.00    +0.024 A 
ATOM      4  C   UNL     1       3.579   9.037   0.021  0.00  0.00    +0.033 A 
ATOM      5  C   UNL     1       4.282   7.868  -0.251  0.00  0.00    +0.024 A 
ATOM      6  C   UNL     1       3.632   6.654  -0.245  0.00  0.00    +0.015 A 
ENDROOT
BRANCH   1  14
ATOM      7  C   UNL     1      -1.153   1.704   0.217  0.00  0.00    -0.042 A 
ATOM      8  C   UNL     1       0.033   1.056  -0.095  0.00  0.00    +0.007 A 
ATOM      9  C   UNL     1       1.200   1.773  -0.262  0.00  0.00    +0.049 A 
ATOM     10  C   UNL     1       1.191   3.151  -0.112  0.00  0.00    +0.156 A 
ATOM     11  C   UNL     1      -0.006   3.811   0.209  0.00  0.00    +0.110 A 
ATOM     12  C   UNL     1      -1.179   3.071   0.376  0.00  0.00    +0.035 A 
ATOM     13  N   UNL     1       0.288   5.134   0.291  0.00  0.00    -0.209 NA
ATOM     14  C   UNL     1       1.563   5.298   0.042  0.00  0.00    +0.228 A 
ATOM     15  O   UNL     1       2.141   4.108  -0.208  0.00  0.00    -0.435 OA
BRANCH   7  16
ATOM     16  C   UNL     1      -2.420   0.905   0.390  0.00  0.00    +0.016 C 
ATOM     17  C   UNL     1      -2.733   0.160  -0.908  0.00  0.00    +0.012 C 
BRANCH  16  19
ATOM     18  C   UNL     1      -3.559  -0.827   1.785  0.00  0.00    +0.004 C 
ATOM     19  C   UNL     1      -2.236  -0.103   1.526  0.00  0.00    +0.004 C 
ENDBRANCH  16  19
ENDBRANCH   7  16
ENDBRANCH   1  14
BRANCH   4  20
ATOM     20  N   UNL     1       4.242  10.265   0.014  0.00  0.00    -0.297 N 
ATOM     21  H   UNL     1       4.028  11.010   0.795  0.00  0.00    +0.154 HD
BRANCH  20  22
ATOM     22  C   UNL     1       5.144  10.539  -0.949  0.00  0.00    +0.141 C 
ATOM     23  S   UNL     1       5.375   9.442  -2.242  0.00  0.00    -0.018 S 
BRANCH  22  24
ATOM     24  N   UNL     1       5.865  11.677  -0.893  0.00  0.00    -0.264 N 
ATOM     25  C   UNL     1       6.767  11.951  -1.856  0.00  0.00    +0.250 C 
ATOM     26  O   UNL     1       6.931  11.171  -2.774  0.00  0.00    -0.270 OA
ATOM     27  H   UNL     1       5.716  12.382  -0.062  0.00  0.00    +0.157 HD
BRANCH  25  28
ATOM     28  C   UNL     1       7.556  13.196  -1.795  0.00  0.00    +0.039 A 
ATOM     29  C   UNL     1       7.365  14.096  -0.743  0.00  0.00    +0.017 A 
ATOM     30  C   UNL     1       8.107  15.254  -0.686  0.00  0.00    +0.048 A 
ATOM     31  C   UNL     1       9.037  15.536  -1.680  0.00  0.00    +0.139 A 
ATOM     32  C   UNL     1       9.227  14.646  -2.732  0.00  0.00    +0.083 A 
ATOM     33  C   UNL     1       8.492  13.482  -2.792  0.00  0.00    +0.036 A 
ATOM     34 CL   UNL     1      10.390  15.003  -3.970  0.00  0.00    -0.080 Cl
BRANCH  31  35
ATOM     35  O   UNL     1       9.762  16.682  -1.623  0.00  0.00    -0.491 OA
BRANCH  35  36
ATOM     36  C   UNL     1       9.517  17.550  -0.515  0.00  0.00    +0.226 C 
ATOM     37  C   UNL     1      10.420  18.780  -0.622  0.00  0.00    +0.048 C 
ENDBRANCH  35  36
ENDBRANCH  31  35
ENDBRANCH  25  28
ENDBRANCH  22  24
ENDBRANCH  20  22
ENDBRANCH   4  20
TORSDOF 9
