REMARK  Name = ZINC16033761
REMARK  5 active torsions:
REMARK  status: ('A' for Active; 'I' for Inactive)
REMARK    1  A    between atoms: C_1  and  C_2
REMARK    2  A    between atoms: C_17  and  C_20
REMARK    3  A    between atoms: C_20  and  C_21
REMARK    4  A    between atoms: N_26  and  C_29
REMARK    5  A    between atoms: C_29  and  C_30
REMARK                            x       y       z     vdW  Elec       q    Type
REMARK                         _______ _______ _______ _____ _____    ______ ____
ROOT
ATOM      1  C   UNL     1      -0.142   1.566  -0.017  0.00  0.00    +0.044 C 
ATOM      2  C   UNL     1      -0.120   0.059  -0.002  0.00  0.00    -0.049 A 
ATOM      3  C   UNL     1      -0.081  -0.646  -1.192  0.00  0.00    +0.011 A 
ATOM      4  C   UNL     1      -0.061  -2.022  -1.178  0.00  0.00    +0.005 A 
ATOM      5  C   UNL     1      -0.081  -2.719   0.026  0.00  0.00    +0.057 A 
ATOM      6  C   UNL     1      -0.120  -2.002   1.220  0.00  0.00    +0.063 A 
ATOM      7  C   UNL     1      -0.134  -0.622   1.201  0.00  0.00    +0.025 A 
ATOM      8 CL   UNL     1      -0.144  -2.847   2.737  0.00  0.00    -0.082 Cl
ATOM      9  N   UNL     1      -0.059  -4.096  -0.212  0.00  0.00    -0.282 N 
ATOM     10  C   UNL     1      -0.025  -4.383  -1.528  0.00  0.00    +0.243 C 
ATOM     11  O   UNL     1      -0.004  -5.488  -2.027  0.00  0.00    -0.273 OA
ATOM     12  C   UNL     1      -0.020  -3.067  -2.257  0.00  0.00    +0.136 C 
ATOM     13  C   UNL     1      -1.218  -2.946  -3.206  0.00  0.00    +0.122 C 
ATOM     14  C   UNL     1      -0.651  -3.324  -4.603  0.00  0.00    +0.107 C 
ATOM     15  C   UNL     1       0.839  -3.641  -4.352  0.00  0.00    +0.076 C 
ATOM     16  N   UNL     1       1.181  -2.927  -3.101  0.00  0.00    -0.295 NA
ATOM     17  C   UNL     1      -1.392  -4.597  -4.946  0.00  0.00    +0.227 C 
ATOM     18  O   UNL     1      -1.251  -5.236  -5.966  0.00  0.00    -0.275 OA
ATOM     19  N   UNL     1      -2.228  -4.907  -3.949  0.00  0.00    -0.237 N 
ATOM     20  C   UNL     1      -2.218  -4.040  -2.911  0.00  0.00    +0.229 C 
ATOM     21  O   UNL     1      -2.893  -4.120  -1.907  0.00  0.00    -0.275 OA
ATOM     22  H   UNL     1      -0.066  -4.767   0.489  0.00  0.00    +0.155 HD
ATOM     23  H   UNL     1       1.377  -1.956  -3.292  0.00  0.00    +0.124 HD
ENDROOT
BRANCH  15  24
ATOM     24  C   UNL     1       1.693  -3.144  -5.520  0.00  0.00    +0.115 C 
BRANCH  24  25
ATOM     25  C   UNL     1       3.124  -3.571  -5.314  0.00  0.00    +0.212 C 
ATOM     26  O   UNL     1       3.430  -4.209  -4.329  0.00  0.00    -0.276 OA
ATOM     27  N   UNL     1       4.063  -3.243  -6.224  0.00  0.00    -0.329 N 
ATOM     28  H   UNL     1       3.818  -2.733  -7.011  0.00  0.00    +0.145 HD
ATOM     29  H   UNL     1       4.984  -3.518  -6.091  0.00  0.00    +0.145 HD
ENDBRANCH  24  25
ENDBRANCH  15  24
BRANCH  19  30
ATOM     30  C   UNL     1      -3.094  -6.089  -3.979  0.00  0.00    +0.153 C 
BRANCH  30  31
ATOM     31  C   UNL     1      -2.313  -7.295  -3.524  0.00  0.00    -0.011 A 
ATOM     32  C   UNL     1      -1.711  -8.121  -4.455  0.00  0.00    +0.006 A 
ATOM     33  C   UNL     1      -0.995  -9.227  -4.037  0.00  0.00    +0.000 A 
ATOM     34  C   UNL     1      -0.880  -9.508  -2.688  0.00  0.00    +0.001 A 
ATOM     35  C   UNL     1      -1.482  -8.683  -1.757  0.00  0.00    +0.020 A 
ATOM     36  C   UNL     1      -2.194  -7.573  -2.174  0.00  0.00    +0.046 A 
ATOM     37 CL   UNL     1      -2.945  -6.533  -1.004  0.00  0.00    -0.083 Cl
ENDBRANCH  30  31
ENDBRANCH  19  30
TORSDOF 4
