REMARK  Name = ZINC63920258
REMARK  8 active torsions:
REMARK  status: ('A' for Active; 'I' for Inactive)
REMARK    1  A    between atoms: C_1  and  N_2
REMARK    2  A    between atoms: C_3  and  C_5
REMARK    3  A    between atoms: C_8  and  N_11
REMARK    4  A    between atoms: C_12  and  C_14
REMARK    5  A    between atoms: C_14  and  C_16
REMARK    6  A    between atoms: C_14  and  N_26
REMARK    7  A    between atoms: C_16  and  C_17
REMARK    8  A    between atoms: C_27  and  C_29
REMARK                            x       y       z     vdW  Elec       q    Type
REMARK                         _______ _______ _______ _____ _____    ______ ____
ROOT
ATOM      1  C   UNL     1       1.478  -8.487   1.850  0.00  0.00    +0.163 C 
ENDROOT
BRANCH   1   3
ATOM      2  N   UNL     1       0.681  -6.316   0.973  0.00  0.00    -0.284 N 
ATOM      3  C   UNL     1       1.364  -6.986   1.922  0.00  0.00    +0.238 C 
ATOM      4  O   UNL     1       1.887  -6.381   2.834  0.00  0.00    -0.273 OA
ATOM      5  H   UNL     1       0.199  -6.804   0.286  0.00  0.00    +0.155 HD
BRANCH   2   9
ATOM      6  C   UNL     1       0.640  -2.151   0.983  0.00  0.00    +0.037 A 
ATOM      7  C   UNL     1       1.776  -2.841   1.416  0.00  0.00    +0.015 A 
ATOM      8  C   UNL     1       1.786  -4.218   1.411  0.00  0.00    +0.024 A 
ATOM      9  C   UNL     1       0.667  -4.922   0.977  0.00  0.00    +0.033 A 
ATOM     10  C   UNL     1      -0.465  -4.238   0.545  0.00  0.00    +0.024 A 
ATOM     11  C   UNL     1      -0.484  -2.861   0.553  0.00  0.00    +0.015 A 
BRANCH   6  14
ATOM     12  C   UNL     1       1.696   1.473   1.407  0.00  0.00    +0.128 C 
ATOM     13  N   UNL     1       1.711   0.008   1.403  0.00  0.00    -0.314 N 
ATOM     14  C   UNL     1       0.626  -0.675   0.987  0.00  0.00    +0.244 C 
ATOM     15  O   UNL     1      -0.364  -0.076   0.615  0.00  0.00    -0.270 OA
ATOM     16  H   UNL     1       2.501  -0.470   1.700  0.00  0.00    +0.149 HD
ENDBRANCH   6  14
ENDBRANCH   2   9
ENDBRANCH   1   3
BRANCH   1  17
ATOM     17  N   UNL     1       2.614  -8.930   2.663  0.00  0.00    -0.299 N 
ATOM     18  C   UNL     1       2.641  -8.664   3.984  0.00  0.00    +0.251 C 
ATOM     19  O   UNL     1       1.722  -8.056   4.502  0.00  0.00    -0.270 OA
ATOM     20  H   UNL     1       3.346  -9.414   2.251  0.00  0.00    +0.150 HD
BRANCH  18  21
ATOM     21  C   UNL     1       3.777  -9.107   4.798  0.00  0.00    +0.074 A 
ATOM     22  C   UNL     1       3.995  -8.943   6.157  0.00  0.00    +0.021 A 
ATOM     23  C   UNL     1       5.166  -9.473   6.642  0.00  0.00    +0.008 A 
ATOM     24  C   UNL     1       6.008 -10.103   5.787  0.00  0.00    +0.046 A 
ATOM     25  S   UNL     1       5.234 -10.004   4.299  0.00  0.00    -0.092 S 
ENDBRANCH  18  21
ENDBRANCH   1  17
BRANCH   1  26
ATOM     26  C   UNL     1       0.192  -9.123   2.381  0.00  0.00    +0.065 C 
BRANCH  26  27
ATOM     27  C   UNL     1       0.256 -10.617   2.196  0.00  0.00    -0.039 C 
ATOM     28  C   UNL     1       0.651 -11.533   3.110  0.00  0.00    -0.001 A 
ATOM     29  C   UNL     1       1.123 -11.417   4.495  0.00  0.00    +0.010 A 
ATOM     30  C   UNL     1       1.455 -12.540   5.171  0.00  0.00    +0.001 A 
ATOM     31  C   UNL     1       1.360 -13.809   4.584  0.00  0.00    +0.002 A 
ATOM     32  C   UNL     1       0.935 -13.996   3.316  0.00  0.00    +0.026 A 
ATOM     33  C   UNL     1       0.560 -12.884   2.513  0.00  0.00    +0.043 A 
ATOM     34  N   UNL     1       0.125 -12.807   1.278  0.00  0.00    -0.380 N 
ATOM     35  C   UNL     1      -0.115 -11.396   0.955  0.00  0.00    +0.144 C 
ATOM     36  H   UNL     1      -0.019 -13.557   0.680  0.00  0.00    +0.160 HD
ENDBRANCH  26  27
ENDBRANCH   1  26
TORSDOF 7
