REMARK  Name = ZINC63303036
REMARK  11 active torsions:
REMARK  status: ('A' for Active; 'I' for Inactive)
REMARK    1  A    between atoms: C_1  and  O_2
REMARK    2  A    between atoms: O_2  and  C_3
REMARK    3  A    between atoms: C_6  and  C_9
REMARK    4  A    between atoms: C_13  and  C_35
REMARK    5  A    between atoms: N_21  and  C_22
REMARK    6  A    between atoms: C_22  and  C_23
REMARK    7  A    between atoms: C_23  and  C_24
REMARK    8  A    between atoms: C_27  and  O_33
REMARK    9  A    between atoms: O_33  and  C_34
REMARK   10  A    between atoms: C_39  and  O_41
REMARK   11  A    between atoms: O_41  and  C_42
REMARK                            x       y       z     vdW  Elec       q    Type
REMARK                         _______ _______ _______ _____ _____    ______ ____
ROOT
ATOM      1  C   UNL     1       2.304  -2.446  -4.116  0.00  0.00    +0.114 C 
ATOM      2  C   UNL     1       1.368  -3.038  -5.100  0.00  0.00    +0.077 C 
ATOM      3  C   UNL     1       0.510  -2.526  -6.200  0.00  0.00    +0.136 C 
ATOM      4  N   UNL     1       0.496  -3.740  -7.080  0.00  0.00    -0.305 N 
ATOM      5  N   UNL     1       1.557  -4.408  -6.944  0.00  0.00    -0.203 NA
ATOM      6  C   UNL     1       2.465  -3.686  -6.060  0.00  0.00    +0.218 C 
ATOM      7  C   UNL     1       3.243  -4.407  -4.997  0.00  0.00    +0.243 C 
ATOM      8  O   UNL     1       3.757  -5.501  -5.090  0.00  0.00    -0.273 OA
ATOM      9  N   UNL     1       3.257  -3.582  -3.900  0.00  0.00    -0.292 N 
ATOM     10  H   UNL     1      -0.232  -3.979  -7.675  0.00  0.00    +0.183 HD
ENDROOT
BRANCH   1  14
ATOM     11  C   UNL     1       0.283  -1.423  -0.493  0.00  0.00    +0.120 A 
ATOM     12  C   UNL     1       0.829  -0.426  -1.289  0.00  0.00    +0.046 A 
ATOM     13  C   UNL     1       1.482  -0.760  -2.460  0.00  0.00    +0.009 A 
ATOM     14  C   UNL     1       1.592  -2.085  -2.838  0.00  0.00    -0.026 A 
ATOM     15  C   UNL     1       1.048  -3.080  -2.047  0.00  0.00    +0.009 A 
ATOM     16  C   UNL     1       0.400  -2.752  -0.872  0.00  0.00    +0.046 A 
BRANCH  11  18
ATOM     17  C   UNL     1      -0.442   0.291   0.987  0.00  0.00    +0.277 C 
ATOM     18  O   UNL     1      -0.360  -1.098   0.660  0.00  0.00    -0.495 OA
ENDBRANCH  11  18
ENDBRANCH   1  14
BRANCH   3  19
ATOM     19  C   UNL     1      -0.872  -2.185  -5.708  0.00  0.00    -0.020 A 
ATOM     20  C   UNL     1      -1.805  -3.188  -5.519  0.00  0.00    +0.006 A 
ATOM     21  C   UNL     1      -3.075  -2.879  -5.067  0.00  0.00    +0.004 A 
ATOM     22  C   UNL     1      -3.414  -1.566  -4.803  0.00  0.00    +0.045 A 
ATOM     23  C   UNL     1      -2.480  -0.558  -4.992  0.00  0.00    +0.120 A 
ATOM     24  C   UNL     1      -1.205  -0.872  -5.440  0.00  0.00    +0.051 A 
BRANCH  23  25
ATOM     25  O   UNL     1      -2.812   0.734  -4.733  0.00  0.00    -0.495 OA
ATOM     26  C   UNL     1      -4.141   0.983  -4.270  0.00  0.00    +0.277 C 
ENDBRANCH  23  25
ENDBRANCH   3  19
BRANCH   9  27
ATOM     27  C   UNL     1       4.077  -3.782  -2.702  0.00  0.00    +0.113 C 
BRANCH  27  28
ATOM     28  C   UNL     1       5.465  -3.180  -2.927  0.00  0.00    +0.052 C 
BRANCH  28  29
ATOM     29  C   UNL     1       6.306  -3.380  -1.693  0.00  0.00    -0.040 C 
ATOM     30  C   UNL     1       7.181  -4.384  -1.458  0.00  0.00    +0.002 A 
ATOM     31  C   UNL     1       7.597  -5.546  -2.250  0.00  0.00    +0.055 A 
ATOM     32  C   UNL     1       8.516  -6.404  -1.744  0.00  0.00    +0.121 A 
ATOM     33  C   UNL     1       9.093  -6.222  -0.475  0.00  0.00    +0.047 A 
ATOM     34  C   UNL     1       8.774  -5.184   0.327  0.00  0.00    +0.029 A 
ATOM     35  C   UNL     1       7.790  -4.194  -0.122  0.00  0.00    +0.043 A 
ATOM     36  N   UNL     1       7.311  -3.116   0.447  0.00  0.00    -0.380 N 
ATOM     37  C   UNL     1       6.346  -2.494  -0.467  0.00  0.00    +0.144 C 
ATOM     38  H   UNL     1       7.555  -2.782   1.325  0.00  0.00    +0.160 HD
BRANCH  32  39
ATOM     39  O   UNL     1       8.892  -7.477  -2.489  0.00  0.00    -0.495 OA
ATOM     40  C   UNL     1       9.863  -8.355  -1.917  0.00  0.00    +0.277 C 
ENDBRANCH  32  39
ENDBRANCH  28  29
ENDBRANCH  27  28
ENDBRANCH   9  27
TORSDOF 8
