REMARK  Name = ZINC12483644
REMARK  12 active torsions:
REMARK  status: ('A' for Active; 'I' for Inactive)
REMARK    1  A    between atoms: C_1  and  C_2
REMARK    2  A    between atoms: C_2  and  N_3
REMARK    3  A    between atoms: N_3  and  C_4
REMARK    4  A    between atoms: N_3  and  C_6
REMARK    5  A    between atoms: C_4  and  C_5
REMARK    6  A    between atoms: C_8  and  O_30
REMARK    7  A    between atoms: C_10  and  N_19
REMARK    8  A    between atoms: N_19  and  C_20
REMARK    9  A    between atoms: C_20  and  C_21
REMARK   10  A    between atoms: C_24  and  N_27
REMARK   11  A    between atoms: N_27  and  C_28
REMARK   12  A    between atoms: N_27  and  C_29
REMARK                            x       y       z     vdW  Elec       q    Type
REMARK                         _______ _______ _______ _____ _____    ______ ____
ROOT
ATOM      1  C   UNL     1      -0.242  -0.036  -2.299  0.00  0.00    +0.140 C 
ATOM      2  C   UNL     1       0.408  -0.265  -3.668  0.00  0.00    +0.125 C 
ATOM      3  C   UNL     1       1.697   0.560  -3.760  0.00  0.00    -0.009 C 
ATOM      4  C   UNL     1       1.373   2.017  -3.390  0.00  0.00    +0.136 C 
ATOM      5  C   UNL     1       0.083   2.418  -4.143  0.00  0.00    +0.193 C 
ATOM      6  O   UNL     1      -0.991   2.073  -3.249  0.00  0.00    -0.347 OA
ATOM      7  C   UNL     1      -0.375   1.476  -2.057  0.00  0.00    +0.270 C 
ATOM      8  O   UNL     1       0.963   2.024  -2.000  0.00  0.00    -0.346 OA
ENDROOT
BRANCH   3   9
ATOM      9  N   UNL     1       2.696   0.021  -2.828  0.00  0.00    +0.387 N 
ATOM     10  H   UNL     1       2.351   0.101  -1.883  0.00  0.00    -0.085 HD
ATOM     11  H   UNL     1       2.866  -0.951  -3.042  0.00  0.00    -0.085 HD
BRANCH   9  12
ATOM     12  C   UNL     1       3.947   0.778  -2.959  0.00  0.00    -0.046 C 
BRANCH  12  13
ATOM     13  C   UNL     1       4.972   0.225  -2.002  0.00  0.00    -0.064 A 
ATOM     14  C   UNL     1       5.063   0.733  -0.719  0.00  0.00    +0.003 A 
ATOM     15  C   UNL     1       6.000   0.228   0.160  0.00  0.00    +0.023 A 
ATOM     16  C   UNL     1       6.853  -0.791  -0.245  0.00  0.00    +0.029 A 
ATOM     17  C   UNL     1       6.759  -1.299  -1.535  0.00  0.00    +0.023 A 
ATOM     18  C   UNL     1       5.815  -0.794  -2.407  0.00  0.00    +0.003 A 
BRANCH  16  19
ATOM     19  N   UNL     1       7.803  -1.304   0.641  0.00  0.00    -0.336 N 
ATOM     20  C   UNL     1       7.901  -0.766   2.001  0.00  0.00    +0.129 C 
ATOM     21  C   UNL     1       8.701  -2.378   0.212  0.00  0.00    +0.129 C 
ENDBRANCH  16  19
ENDBRANCH  12  13
ENDBRANCH   9  12
ENDBRANCH   3   9
BRANCH   2  22
ATOM     22  O   UNL     1      -0.494   0.142  -4.699  0.00  0.00    -0.392 OA
ATOM     23  H   UNL     1      -1.334  -0.338  -4.699  0.00  0.00    +0.210 HD
ENDBRANCH   2  22
BRANCH   1  24
ATOM     24  N   UNL     1       0.596  -0.631  -1.250  0.00  0.00    -0.293 NA
BRANCH  24  26
ATOM     25  C   UNL     1      -0.403   0.571   0.635  0.00  0.00    +0.020 C 
ATOM     26  C   UNL     1      -0.162  -0.798  -0.003  0.00  0.00    +0.081 C 
ENDBRANCH  24  26
BRANCH  24  27
ATOM     27  C   UNL     1       1.167  -1.909  -1.695  0.00  0.00    +0.081 C 
ATOM     28  C   UNL     1       2.206  -2.385  -0.677  0.00  0.00    +0.020 C 
ENDBRANCH  24  27
ENDBRANCH   1  24
TORSDOF 8
