REMARK  Name = ZINC64044169
REMARK  8 active torsions:
REMARK  status: ('A' for Active; 'I' for Inactive)
REMARK    1  A    between atoms: C_1  and  N_2
REMARK    2  A    between atoms: N_2  and  C_3
REMARK    3  A    between atoms: C_3  and  C_4
REMARK    4  A    between atoms: C_13  and  C_15
REMARK    5  A    between atoms: C_18  and  S_29
REMARK    6  A    between atoms: N_21  and  C_22
REMARK    7  A    between atoms: C_22  and  C_23
REMARK    8  A    between atoms: S_29  and  C_30
REMARK                            x       y       z     vdW  Elec       q    Type
REMARK                         _______ _______ _______ _____ _____    ______ ____
ROOT
ATOM      1  C   UNL     1      -0.023   0.089  -2.470  0.00  0.00    +0.145 C 
ATOM      2  C   UNL     1      -1.311   0.927  -2.565  0.00  0.00    +0.044 C 
ATOM      3  C   UNL     1      -2.030   0.418  -3.836  0.00  0.00    +0.066 C 
ATOM      4  C   UNL     1      -0.880  -0.224  -4.651  0.00  0.00    +0.100 C 
ATOM      5  N   UNL     1      -0.030  -0.857  -3.606  0.00  0.00    -0.285 NA
ENDROOT
BRANCH   1   8
ATOM      6  C   UNL     1      -0.018   1.461   0.010  0.00  0.00    +0.132 C 
ATOM      7  N   UNL     1       0.002  -0.004   0.002  0.00  0.00    -0.298 N 
ATOM      8  C   UNL     1       0.000  -0.672  -1.169  0.00  0.00    +0.233 C 
ATOM      9  O   UNL     1       0.017  -1.884  -1.175  0.00  0.00    -0.274 OA
BRANCH   7  10
ATOM     10  C   UNL     1       0.024  -0.743   1.267  0.00  0.00    +0.149 C 
BRANCH  10  11
ATOM     11  C   UNL     1      -1.389  -1.016   1.714  0.00  0.00    +0.008 A 
ATOM     12  C   UNL     1      -2.158  -2.078   1.433  0.00  0.00    +0.021 A 
ATOM     13  C   UNL     1      -3.508  -2.143   1.973  0.00  0.00    -0.011 A 
ATOM     14  C   UNL     1      -4.481  -3.157   1.806  0.00  0.00    +0.009 A 
ATOM     15  C   UNL     1      -5.704  -3.050   2.390  0.00  0.00    +0.001 A 
ATOM     16  C   UNL     1      -6.043  -1.950   3.166  0.00  0.00    +0.001 A 
ATOM     17  C   UNL     1      -5.122  -0.939   3.353  0.00  0.00    +0.015 A 
ATOM     18  C   UNL     1      -3.878  -1.036   2.767  0.00  0.00    +0.020 A 
ATOM     19  S   UNL     1      -2.433  -0.007   2.748  0.00  0.00    -0.092 S 
ENDBRANCH  10  11
ENDBRANCH   7  10
ENDBRANCH   1   8
BRANCH   5  20
ATOM     20  C   UNL     1       1.332  -1.096  -4.102  0.00  0.00    +0.140 C 
BRANCH  20  21
ATOM     21  C   UNL     1       1.316  -2.238  -5.085  0.00  0.00    +0.055 A 
ATOM     22  C   UNL     1       1.227  -1.973  -6.439  0.00  0.00    +0.024 A 
ATOM     23  C   UNL     1       1.214  -3.030  -7.335  0.00  0.00    +0.003 A 
ATOM     24  C   UNL     1       1.290  -4.321  -6.834  0.00  0.00    +0.020 A 
ATOM     25  C   UNL     1       1.376  -4.509  -5.467  0.00  0.00    +0.111 A 
ATOM     26  N   UNL     1       1.392  -3.478  -4.645  0.00  0.00    -0.259 NA
ENDBRANCH  20  21
ENDBRANCH   5  20
BRANCH   3  27
ATOM     27  S   UNL     1      -2.776   1.798  -4.747  0.00  0.00    -0.110 S 
BRANCH  27  28
ATOM     28  C   UNL     1      -3.685   0.994  -6.095  0.00  0.00    +0.236 C 
ATOM     29  N   UNL     1      -2.774   0.162  -6.891  0.00  0.00    -0.355 N 
ATOM     30  C   UNL     1      -3.201  -1.065  -6.817  0.00  0.00    +0.061 A 
ATOM     31  C   UNL     1      -2.717  -2.328  -7.392  0.00  0.00    +0.027 A 
ATOM     32  C   UNL     1      -3.381  -3.473  -7.136  0.00  0.00    +0.002 A 
ATOM     33  C   UNL     1      -4.535  -3.517  -6.333  0.00  0.00    +0.002 A 
ATOM     34  C   UNL     1      -5.062  -2.418  -5.758  0.00  0.00    +0.027 A 
ATOM     35  C   UNL     1      -4.422  -1.112  -5.966  0.00  0.00    +0.061 A 
ATOM     36  N   UNL     1      -4.702   0.088  -5.547  0.00  0.00    -0.355 N 
ATOM     37  H   UNL     1      -1.996   0.470  -7.382  0.00  0.00    +0.162 HD
ATOM     38  H   UNL     1      -5.445   0.337  -4.976  0.00  0.00    +0.162 HD
ENDBRANCH  27  28
ENDBRANCH   3  27
TORSDOF 7
