REMARK  Name = ZINC67457263
REMARK  7 active torsions:
REMARK  status: ('A' for Active; 'I' for Inactive)
REMARK    1  A    between atoms: C_3  and  C_10
REMARK    2  A    between atoms: C_5  and  C_7
REMARK    3  A    between atoms: C_10  and  N_11
REMARK    4  A    between atoms: N_14  and  C_15
REMARK    5  A    between atoms: C_15  and  C_16
REMARK    6  A    between atoms: N_21  and  C_22
REMARK    7  A    between atoms: C_22  and  C_23
REMARK                            x       y       z     vdW  Elec       q    Type
REMARK                         _______ _______ _______ _____ _____    ______ ____
ROOT
ATOM      1  N   UNL     1       4.101   2.449   1.357  0.00  0.00    -0.295 N 
ATOM      2  C   UNL     1       5.236   3.136   1.597  0.00  0.00    +0.300 C 
ATOM      3  O   UNL     1       5.902   3.551   0.668  0.00  0.00    -0.253 OA
ATOM      4  N   UNL     1       5.632   3.362   2.865  0.00  0.00    -0.301 N 
ATOM      5  H   UNL     1       3.570   2.118   2.098  0.00  0.00    +0.151 HD
ATOM      6  H   UNL     1       5.100   3.031   3.605  0.00  0.00    +0.150 HD
ENDROOT
BRANCH   1   7
ATOM      7  C   UNL     1       3.671   2.203  -0.021  0.00  0.00    +0.141 C 
BRANCH   7  10
ATOM      8  C   UNL     1      -0.017   1.375   0.010  0.00  0.00    +0.001 A 
ATOM      9  C   UNL     1       1.170   2.086   0.002  0.00  0.00    +0.005 A 
ATOM     10  C   UNL     1       2.383   1.420  -0.013  0.00  0.00    -0.030 A 
ATOM     11  C   UNL     1       2.416   0.041  -0.021  0.00  0.00    +0.018 A 
ATOM     12  C   UNL     1       1.222  -0.682  -0.014  0.00  0.00    +0.037 A 
ATOM     13  C   UNL     1       0.002  -0.004   0.002  0.00  0.00    +0.013 A 
BRANCH  12  14
ATOM     14  C   UNL     1       1.250  -2.161  -0.023  0.00  0.00    +0.242 C 
ATOM     15  O   UNL     1       2.313  -2.748  -0.037  0.00  0.00    -0.270 OA
ATOM     16  N   UNL     1       0.095  -2.856  -0.016  0.00  0.00    -0.325 N 
ATOM     17  H   UNL     1      -0.754  -2.387  -0.004  0.00  0.00    +0.145 HD
ATOM     18  H   UNL     1       0.113  -3.826  -0.022  0.00  0.00    +0.145 HD
ENDBRANCH  12  14
ENDBRANCH   7  10
ENDBRANCH   1   7
BRANCH   4  19
ATOM     19  C   UNL     1       6.865   4.109   3.125  0.00  0.00    +0.090 C 
BRANCH  19  20
ATOM     20  C   UNL     1       7.083   4.224   4.635  0.00  0.00    -0.051 C 
ATOM     21  C   UNL     1       8.460   4.859   4.920  0.00  0.00    -0.016 C 
ATOM     22  C   UNL     1       8.959   4.070   6.158  0.00  0.00    -0.020 C 
ATOM     23  C   UNL     1       8.406   2.652   5.870  0.00  0.00    -0.078 C 
ATOM     24  N   UNL     1       7.082   2.883   5.246  0.00  0.00    +0.383 N 
ATOM     25  H   UNL     1       6.915   2.186   4.535  0.00  0.00    -0.081 HD
BRANCH  24  26
ATOM     26  C   UNL     1       6.029   2.805   6.268  0.00  0.00    -0.075 C 
BRANCH  26  27
ATOM     27  C   UNL     1       5.949   1.377   6.811  0.00  0.00    -0.028 C 
ATOM     28  C   UNL     1       5.500   0.432   5.694  0.00  0.00    +0.002 C 
ATOM     29  C   UNL     1       5.419  -0.996   6.237  0.00  0.00    +0.000 C 
ATOM     30  C   UNL     1       4.412  -1.049   7.387  0.00  0.00    +0.000 C 
ATOM     31  C   UNL     1       4.861  -0.104   8.503  0.00  0.00    +0.000 C 
ATOM     32  C   UNL     1       4.941   1.325   7.960  0.00  0.00    +0.002 C 
ENDBRANCH  26  27
ENDBRANCH  24  26
ENDBRANCH  19  20
ENDBRANCH   4  19
TORSDOF 7
