REMARK  Name = ZINC61093632
REMARK  5 active torsions:
REMARK  status: ('A' for Active; 'I' for Inactive)
REMARK    1  A    between atoms: C_3  and  N_12
REMARK    2  A    between atoms: C_4  and  N_11
REMARK    3  A    between atoms: C_6  and  S_7
REMARK    4  A    between atoms: S_7  and  N_10
REMARK    5  A    between atoms: N_12  and  C_13
REMARK                            x       y       z     vdW  Elec       q    Type
REMARK                         _______ _______ _______ _____ _____    ______ ____
ROOT
ATOM      1  C   UNL     1      -0.042   1.509  -0.068  0.00  0.00    +0.030 A 
ATOM      2  C   UNL     1       1.171   2.158   0.081  0.00  0.00    +0.027 A 
ATOM      3  C   UNL     1       2.354   1.481  -0.171  0.00  0.00    +0.052 A 
ATOM      4  C   UNL     1       2.318   0.145  -0.573  0.00  0.00    +0.048 A 
ATOM      5  C   UNL     1       1.098  -0.497  -0.720  0.00  0.00    +0.053 A 
ATOM      6  C   UNL     1      -0.078   0.186  -0.467  0.00  0.00    +0.107 A 
ENDROOT
BRANCH   6   7
ATOM      7  S   UNL     1      -1.627  -0.633  -0.653  0.00  0.00    +0.056 S 
ATOM      8  O   UNL     1      -1.371  -2.023  -0.508  0.00  0.00    -0.153 OA
ATOM      9  O   UNL     1      -2.555   0.060   0.170  0.00  0.00    -0.153 OA
BRANCH   7  10
ATOM     10  N   UNL     1      -2.117  -0.403  -2.218  0.00  0.00    -0.204 NA
ATOM     11  H   UNL     1      -2.664  -1.072  -2.658  0.00  0.00    +0.144 HD
ATOM     12  H   UNL     1      -1.858   0.402  -2.694  0.00  0.00    +0.144 HD
ENDBRANCH   7  10
ENDBRANCH   6   7
BRANCH   4  13
ATOM     13  N   UNL     1       3.509  -0.544  -0.830  0.00  0.00    -0.356 N 
ATOM     14  H   UNL     1       4.362  -0.093  -0.727  0.00  0.00    +0.142 HD
ATOM     15  H   UNL     1       3.482  -1.472  -1.109  0.00  0.00    +0.142 HD
ENDBRANCH   4  13
BRANCH   3  16
ATOM     16  N   UNL     1       3.583   2.135  -0.021  0.00  0.00    -0.311 N 
ATOM     17  H   UNL     1       4.405   1.688  -0.277  0.00  0.00    +0.152 HD
BRANCH  16  18
ATOM     18  C   UNL     1       3.625   3.435   0.497  0.00  0.00    +0.070 A 
ATOM     19  C   UNL     1       2.843   3.771   1.594  0.00  0.00    +0.067 A 
ATOM     20  C   UNL     1       2.886   5.056   2.104  0.00  0.00    +0.160 A 
ATOM     21  C   UNL     1       3.709   6.008   1.522  0.00  0.00    +0.161 A 
ATOM     22  C   UNL     1       4.489   5.674   0.428  0.00  0.00    +0.081 A 
ATOM     23  C   UNL     1       4.454   4.389  -0.082  0.00  0.00    +0.147 A 
ATOM     24  F   UNL     1       5.221   4.062  -1.145  0.00  0.00    -0.203 F 
ATOM     25  F   UNL     1       3.749   7.262   2.022  0.00  0.00    -0.202 F 
ATOM     26  F   UNL     1       2.125   5.384   3.171  0.00  0.00    -0.202 F 
ENDBRANCH  16  18
ENDBRANCH   3  16
TORSDOF 5
