REMARK  Name = ZINC04749946
REMARK  8 active torsions:
REMARK  status: ('A' for Active; 'I' for Inactive)
REMARK    1  A    between atoms: C_4  and  C_7
REMARK    2  A    between atoms: C_7  and  C_8
REMARK    3  A    between atoms: C_8  and  N_51
REMARK    4  A    between atoms: N_11  and  C_14
REMARK    5  A    between atoms: C_14  and  N_16
REMARK    6  A    between atoms: N_16  and  C_17
REMARK    7  A    between atoms: C_20  and  S_23
REMARK    8  A    between atoms: S_23  and  N_26
REMARK                            x       y       z     vdW  Elec       q    Type
REMARK                         _______ _______ _______ _____ _____    ______ ____
ROOT
ATOM      1  C   UNL     1       1.169   1.639  -0.019  0.00  0.00    +0.137 C 
ATOM      2  S   UNL     1       1.156   3.348  -0.116  0.00  0.00    -0.018 S 
ENDROOT
BRANCH   1   5
ATOM      3  C   UNL     1       4.545   1.178  -1.001  0.00  0.00    -0.060 C 
ATOM      4  C   UNL     1       3.617   1.701   0.101  0.00  0.00    +0.088 C 
ATOM      5  N   UNL     1       2.341   0.975   0.021  0.00  0.00    -0.316 N 
ATOM      6  C   UNL     1       2.377  -0.495  -0.008  0.00  0.00    +0.088 C 
ATOM      7  C   UNL     1       3.353  -0.931  -1.111  0.00  0.00    -0.060 C 
ATOM      8  N   UNL     1       4.663  -0.290  -0.864  0.00  0.00    +0.382 N 
ATOM      9  H   UNL     1       4.968  -0.512   0.091  0.00  0.00    -0.082 HD
BRANCH   8  10
ATOM     10  C   UNL     1       5.665  -0.806  -1.820  0.00  0.00    -0.074 C 
BRANCH  10  11
ATOM     11  C   UNL     1       5.929  -2.280  -1.508  0.00  0.00    +0.016 C 
BRANCH  11  15
ATOM     12  C   UNL     1       8.872  -3.801  -4.205  0.00  0.00    +0.000 A 
ATOM     13  C   UNL     1       9.261  -3.239  -3.003  0.00  0.00    +0.000 A 
ATOM     14  C   UNL     1       8.308  -2.747  -2.131  0.00  0.00    +0.003 A 
ATOM     15  C   UNL     1       6.967  -2.817  -2.460  0.00  0.00    -0.049 A 
ATOM     16  C   UNL     1       6.579  -3.384  -3.659  0.00  0.00    +0.003 A 
ATOM     17  C   UNL     1       7.531  -3.872  -4.534  0.00  0.00    +0.000 A 
ENDBRANCH  11  15
ENDBRANCH  10  11
ENDBRANCH   8  10
ENDBRANCH   1   5
BRANCH   1  18
ATOM     18  N   UNL     1       0.006   0.958   0.017  0.00  0.00    -0.297 N 
ATOM     19  H   UNL     1      -0.545   0.897  -0.779  0.00  0.00    +0.154 HD
BRANCH  18  20
ATOM     20  C   UNL     1      -0.407   0.342   1.203  0.00  0.00    +0.033 A 
ATOM     21  C   UNL     1       0.315   0.532   2.374  0.00  0.00    +0.025 A 
ATOM     22  C   UNL     1      -0.100  -0.073   3.544  0.00  0.00    +0.030 A 
ATOM     23  C   UNL     1      -1.225  -0.876   3.549  0.00  0.00    +0.105 A 
ATOM     24  C   UNL     1      -1.943  -1.071   2.383  0.00  0.00    +0.030 A 
ATOM     25  C   UNL     1      -1.538  -0.465   1.210  0.00  0.00    +0.025 A 
BRANCH  23  26
ATOM     26  S   UNL     1      -1.746  -1.651   5.043  0.00  0.00    +0.056 S 
ATOM     27  O   UNL     1      -1.220  -0.873   6.109  0.00  0.00    -0.153 OA
ATOM     28  O   UNL     1      -3.136  -1.911   4.902  0.00  0.00    -0.153 OA
BRANCH  26  29
ATOM     29  N   UNL     1      -0.995  -3.125   5.117  0.00  0.00    -0.204 NA
ATOM     30  H   UNL     1      -0.397  -3.401   4.405  0.00  0.00    +0.144 HD
ATOM     31  H   UNL     1      -1.153  -3.712   5.873  0.00  0.00    +0.144 HD
ENDBRANCH  26  29
ENDBRANCH  23  26
ENDBRANCH  18  20
ENDBRANCH   1  18
TORSDOF 8
