REMARK  Name = ZINC38686579
REMARK  9 active torsions:
REMARK  status: ('A' for Active; 'I' for Inactive)
REMARK    1  A    between atoms: C_4  and  C_7
REMARK    2  A    between atoms: C_7  and  O_8
REMARK    3  A    between atoms: O_8  and  C_9
REMARK    4  A    between atoms: C_13  and  C_15
REMARK    5  A    between atoms: C_20  and  O_29
REMARK    6  A    between atoms: C_24  and  N_28
REMARK    7  A    between atoms: C_25  and  C_26
REMARK    8  A    between atoms: O_29  and  C_30
REMARK    9  A    between atoms: C_30  and  C_32
REMARK                            x       y       z     vdW  Elec       q    Type
REMARK                         _______ _______ _______ _____ _____    ______ ____
ROOT
ATOM      1  C   UNL     1       7.452  -2.840   4.325  0.00  0.00    +0.098 C 
ATOM      2  C   UNL     1       7.601  -4.330   4.490  0.00  0.00    +0.008 A 
ATOM      3  C   UNL     1       6.490  -5.095   4.798  0.00  0.00    +0.012 A 
ATOM      4  C   UNL     1       6.608  -6.461   4.954  0.00  0.00    +0.047 A 
ATOM      5  C   UNL     1       7.844  -7.073   4.801  0.00  0.00    +0.135 A 
ATOM      6  C   UNL     1       8.958  -6.310   4.492  0.00  0.00    +0.093 A 
ATOM      7  C   UNL     1       8.838  -4.935   4.335  0.00  0.00    +0.138 A 
ATOM      8  O   UNL     1       9.938  -4.202   4.033  0.00  0.00    -0.441 OA
ATOM      9  C   UNL     1       9.942  -2.877   4.255  0.00  0.00    +0.199 C 
ATOM     10  C   UNL     1       8.797  -2.175   4.400  0.00  0.00    +0.098 C 
ENDROOT
BRANCH   1  15
ATOM     11  C   UNL     1       5.040  -1.608   1.690  0.00  0.00    +0.121 A 
ATOM     12  C   UNL     1       5.677  -2.011   0.525  0.00  0.00    +0.045 A 
ATOM     13  C   UNL     1       6.884  -2.680   0.595  0.00  0.00    +0.004 A 
ATOM     14  C   UNL     1       7.457  -2.947   1.824  0.00  0.00    +0.005 A 
ATOM     15  C   UNL     1       6.824  -2.547   2.986  0.00  0.00    -0.031 A 
ATOM     16  C   UNL     1       5.620  -1.873   2.922  0.00  0.00    +0.050 A 
BRANCH  11  17
ATOM     17  O   UNL     1       3.853  -0.950   1.623  0.00  0.00    -0.487 OA
BRANCH  17  18
ATOM     18  C   UNL     1       3.315  -0.712   0.321  0.00  0.00    +0.264 C 
BRANCH  18  22
ATOM     19  C   UNL     1      -0.397   1.372   0.671  0.00  0.00    +0.000 A 
ATOM     20  C   UNL     1       0.785   2.080   0.566  0.00  0.00    +0.000 A 
ATOM     21  C   UNL     1       1.987   1.406   0.453  0.00  0.00    +0.007 A 
ATOM     22  C   UNL     1       2.005   0.023   0.446  0.00  0.00    -0.010 A 
ATOM     23  C   UNL     1       0.823  -0.684   0.551  0.00  0.00    +0.007 A 
ATOM     24  C   UNL     1      -0.379  -0.010   0.663  0.00  0.00    +0.000 A 
ENDBRANCH  18  22
ENDBRANCH  17  18
ENDBRANCH  11  17
ENDBRANCH   1  15
BRANCH   9  25
ATOM     25  N   UNL     1      11.144  -2.219   4.334  0.00  0.00    -0.328 N 
ATOM     26  H   UNL     1      11.974  -2.710   4.231  0.00  0.00    +0.145 HD
ATOM     27  H   UNL     1      11.163  -1.262   4.494  0.00  0.00    +0.145 HD
ENDBRANCH   9  25
BRANCH  10  28
ATOM     28  C   UNL     1       8.870  -0.764   4.633  0.00  0.00    +0.101 C 
ATOM     29  N   UNL     1       8.928   0.355   4.817  0.00  0.00    -0.191 NA
ENDBRANCH  10  28
BRANCH   5  30
ATOM     30  O   UNL     1       7.962  -8.418   4.955  0.00  0.00    -0.422 OA
BRANCH  30  31
ATOM     31  C   UNL     1       7.401  -9.213   4.023  0.00  0.00    +0.344 C 
ATOM     32  O   UNL     1       6.902  -8.725   3.029  0.00  0.00    -0.245 OA
BRANCH  31  33
ATOM     33  C   UNL     1       7.391 -10.678   4.211  0.00  0.00    +0.061 A 
ATOM     34  C   UNL     1       7.957 -11.242   5.356  0.00  0.00    +0.015 A 
ATOM     35  C   UNL     1       7.945 -12.611   5.525  0.00  0.00    +0.002 A 
ATOM     36  C   UNL     1       7.373 -13.426   4.564  0.00  0.00    +0.020 A 
ATOM     37  C   UNL     1       6.809 -12.874   3.426  0.00  0.00    +0.042 A 
ATOM     38  C   UNL     1       6.809 -11.504   3.247  0.00  0.00    +0.035 A 
ATOM     39 CL   UNL     1       6.094 -13.904   2.226  0.00  0.00    -0.084 Cl
ENDBRANCH  31  33
ENDBRANCH  30  31
ENDBRANCH   5  30
TORSDOF 9
