REMARK  Name = ZINC28402868
REMARK  7 active torsions:
REMARK  status: ('A' for Active; 'I' for Inactive)
REMARK    1  A    between atoms: C_1  and  C_2
REMARK    2  A    between atoms: C_2  and  C_3
REMARK    3  A    between atoms: C_6  and  C_9
REMARK    4  A    between atoms: C_9  and  C_11
REMARK    5  A    between atoms: C_9  and  N_27
REMARK    6  A    between atoms: C_11  and  N_12
REMARK    7  A    between atoms: C_13  and  C_15
REMARK                            x       y       z     vdW  Elec       q    Type
REMARK                         _______ _______ _______ _____ _____    ______ ____
ROOT
ATOM      1  C   UNL     1      -1.172   1.701   3.224  0.00  0.00    +0.094 C 
ENDROOT
BRANCH   1   2
ATOM      2  N   UNL     1      -1.055   3.146   3.006  0.00  0.00    -0.310 N 
ATOM      3  C   UNL     1      -1.961   3.984   3.546  0.00  0.00    +0.279 C 
ATOM      4  O   UNL     1      -2.875   3.542   4.214  0.00  0.00    -0.267 OA
ATOM      5  H   UNL     1      -0.228   3.546   2.401  0.00  0.00    +0.149 HD
BRANCH   3   6
ATOM      6  C   UNL     1      -1.843   5.445   3.326  0.00  0.00    +0.193 A 
ATOM      7  C   UNL     1      -2.769   6.263   3.882  0.00  0.00    +0.103 A 
ATOM      8  C   UNL     1      -2.653   7.713   3.664  0.00  0.00    +0.193 A 
ATOM      9  O   UNL     1      -3.456   8.496   4.139  0.00  0.00    -0.287 OA
ATOM     10  C   UNL     1      -1.517   8.174   2.843  0.00  0.00    +0.065 A 
ATOM     11  C   UNL     1      -1.317   9.529   2.577  0.00  0.00    +0.035 A 
ATOM     12  C   UNL     1      -0.245   9.919   1.805  0.00  0.00    +0.042 A 
ATOM     13  C   UNL     1       0.633   8.970   1.296  0.00  0.00    +0.023 A 
ATOM     14  C   UNL     1       0.446   7.629   1.551  0.00  0.00    +0.048 A 
ATOM     15  C   UNL     1      -0.631   7.213   2.328  0.00  0.00    +0.140 A 
ATOM     16  O   UNL     1      -0.822   5.905   2.590  0.00  0.00    -0.450 OA
ATOM     17 CL   UNL     1       0.012  11.603   1.468  0.00  0.00    -0.084 Cl
ENDBRANCH   3   6
ENDBRANCH   1   2
BRANCH   1  18
ATOM     18  C   UNL     1      -0.089   0.976   2.422  0.00  0.00    -0.020 C 
BRANCH  18  19
ATOM     19  N   UNL     1      -0.177   1.372   1.010  0.00  0.00    +0.385 N 
ATOM     20  C   UNL     1      -1.558   1.706   0.642  0.00  0.00    -0.078 C 
ATOM     21  C   UNL     1      -1.589   2.252  -0.787  0.00  0.00    -0.019 C 
ATOM     22  C   UNL     1      -1.028   1.196  -1.744  0.00  0.00    -0.004 C 
ATOM     23  C   UNL     1       0.395   0.831  -1.309  0.00  0.00    -0.019 C 
ATOM     24  C   UNL     1       0.368   0.326   0.135  0.00  0.00    -0.078 C 
ATOM     25  H   UNL     1       0.435   2.276   0.873  0.00  0.00    -0.081 HD
ENDBRANCH  18  19
BRANCH  18  29
ATOM     26  C   UNL     1      -0.660  -3.244   2.755  0.00  0.00    -0.048 A 
ATOM     27  C   UNL     1       0.524  -2.671   3.180  0.00  0.00    +0.004 A 
ATOM     28  C   UNL     1       0.709  -1.306   3.072  0.00  0.00    +0.002 A 
ATOM     29  C   UNL     1      -0.290  -0.513   2.539  0.00  0.00    -0.059 A 
ATOM     30  C   UNL     1      -1.476  -1.085   2.119  0.00  0.00    +0.002 A 
ATOM     31  C   UNL     1      -1.659  -2.452   2.222  0.00  0.00    +0.004 A 
BRANCH  26  33
ATOM     32  C   UNL     1      -1.490  -5.057   4.230  0.00  0.00    +0.009 C 
ATOM     33  C   UNL     1      -0.862  -4.733   2.873  0.00  0.00    +0.032 C 
ENDBRANCH  26  33
ENDBRANCH  18  29
ENDBRANCH   1  18
TORSDOF 6
