REMARK  Name = ZINC39361315
REMARK  3 active torsions:
REMARK  status: ('A' for Active; 'I' for Inactive)
REMARK    1  A    between atoms: C_4  and  N_7
REMARK    2  A    between atoms: C_11  and  N_15
REMARK    3  A    between atoms: C_19  and  C_20
REMARK                            x       y       z     vdW  Elec       q    Type
REMARK                         _______ _______ _______ _____ _____    ______ ____
ROOT
ATOM      1  N   UNL     1       5.431  -3.243  -1.164  0.00  0.00    -0.243 N 
ATOM      2  C   UNL     1       5.995  -4.425  -0.985  0.00  0.00    +0.259 C 
ATOM      3  O   UNL     1       6.301  -4.829   0.120  0.00  0.00    -0.269 OA
ATOM      4  C   UNL     1       6.234  -5.234  -2.208  0.00  0.00    +0.077 C 
ATOM      5  C   UNL     1       6.797  -6.488  -2.338  0.00  0.00    +0.026 C 
ATOM      6  S   UNL     1       5.592  -4.137  -3.464  0.00  0.00    -0.061 S 
ATOM      7  C   UNL     1       5.088  -2.802  -2.391  0.00  0.00    +0.121 C 
ATOM      8  S   UNL     1       4.350  -1.317  -2.817  0.00  0.00    -0.027 S 
ENDROOT
BRANCH   5   9
ATOM      9  C   UNL     1       6.926  -7.068  -3.602  0.00  0.00    -0.018 C 
ATOM     10  C   UNL     1       7.462  -8.319  -3.905  0.00  0.00    +0.003 A 
ATOM     11  C   UNL     1       8.013  -9.341  -3.104  0.00  0.00    +0.010 A 
ATOM     12  C   UNL     1       8.469 -10.480  -3.684  0.00  0.00    +0.001 A 
ATOM     13  C   UNL     1       8.410 -10.672  -5.068  0.00  0.00    +0.002 A 
ATOM     14  C   UNL     1       7.896  -9.736  -5.899  0.00  0.00    +0.026 A 
ATOM     15  C   UNL     1       7.397  -8.516  -5.365  0.00  0.00    +0.043 A 
ATOM     16  N   UNL     1       6.859  -7.467  -5.947  0.00  0.00    -0.380 N 
ATOM     17  C   UNL     1       6.508  -6.473  -4.928  0.00  0.00    +0.149 C 
ATOM     18  H   UNL     1       6.713  -7.368  -6.901  0.00  0.00    +0.160 HD
ENDBRANCH   5   9
BRANCH   1  23
ATOM     19  N   UNL     1       3.624  -0.652  -0.037  0.00  0.00    -0.209 N 
ATOM     20  C   UNL     1       4.802  -0.025  -0.139  0.00  0.00    +0.228 C 
ATOM     21  O   UNL     1       4.954   1.175  -0.226  0.00  0.00    -0.275 OA
ATOM     22  C   UNL     1       5.915  -1.050  -0.127  0.00  0.00    +0.129 C 
ATOM     23  C   UNL     1       5.167  -2.393   0.001  0.00  0.00    +0.178 C 
ATOM     24  C   UNL     1       3.711  -1.985   0.053  0.00  0.00    +0.248 C 
ATOM     25  O   UNL     1       2.772  -2.745   0.157  0.00  0.00    -0.273 OA
BRANCH  19  29
ATOM     26  C   UNL     1      -0.016   1.380   0.010  0.00  0.00    +0.000 A 
ATOM     27  C   UNL     1       0.872   1.530   1.059  0.00  0.00    +0.002 A 
ATOM     28  C   UNL     1       2.079   0.859   1.046  0.00  0.00    +0.024 A 
ATOM     29  C   UNL     1       2.399   0.031  -0.021  0.00  0.00    +0.044 A 
ATOM     30  C   UNL     1       1.505  -0.119  -1.073  0.00  0.00    +0.024 A 
ATOM     31  C   UNL     1       0.300   0.556  -1.054  0.00  0.00    +0.002 A 
ENDBRANCH  19  29
ENDBRANCH   1  23
TORSDOF 3
