REMARK  Name = ZINC12506712
REMARK  11 active torsions:
REMARK  status: ('A' for Active; 'I' for Inactive)
REMARK    1  A    between atoms: C_4  and  C_7
REMARK    2  A    between atoms: C_7  and  N_8
REMARK    3  A    between atoms: C_11  and  N_14
REMARK    4  A    between atoms: N_14  and  C_15
REMARK    5  A    between atoms: C_15  and  C_16
REMARK    6  A    between atoms: C_16  and  C_17
REMARK    7  A    between atoms: C_17  and  C_18
REMARK    8  A    between atoms: C_18  and  C_19
REMARK    9  A    between atoms: C_19  and  C_20
REMARK   10  A    between atoms: C_21  and  C_27
REMARK   11  A    between atoms: C_22  and  N_26
REMARK                            x       y       z     vdW  Elec       q    Type
REMARK                         _______ _______ _______ _____ _____    ______ ____
ROOT
ATOM      1  N   UNL     1       5.501  -2.571   4.995  0.00  0.00    +0.381 N 
ATOM      2  H   UNL     1       5.530  -1.638   5.378  0.00  0.00    -0.086 HD
ATOM      3  H   UNL     1       4.842  -3.128   5.517  0.00  0.00    -0.086 HD
ENDROOT
BRANCH   1   7
ATOM      4  N   UNL     1       4.153  -0.953   1.342  0.00  0.00    -0.298 NA
ATOM      5  C   UNL     1       3.240  -1.875   2.030  0.00  0.00    +0.083 C 
ATOM      6  C   UNL     1       3.647  -1.993   3.501  0.00  0.00    -0.000 C 
ATOM      7  C   UNL     1       5.085  -2.510   3.587  0.00  0.00    -0.069 C 
ATOM      8  C   UNL     1       6.009  -1.559   2.822  0.00  0.00    -0.000 C 
ATOM      9  C   UNL     1       5.534  -1.452   1.371  0.00  0.00    +0.083 C 
BRANCH   4  10
ATOM     10  C   UNL     1       3.711  -0.707  -0.038  0.00  0.00    +0.119 C 
BRANCH  10  14
ATOM     11  C   UNL     1      -0.017   1.378   0.010  0.00  0.00    +0.000 A 
ATOM     12  C   UNL     1       1.171   2.086   0.002  0.00  0.00    +0.000 A 
ATOM     13  C   UNL     1       2.377   1.411  -0.013  0.00  0.00    +0.005 A 
ATOM     14  C   UNL     1       2.396   0.029  -0.020  0.00  0.00    -0.033 A 
ATOM     15  C   UNL     1       1.208  -0.679  -0.012  0.00  0.00    +0.005 A 
ATOM     16  C   UNL     1       0.002  -0.004   0.002  0.00  0.00    +0.000 A 
ENDBRANCH  10  14
ENDBRANCH   4  10
ENDBRANCH   1   7
BRANCH   1  17
ATOM     17  C   UNL     1       6.836  -3.179   5.086  0.00  0.00    -0.082 C 
BRANCH  17  18
ATOM     18  C   UNL     1       7.269  -3.242   6.552  0.00  0.00    -0.019 C 
BRANCH  18  19
ATOM     19  C   UNL     1       8.659  -3.875   6.646  0.00  0.00    -0.001 C 
BRANCH  19  20
ATOM     20  C   UNL     1       9.092  -3.938   8.112  0.00  0.00    +0.006 C 
BRANCH  20  21
ATOM     21  C   UNL     1      10.482  -4.571   8.207  0.00  0.00    +0.058 C 
BRANCH  21  22
ATOM     22  C   UNL     1      10.908  -4.633   9.650  0.00  0.00    +0.082 A 
ATOM     23  C   UNL     1      11.617  -3.628  10.350  0.00  0.00    +0.113 A 
ATOM     24  C   UNL     1      11.803  -4.092  11.649  0.00  0.00    +0.129 A 
ATOM     25  N   UNL     1      11.233  -5.313  11.721  0.00  0.00    -0.263 N 
ATOM     26  H   UNL     1      11.207  -5.881  12.507  0.00  0.00    +0.190 HD
ATOM     27  N   UNL     1      10.683  -5.620  10.472  0.00  0.00    -0.176 NA
BRANCH  24  28
ATOM     28  N   UNL     1      12.450  -3.426  12.673  0.00  0.00    -0.342 N 
ATOM     29  H   UNL     1      12.828  -2.546  12.517  0.00  0.00    +0.144 HD
ATOM     30  H   UNL     1      12.527  -3.839  13.548  0.00  0.00    +0.144 HD
ENDBRANCH  24  28
BRANCH  23  31
ATOM     31  C   UNL     1      12.059  -2.373   9.821  0.00  0.00    +0.104 C 
ATOM     32  N   UNL     1      12.410  -1.377   9.402  0.00  0.00    -0.191 NA
ENDBRANCH  23  31
ENDBRANCH  21  22
ENDBRANCH  20  21
ENDBRANCH  19  20
ENDBRANCH  18  19
ENDBRANCH  17  18
ENDBRANCH   1  17
TORSDOF 11
