REMARK  Name = ZINC67582983
REMARK  9 active torsions:
REMARK  status: ('A' for Active; 'I' for Inactive)
REMARK    1  A    between atoms: C_4  and  N_7
REMARK    2  A    between atoms: N_7  and  C_8
REMARK    3  A    between atoms: C_8  and  C_9
REMARK    4  A    between atoms: C_9  and  C_10
REMARK    5  A    between atoms: C_10  and  N_11
REMARK    6  A    between atoms: N_14  and  C_15
REMARK    7  A    between atoms: C_15  and  C_16
REMARK    8  A    between atoms: C_16  and  C_18
REMARK    9  A    between atoms: C_16  and  N_23
REMARK                            x       y       z     vdW  Elec       q    Type
REMARK                         _______ _______ _______ _____ _____    ______ ____
ROOT
ATOM      1  N   UNL     1       6.496  -4.603  -0.170  0.00  0.00    -0.299 N 
ATOM      2  C   UNL     1       6.767  -5.917  -0.300  0.00  0.00    +0.300 C 
ATOM      3  O   UNL     1       5.869  -6.703  -0.530  0.00  0.00    -0.253 OA
ATOM      4  N   UNL     1       8.034  -6.359  -0.175  0.00  0.00    -0.301 N 
ATOM      5  H   UNL     1       7.212  -3.976   0.014  0.00  0.00    +0.150 HD
ATOM      6  H   UNL     1       8.751  -5.732   0.009  0.00  0.00    +0.150 HD
ENDROOT
BRANCH   1   7
ATOM      7  C   UNL     1       5.118  -4.123  -0.305  0.00  0.00    +0.107 C 
BRANCH   7   8
ATOM      8  C   UNL     1       5.087  -2.605  -0.115  0.00  0.00    +0.037 C 
BRANCH   8   9
ATOM      9  C   UNL     1       3.648  -2.103  -0.256  0.00  0.00    +0.103 C 
BRANCH   9  10
ATOM     10  N   UNL     1       3.618  -0.650  -0.074  0.00  0.00    -0.344 N 
ATOM     11  H   UNL     1       4.439  -0.167   0.106  0.00  0.00    +0.146 HD
BRANCH  10  15
ATOM     12  C   UNL     1       0.006   1.405  -0.328  0.00  0.00    +0.000 A 
ATOM     13  C   UNL     1       1.176   2.096  -0.071  0.00  0.00    +0.002 A 
ATOM     14  C   UNL     1       2.376   1.417   0.014  0.00  0.00    +0.023 A 
ATOM     15  C   UNL     1       2.406   0.040  -0.159  0.00  0.00    +0.027 A 
ATOM     16  C   UNL     1       1.229  -0.651  -0.417  0.00  0.00    +0.023 A 
ATOM     17  C   UNL     1       0.033   0.034  -0.501  0.00  0.00    +0.002 A 
ENDBRANCH  10  15
ENDBRANCH   9  10
ENDBRANCH   8   9
ENDBRANCH   7   8
ENDBRANCH   1   7
BRANCH   4  18
ATOM     18  C   UNL     1       8.329  -7.787  -0.316  0.00  0.00    +0.095 C 
BRANCH  18  19
ATOM     19  C   UNL     1       9.842  -8.003  -0.263  0.00  0.00    -0.013 C 
BRANCH  19  20
ATOM     20  N   UNL     1      10.132  -9.443  -0.274  0.00  0.00    +0.386 N 
ATOM     21  C   UNL     1      11.598  -9.671  -0.201  0.00  0.00    -0.078 C 
ATOM     22  C   UNL     1      11.706 -11.120   0.338  0.00  0.00    -0.020 C 
ATOM     23  C   UNL     1      10.543 -11.198   1.354  0.00  0.00    -0.020 C 
ATOM     24  C   UNL     1       9.565 -10.087   0.931  0.00  0.00    -0.078 C 
ATOM     25  H   UNL     1       9.754  -9.869  -1.106  0.00  0.00    -0.081 HD
ENDBRANCH  19  20
BRANCH  19  26
ATOM     26  C   UNL     1      10.485  -7.353  -1.461  0.00  0.00    -0.022 A 
ATOM     27  C   UNL     1      11.125  -6.161  -1.544  0.00  0.00    +0.009 A 
ATOM     28  C   UNL     1      11.643  -5.761  -2.761  0.00  0.00    +0.008 A 
ATOM     29  C   UNL     1      11.496  -6.574  -3.837  0.00  0.00    +0.045 A 
ATOM     30  S   UNL     1      10.608  -7.955  -3.137  0.00  0.00    -0.103 S 
ENDBRANCH  19  26
ENDBRANCH  18  19
ENDBRANCH   4  18
TORSDOF 9
