REMARK  Name = ZINC37257714
REMARK  8 active torsions:
REMARK  status: ('A' for Active; 'I' for Inactive)
REMARK    1  A    between atoms: C_1  and  C_2
REMARK    2  A    between atoms: C_2  and  C_4
REMARK    3  A    between atoms: C_2  and  O_17
REMARK    4  A    between atoms: C_4  and  N_5
REMARK    5  A    between atoms: N_5  and  C_6
REMARK    6  A    between atoms: C_6  and  C_7
REMARK    7  A    between atoms: C_10  and  O_14
REMARK    8  A    between atoms: O_14  and  C_15
REMARK                            x       y       z     vdW  Elec       q    Type
REMARK                         _______ _______ _______ _____ _____    ______ ____
ROOT
ATOM      1  C   UNL     1       1.493  -3.973   2.415  0.00  0.00    -0.062 A 
ATOM      2  C   UNL     1       0.468  -4.681   3.015  0.00  0.00    +0.020 A 
ATOM      3  C   UNL     1       0.484  -6.063   3.010  0.00  0.00    +0.061 A 
ATOM      4  C   UNL     1       1.531  -6.740   2.401  0.00  0.00    +0.148 A 
ATOM      5  C   UNL     1       2.558  -6.028   1.798  0.00  0.00    +0.061 A 
ATOM      6  C   UNL     1       2.534  -4.646   1.803  0.00  0.00    +0.020 A 
ATOM      7 BR   UNL     1       3.986  -6.947   0.967  0.00  0.00    -0.046 Br
ATOM      8 BR   UNL     1      -0.918  -7.029   3.832  0.00  0.00    -0.046 Br
ENDROOT
BRANCH   4   9
ATOM      9  O   UNL     1       1.550  -8.100   2.394  0.00  0.00    -0.493 OA
ATOM     10  C   UNL     1       0.916  -8.752   1.291  0.00  0.00    +0.277 C 
ENDBRANCH   4   9
BRANCH   1  11
ATOM     11  C   UNL     1       1.472  -2.466   2.424  0.00  0.00    -0.047 C 
BRANCH  11  12
ATOM     12  N   UNL     1       0.762  -1.980   1.234  0.00  0.00    +0.383 N 
ATOM     13  H   UNL     1      -0.185  -2.329   1.241  0.00  0.00    -0.085 HD
ATOM     14  H   UNL     1       1.234  -2.305   0.403  0.00  0.00    -0.085 HD
BRANCH  12  15
ATOM     15  C   UNL     1       0.742  -0.511   1.242  0.00  0.00    -0.051 C 
BRANCH  15  17
ATOM     16  C   UNL     1      -0.019   1.526   0.010  0.00  0.00    +0.035 C 
ATOM     17  C   UNL     1       0.002  -0.004   0.002  0.00  0.00    +0.095 C 
BRANCH  17  18
ATOM     18  O   UNL     1       0.671  -0.465  -1.174  0.00  0.00    -0.394 OA
ATOM     19  H   UNL     1       1.588  -0.167  -1.247  0.00  0.00    +0.210 HD
ENDBRANCH  17  18
ENDBRANCH  15  17
ENDBRANCH  12  15
ENDBRANCH  11  12
ENDBRANCH   1  11
TORSDOF 6
