REMARK  Name = ZINC63302880
REMARK  12 active torsions:
REMARK  status: ('A' for Active; 'I' for Inactive)
REMARK    1  A    between atoms: C_1  and  O_2
REMARK    2  A    between atoms: O_2  and  C_3
REMARK    3  A    between atoms: C_6  and  C_9
REMARK    4  A    between atoms: C_13  and  C_35
REMARK    5  A    between atoms: N_15  and  C_22
REMARK    6  A    between atoms: C_22  and  C_23
REMARK    7  A    between atoms: C_23  and  C_24
REMARK    8  A    between atoms: C_27  and  O_33
REMARK    9  A    between atoms: O_33  and  C_34
REMARK   10  A    between atoms: C_38  and  O_43
REMARK   11  A    between atoms: C_39  and  O_41
REMARK   12  A    between atoms: O_41  and  C_42
REMARK                            x       y       z     vdW  Elec       q    Type
REMARK                         _______ _______ _______ _____ _____    ______ ____
ROOT
ATOM      1  C   UNL     1       2.587  -2.550   4.310  0.00  0.00    +0.136 C 
ATOM      2  C   UNL     1       1.611  -3.020   5.327  0.00  0.00    +0.077 C 
ATOM      3  C   UNL     1       0.306  -2.553   5.850  0.00  0.00    +0.114 C 
ATOM      4  N   UNL     1      -0.321  -3.849   6.267  0.00  0.00    -0.292 N 
ATOM      5  C   UNL     1       0.233  -4.878   5.548  0.00  0.00    +0.243 C 
ATOM      6  O   UNL     1       0.084  -6.065   5.748  0.00  0.00    -0.273 OA
ATOM      7  C   UNL     1       1.043  -4.231   4.457  0.00  0.00    +0.218 C 
ATOM      8  N   UNL     1       2.318  -4.796   4.038  0.00  0.00    -0.203 NA
ATOM      9  N   UNL     1       3.166  -3.870   3.899  0.00  0.00    -0.305 N 
ATOM     10  H   UNL     1       4.070  -3.996   3.571  0.00  0.00    +0.183 HD
ENDROOT
BRANCH   1  14
ATOM     11  C   UNL     1       0.625  -0.618   1.042  0.00  0.00    +0.120 A 
ATOM     12  C   UNL     1       0.777  -1.997   1.044  0.00  0.00    +0.046 A 
ATOM     13  C   UNL     1       1.412  -2.619   2.102  0.00  0.00    +0.009 A 
ATOM     14  C   UNL     1       1.895  -1.869   3.158  0.00  0.00    -0.023 A 
ATOM     15  C   UNL     1       1.744  -0.494   3.158  0.00  0.00    +0.009 A 
ATOM     16  C   UNL     1       1.116   0.133   2.100  0.00  0.00    +0.046 A 
BRANCH  11  18
ATOM     17  C   UNL     1      -0.479  -0.841  -1.052  0.00  0.00    +0.277 C 
ATOM     18  O   UNL     1       0.001  -0.004   0.002  0.00  0.00    -0.495 OA
ENDBRANCH  11  18
ENDBRANCH   1  14
BRANCH   3  19
ATOM     19  C   UNL     1       0.493  -1.636   7.031  0.00  0.00    -0.023 A 
ATOM     20  C   UNL     1       0.749  -2.165   8.282  0.00  0.00    +0.009 A 
ATOM     21  C   UNL     1       0.921  -1.328   9.368  0.00  0.00    +0.049 A 
ATOM     22  C   UNL     1       0.837   0.046   9.204  0.00  0.00    +0.158 A 
ATOM     23  C   UNL     1       0.579   0.579   7.945  0.00  0.00    +0.162 A 
ATOM     24  C   UNL     1       0.413  -0.266   6.859  0.00  0.00    +0.055 A 
BRANCH  23  25
ATOM     25  O   UNL     1       0.495   1.926   7.779  0.00  0.00    -0.491 OA
ATOM     26  C   UNL     1       0.228   2.402   6.459  0.00  0.00    +0.277 C 
ENDBRANCH  23  25
BRANCH  22  27
ATOM     27  O   UNL     1       1.005   0.871  10.272  0.00  0.00    -0.503 OA
ATOM     28  H   UNL     1       1.921   1.144  10.418  0.00  0.00    +0.292 HD
ENDBRANCH  22  27
ENDBRANCH   3  19
BRANCH   4  29
ATOM     29  C   UNL     1      -1.365  -3.994   7.285  0.00  0.00    +0.113 C 
BRANCH  29  30
ATOM     30  C   UNL     1      -2.740  -3.881   6.624  0.00  0.00    +0.052 C 
BRANCH  30  31
ATOM     31  C   UNL     1      -3.814  -4.030   7.671  0.00  0.00    -0.040 C 
ATOM     32  C   UNL     1      -4.453  -3.035   8.328  0.00  0.00    +0.002 A 
ATOM     33  C   UNL     1      -4.346  -1.574   8.268  0.00  0.00    +0.055 A 
ATOM     34  C   UNL     1      -5.135  -0.814   9.065  0.00  0.00    +0.121 A 
ATOM     35  C   UNL     1      -6.064  -1.376   9.957  0.00  0.00    +0.047 A 
ATOM     36  C   UNL     1      -6.235  -2.710  10.084  0.00  0.00    +0.029 A 
ATOM     37  C   UNL     1      -5.433  -3.627   9.268  0.00  0.00    +0.043 A 
ATOM     38  N   UNL     1      -5.400  -4.934   9.196  0.00  0.00    -0.380 N 
ATOM     39  C   UNL     1      -4.399  -5.322   8.195  0.00  0.00    +0.144 C 
ATOM     40  H   UNL     1      -5.948  -5.544   9.714  0.00  0.00    +0.160 HD
BRANCH  34  41
ATOM     41  O   UNL     1      -5.024   0.539   9.000  0.00  0.00    -0.495 OA
ATOM     42  C   UNL     1      -5.875   1.302   9.857  0.00  0.00    +0.277 C 
ENDBRANCH  34  41
ENDBRANCH  30  31
ENDBRANCH  29  30
ENDBRANCH   4  29
TORSDOF 9
