REMARK  Name = ZINC35293529
REMARK  7 active torsions:
REMARK  status: ('A' for Active; 'I' for Inactive)
REMARK    1  A    between atoms: C_1  and  C_2
REMARK    2  A    between atoms: C_5  and  N_9
REMARK    3  A    between atoms: C_6  and  C_8
REMARK    4  A    between atoms: C_10  and  C_19
REMARK    5  A    between atoms: C_12  and  C_14
REMARK    6  A    between atoms: C_23  and  C_30
REMARK    7  A    between atoms: C_26  and  C_29
REMARK                            x       y       z     vdW  Elec       q    Type
REMARK                         _______ _______ _______ _____ _____    ______ ____
ROOT
ATOM      1  N   UNL     1      -0.454  -4.317   0.005  0.00  0.00    -0.227 N 
ATOM      2  C   UNL     1       0.085  -4.985  -1.063  0.00  0.00    +0.130 A 
ATOM      3  C   UNL     1       0.663  -6.137  -0.577  0.00  0.00    +0.063 A 
ATOM      4  C   UNL     1       0.465  -6.158   0.813  0.00  0.00    +0.100 A 
ATOM      5  N   UNL     1      -0.196  -5.069   1.158  0.00  0.00    -0.165 NA
ENDROOT
BRANCH   2   6
ATOM      6  C   UNL     1       0.052  -4.551  -2.469  0.00  0.00    +0.265 C 
ATOM      7  O   UNL     1      -0.080  -3.373  -2.739  0.00  0.00    -0.268 OA
ATOM      8  N   UNL     1       0.169  -5.460  -3.457  0.00  0.00    -0.291 N 
ATOM      9  C   UNL     1       0.164  -6.902  -3.165  0.00  0.00    +0.139 C 
ATOM     10  C   UNL     1      -0.859  -7.578  -4.084  0.00  0.00    +0.133 C 
ATOM     11  O   UNL     1      -0.594  -7.206  -5.439  0.00  0.00    -0.371 OA
ATOM     12  C   UNL     1      -0.725  -5.806  -5.697  0.00  0.00    +0.133 C 
ATOM     13  C   UNL     1       0.300  -5.040  -4.861  0.00  0.00    +0.139 C 
ATOM     14  C   UNL     1      -2.135  -5.347  -5.320  0.00  0.00    +0.039 C 
ATOM     15  C   UNL     1      -0.750  -9.098  -3.940  0.00  0.00    +0.039 C 
ENDBRANCH   2   6
BRANCH   1  20
ATOM     16  C   UNL     1      -3.223   0.630  -0.204  0.00  0.00    +0.044 C 
ATOM     17  C   UNL     1      -2.487  -0.684  -0.148  0.00  0.00    -0.050 A 
ATOM     18  C   UNL     1      -1.199  -0.775  -0.644  0.00  0.00    +0.005 A 
ATOM     19  C   UNL     1      -0.523  -1.978  -0.595  0.00  0.00    +0.028 A 
ATOM     20  C   UNL     1      -1.137  -3.097  -0.046  0.00  0.00    +0.069 A 
ATOM     21  C   UNL     1      -2.430  -3.001   0.452  0.00  0.00    -0.025 A 
ATOM     22  C   UNL     1      -3.099  -1.794   0.404  0.00  0.00    +0.008 A 
ATOM     23  C   UNL     1      -3.100  -4.212   1.048  0.00  0.00    +0.046 C 
ENDBRANCH   1  20
BRANCH   4  24
ATOM     24  C   UNL     1       0.925  -7.218   1.736  0.00  0.00    +0.039 A 
ATOM     25  C   UNL     1       0.765  -7.310   3.092  0.00  0.00    +0.018 A 
ATOM     26  C   UNL     1       1.286  -8.405   3.748  0.00  0.00    +0.008 A 
ATOM     27  C   UNL     1       1.939  -9.356   3.032  0.00  0.00    +0.046 A 
ATOM     28  S   UNL     1       1.826  -8.715   1.370  0.00  0.00    -0.095 S 
ENDBRANCH   4  24
TORSDOF 3
