REMARK  Name = ZINC40757505
REMARK  6 active torsions:
REMARK  status: ('A' for Active; 'I' for Inactive)
REMARK    1  A    between atoms: C_1  and  O_2
REMARK    2  A    between atoms: O_2  and  C_3
REMARK    3  A    between atoms: C_14  and  N_27
REMARK    4  A    between atoms: C_15  and  N_19
REMARK    5  A    between atoms: N_19  and  N_20
REMARK    6  A    between atoms: N_20  and  C_21
REMARK                            x       y       z     vdW  Elec       q    Type
REMARK                         _______ _______ _______ _____ _____    ______ ____
ROOT
ATOM      1  C   UNL     1       0.680  -0.622   1.006  0.00  0.00    +0.121 A 
ATOM      2  C   UNL     1       1.261   0.131   2.022  0.00  0.00    +0.048 A 
ATOM      3  C   UNL     1       1.885  -0.465   3.087  0.00  0.00    +0.032 A 
ATOM      4  C   UNL     1       1.958  -1.873   3.187  0.00  0.00    +0.081 A 
ATOM      5  C   UNL     1       1.358  -2.608   2.139  0.00  0.00    +0.044 A 
ATOM      6  C   UNL     1       0.730  -2.006   1.077  0.00  0.00    +0.063 A 
ATOM      7  S   UNL     1       1.661  -4.287   2.632  0.00  0.00    -0.052 S 
ATOM      8  C   UNL     1       2.536  -3.923   4.147  0.00  0.00    +0.165 A 
ATOM      9  N   UNL     1       2.532  -2.611   4.164  0.00  0.00    -0.225 NA
ATOM     10  N   UNL     1       3.079  -4.801   5.067  0.00  0.00    -0.279 N 
ATOM     11  C   UNL     1       3.820  -4.314   6.140  0.00  0.00    +0.128 A 
ATOM     12  C   UNL     1       4.475  -5.192   7.005  0.00  0.00    +0.105 A 
ATOM     13  C   UNL     1       5.205  -4.651   8.065  0.00  0.00    +0.161 A 
ATOM     14  N   UNL     1       5.247  -3.328   8.210  0.00  0.00    -0.219 NA
ATOM     15  C   UNL     1       4.613  -2.535   7.370  0.00  0.00    +0.200 A 
ATOM     16  N   UNL     1       3.919  -3.005   6.354  0.00  0.00    -0.333 N 
ATOM     17  H   UNL     1       2.943  -5.756   4.965  0.00  0.00    +0.155 HD
ATOM     18  H   UNL     1       3.470  -2.387   5.755  0.00  0.00    +0.168 HD
ENDROOT
BRANCH  12  19
ATOM     19  N   UNL     1       4.403  -6.581   6.814  0.00  0.00    -0.353 N 
ATOM     20  H   UNL     1       3.892  -6.943   6.073  0.00  0.00    +0.143 HD
ATOM     21  H   UNL     1       4.864  -7.179   7.423  0.00  0.00    +0.143 HD
ENDBRANCH  12  19
BRANCH   1  23
ATOM     22  C   UNL     1       0.058   1.421  -0.041  0.00  0.00    +0.277 C 
ATOM     23  O   UNL     1       0.066  -0.008  -0.041  0.00  0.00    -0.495 OA
ENDBRANCH   1  23
BRANCH  13  24
ATOM     24  N   UNL     1       5.876  -5.480   8.956  0.00  0.00    -0.249 N 
ATOM     25  H   UNL     1       5.840  -6.442   8.844  0.00  0.00    +0.172 HD
BRANCH  24  26
ATOM     26  N   UNL     1       6.605  -4.925  10.016  0.00  0.00    -0.265 N 
ATOM     27  H   UNL     1       6.641  -3.962  10.128  0.00  0.00    +0.170 HD
BRANCH  26  28
ATOM     28  C   UNL     1       7.280  -5.758  10.911  0.00  0.00    +0.044 A 
ATOM     29  C   UNL     1       7.234  -7.137  10.748  0.00  0.00    +0.024 A 
ATOM     30  C   UNL     1       7.902  -7.958  11.635  0.00  0.00    +0.002 A 
ATOM     31  C   UNL     1       8.617  -7.409  12.684  0.00  0.00    +0.000 A 
ATOM     32  C   UNL     1       8.664  -6.037  12.850  0.00  0.00    +0.002 A 
ATOM     33  C   UNL     1       8.003  -5.210  11.963  0.00  0.00    +0.024 A 
ENDBRANCH  26  28
ENDBRANCH  24  26
ENDBRANCH  13  24
TORSDOF 5
