REMARK  Name = ZINC40024825
REMARK  8 active torsions:
REMARK  status: ('A' for Active; 'I' for Inactive)
REMARK    1  A    between atoms: C_1  and  C_2
REMARK    2  A    between atoms: C_2  and  C_4
REMARK    3  A    between atoms: C_2  and  N_10
REMARK    4  A    between atoms: N_6  and  C_7
REMARK    5  A    between atoms: N_13  and  C_16
REMARK    6  A    between atoms: C_16  and  C_18
REMARK    7  A    between atoms: C_16  and  C_19
REMARK    8  A    between atoms: N_24  and  C_25
REMARK                            x       y       z     vdW  Elec       q    Type
REMARK                         _______ _______ _______ _____ _____    ______ ____
ROOT
ATOM      1  C   UNL     1      -3.912  -1.789   0.829  0.00  0.00    +0.140 C 
ATOM      2  C   UNL     1      -4.847  -1.442  -0.332  0.00  0.00    +0.034 C 
ENDROOT
BRANCH   1   3
ATOM      3  C   UNL     1      -3.963  -3.272   1.088  0.00  0.00    +0.237 C 
ATOM      4  O   UNL     1      -3.034  -3.978   0.757  0.00  0.00    -0.274 OA
ATOM      5  N   UNL     1      -5.041  -3.815   1.688  0.00  0.00    -0.239 N 
ATOM      6  C   UNL     1      -5.086  -5.142   1.921  0.00  0.00    +0.306 C 
ATOM      7  O   UNL     1      -4.155  -5.849   1.589  0.00  0.00    -0.252 OA
ATOM      8  N   UNL     1      -6.164  -5.684   2.521  0.00  0.00    -0.294 N 
ATOM      9  H   UNL     1      -5.784  -3.250   1.953  0.00  0.00    +0.159 HD
ATOM     10  H   UNL     1      -6.907  -5.120   2.786  0.00  0.00    +0.151 HD
BRANCH   8  11
ATOM     11  C   UNL     1      -6.214  -7.127   2.773  0.00  0.00    +0.037 C 
ATOM     12  C   UNL     1      -5.046  -7.526   3.678  0.00  0.00    +0.029 C 
ATOM     13  C   UNL     1      -5.098  -9.033   3.941  0.00  0.00    -0.008 C 
ATOM     14  C   UNL     1      -6.419  -9.385   4.628  0.00  0.00    +0.007 C 
ATOM     15  C   UNL     1      -7.586  -8.986   3.723  0.00  0.00    -0.008 C 
ATOM     16  C   UNL     1      -7.535  -7.479   3.459  0.00  0.00    +0.029 C 
ATOM     17  C   UNL     1      -7.484  -9.739   2.395  0.00  0.00    +0.007 C 
ATOM     18  C   UNL     1      -6.163  -9.387   1.709  0.00  0.00    -0.008 C 
ATOM     19  C   UNL     1      -4.995  -9.786   2.614  0.00  0.00    +0.007 C 
ATOM     20  C   UNL     1      -6.111  -7.880   1.446  0.00  0.00    +0.029 C 
ENDBRANCH   8  11
ENDBRANCH   1   3
BRANCH   1  24
ATOM     21  N   UNL     1      -0.566  -0.043  -1.074  0.00  0.00    +0.389 N 
ATOM     22  C   UNL     1      -0.722  -1.501  -1.153  0.00  0.00    -0.062 C 
ATOM     23  C   UNL     1      -2.176  -1.875  -0.857  0.00  0.00    +0.066 C 
ATOM     24  N   UNL     1      -2.539  -1.398   0.485  0.00  0.00    -0.295 NA
ATOM     25  C   UNL     1      -2.364   0.057   0.586  0.00  0.00    +0.066 C 
ATOM     26  C   UNL     1      -0.908   0.416   0.279  0.00  0.00    -0.062 C 
ATOM     27  H   UNL     1      -1.179   0.397  -1.743  0.00  0.00    -0.081 HD
BRANCH  21  29
ATOM     28  C   UNL     1       1.171  -0.124  -2.799  0.00  0.00    -0.004 C 
ATOM     29  C   UNL     1       0.826   0.317  -1.375  0.00  0.00    +0.016 C 
BRANCH  29  30
ATOM     30  C   UNL     1       0.996   1.810  -1.257  0.00  0.00    +0.199 C 
ATOM     31  O   UNL     1       0.055   2.546  -1.468  0.00  0.00    -0.278 OA
ATOM     32  N   UNL     1       2.193   2.328  -0.917  0.00  0.00    -0.314 N 
ATOM     33  H   UNL     1       2.946   1.739  -0.749  0.00  0.00    +0.149 HD
BRANCH  32  34
ATOM     34  C   UNL     1       2.358   3.779  -0.803  0.00  0.00    +0.073 C 
ATOM     35  C   UNL     1       3.618   4.397  -1.411  0.00  0.00    +0.024 C 
ATOM     36  C   UNL     1       3.473   4.293   0.109  0.00  0.00    +0.024 C 
ENDBRANCH  32  34
ENDBRANCH  29  30
ENDBRANCH  21  29
ENDBRANCH   1  24
TORSDOF 6
