REMARK  Name = ZINC63698217
REMARK  8 active torsions:
REMARK  status: ('A' for Active; 'I' for Inactive)
REMARK    1  A    between atoms: C_1  and  C_2
REMARK    2  A    between atoms: C_2  and  C_19
REMARK    3  A    between atoms: C_5  and  C_10
REMARK    4  A    between atoms: C_7  and  C_8
REMARK    5  A    between atoms: C_7  and  C_9
REMARK    6  A    between atoms: N_21  and  N_22
REMARK    7  A    between atoms: C_23  and  C_24
REMARK    8  A    between atoms: C_29  and  O_30
REMARK                            x       y       z     vdW  Elec       q    Type
REMARK                         _______ _______ _______ _____ _____    ______ ____
ROOT
ATOM      1  C   UNL     1      -0.060   1.461  -0.075  0.00  0.00    +0.021 C 
ATOM      2  C   UNL     1      -0.006  -0.058  -0.249  0.00  0.00    +0.051 C 
ATOM      3  C   UNL     1       0.808  -0.417  -1.509  0.00  0.00    +0.017 C 
ATOM      4  C   UNL     1       1.580  -1.699  -1.110  0.00  0.00    +0.009 C 
ATOM      5  C   UNL     1       1.957  -1.426   0.367  0.00  0.00    +0.038 C 
ATOM      6  C   UNL     1       0.725  -0.699   0.944  0.00  0.00    -0.015 C 
ATOM      7  C   UNL     1       1.168   0.383   1.930  0.00  0.00    +0.012 C 
ATOM      8  C   UNL     1      -0.195  -1.702   1.644  0.00  0.00    +0.012 C 
ENDROOT
BRANCH   5   9
ATOM      9  C   UNL     1       2.203  -2.741   1.109  0.00  0.00    +0.178 C 
ATOM     10  N   UNL     1       2.597  -2.470   2.498  0.00  0.00    -0.363 N 
ATOM     11  C   UNL     1       3.788  -2.968   2.670  0.00  0.00    +0.060 A 
ATOM     12  C   UNL     1       4.694  -3.012   3.825  0.00  0.00    +0.027 A 
ATOM     13  C   UNL     1       5.896  -3.611   3.706  0.00  0.00    +0.002 A 
ATOM     14  C   UNL     1       6.330  -4.206   2.508  0.00  0.00    +0.002 A 
ATOM     15  C   UNL     1       5.578  -4.221   1.389  0.00  0.00    +0.027 A 
ATOM     16  C   UNL     1       4.247  -3.598   1.402  0.00  0.00    +0.060 A 
ATOM     17  N   UNL     1       3.323  -3.464   0.495  0.00  0.00    -0.363 N 
ATOM     18  H   UNL     1       2.068  -2.004   3.164  0.00  0.00    +0.162 HD
ATOM     19  H   UNL     1       3.367  -3.784  -0.420  0.00  0.00    +0.162 HD
ENDBRANCH   5   9
BRANCH   2  20
ATOM     20  C   UNL     1      -1.402  -0.614  -0.359  0.00  0.00    +0.239 C 
ATOM     21  O   UNL     1      -1.703  -1.317  -1.301  0.00  0.00    -0.273 OA
ATOM     22  N   UNL     1      -2.317  -0.332   0.590  0.00  0.00    -0.207 N 
ATOM     23  H   UNL     1      -2.096   0.280   1.310  0.00  0.00    +0.177 HD
BRANCH  22  24
ATOM     24  N   UNL     1      -3.586  -0.922   0.537  0.00  0.00    -0.188 NA
ATOM     25  C   UNL     1      -4.467  -0.650   1.450  0.00  0.00    +0.142 C 
BRANCH  25  26
ATOM     26  C   UNL     1      -5.803  -1.271   1.395  0.00  0.00    +0.036 A 
ATOM     27  C   UNL     1      -6.756  -0.976   2.372  0.00  0.00    +0.013 A 
ATOM     28  C   UNL     1      -8.004  -1.560   2.314  0.00  0.00    +0.001 A 
ATOM     29  C   UNL     1      -8.316  -2.438   1.290  0.00  0.00    +0.004 A 
ATOM     30  C   UNL     1      -7.382  -2.737   0.316  0.00  0.00    +0.046 A 
ATOM     31  C   UNL     1      -6.126  -2.155   0.356  0.00  0.00    +0.125 A 
BRANCH  31  32
ATOM     32  O   UNL     1      -5.209  -2.445  -0.603  0.00  0.00    -0.506 OA
ATOM     33  H   UNL     1      -4.649  -3.206  -0.395  0.00  0.00    +0.292 HD
ENDBRANCH  31  32
ENDBRANCH  25  26
ENDBRANCH  22  24
ENDBRANCH   2  20
TORSDOF 5
