REMARK  Name = ZINC65370832
REMARK  10 active torsions:
REMARK  status: ('A' for Active; 'I' for Inactive)
REMARK    1  A    between atoms: C_1  and  C_2
REMARK    2  A    between atoms: C_2  and  N_3
REMARK    3  A    between atoms: C_10  and  C_25
REMARK    4  A    between atoms: C_10  and  C_28
REMARK    5  A    between atoms: C_12  and  C_14
REMARK    6  A    between atoms: C_21  and  C_23
REMARK    7  A    between atoms: C_21  and  C_24
REMARK    8  A    between atoms: C_25  and  C_26
REMARK    9  A    between atoms: C_26  and  O_27
REMARK   10  A    between atoms: C_28  and  O_29
REMARK                            x       y       z     vdW  Elec       q    Type
REMARK                         _______ _______ _______ _____ _____    ______ ____
ROOT
ATOM      1  N   UNL     1      -1.464  -0.439   0.110  0.00  0.00    +0.380 N 
ATOM      2  C   UNL     1      -2.315  -0.027  -1.035  0.00  0.00    -0.073 C 
ATOM      3  C   UNL     1      -3.356  -1.157  -1.175  0.00  0.00    -0.003 C 
ATOM      4  C   UNL     1      -2.684  -2.400  -0.533  0.00  0.00    -0.002 C 
ATOM      5  C   UNL     1      -1.300  -1.904  -0.066  0.00  0.00    -0.073 C 
ATOM      6  C   UNL     1      -2.503  -3.397  -1.697  0.00  0.00    +0.046 C 
ATOM      7  N   UNL     1      -2.480  -2.552  -2.918  0.00  0.00    -0.301 NA
ATOM      8  C   UNL     1      -3.516  -1.504  -2.670  0.00  0.00    +0.086 C 
ATOM      9  H   UNL     1      -1.573  -2.129  -3.048  0.00  0.00    +0.123 HD
ATOM     10  H   UNL     1      -1.925  -0.238   0.985  0.00  0.00    -0.082 HD
ENDROOT
BRANCH   8  11
ATOM     11  C   UNL     1      -3.279  -0.283  -3.521  0.00  0.00    -0.030 A 
ATOM     12  C   UNL     1      -2.251  -0.270  -4.446  0.00  0.00    +0.009 A 
ATOM     13  C   UNL     1      -2.033   0.843  -5.231  0.00  0.00    +0.046 A 
ATOM     14  C   UNL     1      -2.846   1.966  -5.096  0.00  0.00    +0.125 A 
ATOM     15  C   UNL     1      -3.870   1.944  -4.158  0.00  0.00    -0.002 A 
ATOM     16  C   UNL     1      -4.093   0.828  -3.384  0.00  0.00    +0.012 A 
ATOM     17  C   UNL     1      -4.559   3.294  -4.222  0.00  0.00    +0.086 C 
ATOM     18  C   UNL     1      -3.532   4.141  -5.009  0.00  0.00    +0.109 C 
ATOM     19  O   UNL     1      -2.816   3.151  -5.766  0.00  0.00    -0.486 OA
ATOM     20  C   UNL     1      -4.241   5.127  -5.939  0.00  0.00    +0.056 C 
ATOM     21  C   UNL     1      -2.590   4.877  -4.053  0.00  0.00    +0.056 C 
ENDBRANCH   8  11
BRANCH   1  23
ATOM     22  C   UNL     1      -0.340   1.723   0.357  0.00  0.00    -0.017 C 
ATOM     23  C   UNL     1      -0.160   0.235   0.050  0.00  0.00    -0.082 C 
ENDBRANCH   1  23
BRANCH   6  24
ATOM     24  C   UNL     1      -3.678  -4.376  -1.748  0.00  0.00    +0.052 C 
BRANCH  24  25
ATOM     25  C   UNL     1      -3.557  -5.253  -2.996  0.00  0.00    +0.157 C 
BRANCH  25  26
ATOM     26  O   UNL     1      -4.599  -6.231  -2.994  0.00  0.00    -0.395 OA
ATOM     27  H   UNL     1      -4.584  -6.824  -3.757  0.00  0.00    +0.209 HD
ENDBRANCH  25  26
ENDBRANCH  24  25
ENDBRANCH   6  24
BRANCH   6  28
ATOM     28  C   UNL     1      -1.182  -4.155  -1.549  0.00  0.00    +0.178 C 
BRANCH  28  29
ATOM     29  O   UNL     1      -1.117  -4.749  -0.251  0.00  0.00    -0.393 OA
ATOM     30  H   UNL     1      -0.305  -5.247  -0.086  0.00  0.00    +0.209 HD
ENDBRANCH  28  29
ENDBRANCH   6  28
TORSDOF 7
