REMARK  Name = ZINC36145506
REMARK  10 active torsions:
REMARK  status: ('A' for Active; 'I' for Inactive)
REMARK    1  A    between atoms: C_4  and  C_7
REMARK    2  A    between atoms: C_7  and  N_8
REMARK    3  A    between atoms: N_8  and  C_9
REMARK    4  A    between atoms: N_8  and  C_29
REMARK    5  A    between atoms: C_9  and  C_10
REMARK    6  A    between atoms: C_13  and  C_15
REMARK    7  A    between atoms: C_15  and  C_16
REMARK    8  A    between atoms: C_15  and  C_22
REMARK    9  A    between atoms: C_15  and  O_28
REMARK   10  A    between atoms: C_29  and  C_30
REMARK                            x       y       z     vdW  Elec       q    Type
REMARK                         _______ _______ _______ _____ _____    ______ ____
ROOT
ATOM      1  C   UNL     1       4.533  -1.559   2.614  0.00  0.00    +0.089 A 
ATOM      2  C   UNL     1       4.409  -2.887   2.784  0.00  0.00    +0.043 A 
ATOM      3  C   UNL     1       5.250  -3.241   3.865  0.00  0.00    +0.048 A 
ATOM      4  C   UNL     1       5.837  -2.108   4.290  0.00  0.00    +0.146 A 
ATOM      5  O   UNL     1       5.403  -1.093   3.525  0.00  0.00    -0.463 OA
ENDROOT
BRANCH   1   6
ATOM      6  C   UNL     1       3.820  -0.734   1.574  0.00  0.00    -0.003 C 
BRANCH   6   7
ATOM      7  N   UNL     1       2.546  -0.249   2.122  0.00  0.00    +0.389 N 
ATOM      8  H   UNL     1       1.987  -1.036   2.418  0.00  0.00    -0.081 HD
BRANCH   7   9
ATOM      9  C   UNL     1       1.823   0.504   1.088  0.00  0.00    -0.042 C 
BRANCH   9  13
ATOM     10  C   UNL     1      -2.063   1.536   2.530  0.00  0.00    +0.000 A 
ATOM     11  C   UNL     1      -1.016   2.428   2.665  0.00  0.00    +0.000 A 
ATOM     12  C   UNL     1       0.241   2.094   2.199  0.00  0.00    +0.002 A 
ATOM     13  C   UNL     1       0.452   0.867   1.597  0.00  0.00    -0.064 A 
ATOM     14  C   UNL     1      -0.595  -0.025   1.462  0.00  0.00    +0.002 A 
ATOM     15  C   UNL     1      -1.853   0.309   1.928  0.00  0.00    +0.000 A 
ENDBRANCH   9  13
ENDBRANCH   7   9
BRANCH   7  16
ATOM     16  C   UNL     1       2.808   0.626   3.272  0.00  0.00    -0.046 C 
BRANCH  16  17
ATOM     17  C   UNL     1       3.526   1.891   2.796  0.00  0.00    +0.102 C 
ATOM     18  C   UNL     1       3.746   2.862   3.983  0.00  0.00    +0.032 C 
ATOM     19  C   UNL     1       4.969   3.674   3.477  0.00  0.00    +0.030 C 
ATOM     20  C   UNL     1       5.758   2.614   2.679  0.00  0.00    +0.160 C 
ATOM     21  O   UNL     1       4.843   1.569   2.323  0.00  0.00    -0.378 OA
ENDBRANCH  16  17
ENDBRANCH   7  16
ENDBRANCH   6   7
ENDBRANCH   1   6
BRANCH   4  22
ATOM     22  C   UNL     1       6.819  -1.998   5.427  0.00  0.00    +0.174 C 
BRANCH  22  23
ATOM     23  C   UNL     1       7.767  -0.856   5.163  0.00  0.00    -0.004 A 
ATOM     24  C   UNL     1       7.341   0.449   5.329  0.00  0.00    +0.007 A 
ATOM     25  C   UNL     1       8.210   1.496   5.087  0.00  0.00    +0.000 A 
ATOM     26  C   UNL     1       9.506   1.238   4.680  0.00  0.00    +0.000 A 
ATOM     27  C   UNL     1       9.932  -0.066   4.515  0.00  0.00    +0.000 A 
ATOM     28  C   UNL     1       9.064  -1.113   4.761  0.00  0.00    +0.007 A 
ENDBRANCH  22  23
BRANCH  22  29
ATOM     29  C   UNL     1       6.073  -1.744   6.712  0.00  0.00    -0.004 A 
ATOM     30  C   UNL     1       4.985  -0.892   6.723  0.00  0.00    +0.007 A 
ATOM     31  C   UNL     1       4.301  -0.660   7.901  0.00  0.00    +0.000 A 
ATOM     32  C   UNL     1       4.705  -1.280   9.069  0.00  0.00    +0.000 A 
ATOM     33  C   UNL     1       5.792  -2.134   9.058  0.00  0.00    +0.000 A 
ATOM     34  C   UNL     1       6.474  -2.369   7.878  0.00  0.00    +0.007 A 
ENDBRANCH  22  29
BRANCH  22  35
ATOM     35  O   UNL     1       7.559  -3.215   5.538  0.00  0.00    -0.372 OA
ATOM     36  H   UNL     1       8.065  -3.441   4.745  0.00  0.00    +0.212 HD
ENDBRANCH  22  35
ENDBRANCH   4  22
TORSDOF 10
