REMARK  Name = ZINC20418580
REMARK  13 active torsions:
REMARK  status: ('A' for Active; 'I' for Inactive)
REMARK    1  A    between atoms: C_1  and  C_2
REMARK    2  A    between atoms: C_7  and  C_8
REMARK    3  A    between atoms: C_8  and  N_9
REMARK    4  A    between atoms: N_12  and  C_15
REMARK    5  A    between atoms: C_15  and  C_16
REMARK    6  A    between atoms: N_18  and  C_19
REMARK    7  A    between atoms: C_20  and  C_28
REMARK    8  A    between atoms: C_21  and  C_27
REMARK    9  A    between atoms: C_22  and  C_24
REMARK   10  A    between atoms: C_28  and  O_30
REMARK   11  A    between atoms: O_30  and  C_31
REMARK   12  A    between atoms: C_31  and  C_32
REMARK   13  A    between atoms: C_31  and  C_33
REMARK                            x       y       z     vdW  Elec       q    Type
REMARK                         _______ _______ _______ _____ _____    ______ ____
ROOT
ATOM      1  C   UNL     1      -4.948   1.668   6.282  0.00  0.00    +0.232 C 
ATOM      2  O   UNL     1      -3.901   1.787   6.882  0.00  0.00    -0.274 OA
ATOM      3  N   UNL     1      -6.093   2.126   6.827  0.00  0.00    -0.278 N 
ATOM      4  H   UNL     1      -6.931   2.030   6.347  0.00  0.00    +0.155 HD
ENDROOT
BRANCH   3   5
ATOM      5  C   UNL     1      -6.073   2.730   8.069  0.00  0.00    +0.087 A 
ATOM      6  C   UNL     1      -7.149   3.255   8.788  0.00  0.00    +0.091 A 
ATOM      7  C   UNL     1      -6.880   3.818  10.028  0.00  0.00    -0.015 A 
ATOM      8  C   UNL     1      -5.571   3.804  10.430  0.00  0.00    +0.079 A 
ATOM      9  S   UNL     1      -4.751   2.999   9.069  0.00  0.00    -0.068 S 
ATOM     10  C   UNL     1      -7.968   4.413  10.884  0.00  0.00    +0.046 C 
BRANCH   8  11
ATOM     11  C   UNL     1      -4.991   4.319  11.672  0.00  0.00    +0.248 C 
ATOM     12  O   UNL     1      -5.706   4.842  12.507  0.00  0.00    -0.270 OA
ATOM     13  N   UNL     1      -3.665   4.213  11.891  0.00  0.00    -0.325 N 
ATOM     14  H   UNL     1      -3.096   3.796  11.226  0.00  0.00    +0.145 HD
ATOM     15  H   UNL     1      -3.281   4.554  12.714  0.00  0.00    +0.145 HD
ENDBRANCH   8  11
BRANCH   6  16
ATOM     16  C   UNL     1      -8.514   3.213   8.252  0.00  0.00    +0.342 C 
ATOM     17  O   UNL     1      -9.231   2.259   8.489  0.00  0.00    -0.245 OA
BRANCH  16  18
ATOM     18  O   UNL     1      -8.974   4.232   7.498  0.00  0.00    -0.458 OA
BRANCH  18  19
ATOM     19  C   UNL     1     -10.313   4.124   7.010  0.00  0.00    +0.171 C 
ATOM     20  C   UNL     1     -11.277   4.745   8.023  0.00  0.00    +0.052 C 
ATOM     21  C   UNL     1     -10.430   4.863   5.675  0.00  0.00    +0.052 C 
ENDBRANCH  18  19
ENDBRANCH  16  18
ENDBRANCH   6  16
ENDBRANCH   3   5
BRANCH   1  22
ATOM     22  C   UNL     1      -4.970   1.009   4.927  0.00  0.00    +0.180 C 
BRANCH  22  26
ATOM     23  N   UNL     1      -1.342   0.478   2.824  0.00  0.00    +0.384 N 
ATOM     24  C   UNL     1      -2.189  -0.701   3.048  0.00  0.00    -0.063 C 
ATOM     25  C   UNL     1      -3.617  -0.251   3.362  0.00  0.00    +0.066 C 
ATOM     26  N   UNL     1      -3.607   0.601   4.559  0.00  0.00    -0.298 NA
ATOM     27  C   UNL     1      -2.743   1.774   4.358  0.00  0.00    +0.066 C 
ATOM     28  C   UNL     1      -1.322   1.307   4.036  0.00  0.00    -0.063 C 
ATOM     29  H   UNL     1      -1.712   1.016   2.055  0.00  0.00    -0.081 HD
BRANCH  23  30
ATOM     30  C   UNL     1       0.025   0.045   2.504  0.00  0.00    -0.043 C 
BRANCH  30  37
ATOM     31  C   UNL     1      -0.018   1.503   0.010  0.00  0.00    +0.044 C 
ATOM     32  C   UNL     1       0.002  -0.004   0.002  0.00  0.00    -0.049 A 
ATOM     33  C   UNL     1       0.006  -0.689  -1.199  0.00  0.00    +0.003 A 
ATOM     34  C   UNL     1       0.025  -2.071  -1.207  0.00  0.00    +0.000 A 
ATOM     35  C   UNL     1       0.040  -2.768  -0.013  0.00  0.00    +0.000 A 
ATOM     36  C   UNL     1       0.037  -2.084   1.188  0.00  0.00    +0.002 A 
ATOM     37  C   UNL     1       0.023  -0.702   1.195  0.00  0.00    -0.061 A 
ENDBRANCH  30  37
ENDBRANCH  23  30
ENDBRANCH  22  26
ENDBRANCH   1  22
TORSDOF 9
