REMARK  Name = ZINC58363379
REMARK  8 active torsions:
REMARK  status: ('A' for Active; 'I' for Inactive)
REMARK    1  A    between atoms: C_1  and  C_2
REMARK    2  A    between atoms: N_5  and  S_11
REMARK    3  A    between atoms: C_7  and  C_10
REMARK    4  A    between atoms: S_11  and  C_14
REMARK    5  A    between atoms: C_14  and  C_15
REMARK    6  A    between atoms: C_15  and  N_16
REMARK    7  A    between atoms: N_18  and  C_19
REMARK    8  A    between atoms: C_19  and  C_20
REMARK                            x       y       z     vdW  Elec       q    Type
REMARK                         _______ _______ _______ _____ _____    ______ ____
ROOT
ATOM      1  N   UNL     1      -0.808  -4.616  -4.256  0.00  0.00    -0.356 N 
ATOM      2  C   UNL     1      -1.193  -5.444  -5.283  0.00  0.00    +0.169 C 
ATOM      3  N   UNL     1      -0.363  -5.711  -6.252  0.00  0.00    -0.355 N 
ATOM      4  N   UNL     1      -2.455  -5.990  -5.289  0.00  0.00    -0.371 N 
ATOM      5  H   UNL     1       0.082  -4.230  -4.251  0.00  0.00    +0.162 HD
ATOM      6  H   UNL     1      -3.073  -5.792  -4.569  0.00  0.00    +0.159 HD
ATOM      7  H   UNL     1      -2.727  -6.575  -6.014  0.00  0.00    +0.159 HD
ATOM      8  H   UNL     1       0.527  -5.325  -6.247  0.00  0.00    +0.162 HD
ENDROOT
BRANCH   1   9
ATOM      9  C   UNL     1      -1.741  -4.316  -3.167  0.00  0.00    +0.139 C 
BRANCH   9  10
ATOM     10  C   UNL     1      -1.069  -3.378  -2.162  0.00  0.00    +0.206 C 
BRANCH  10  11
ATOM     11  S   UNL     1      -2.225  -3.006  -0.815  0.00  0.00    +0.034 S 
ATOM     12  O   UNL     1      -2.466  -4.174  -0.041  0.00  0.00    -0.158 OA
ATOM     13  O   UNL     1      -3.306  -2.222  -1.300  0.00  0.00    -0.158 OA
BRANCH  11  17
ATOM     14  C   UNL     1      -0.019   1.526   0.010  0.00  0.00    +0.039 C 
ATOM     15  C   UNL     1       0.002  -0.004   0.002  0.00  0.00    +0.131 C 
ATOM     16  C   UNL     1      -1.436  -0.536   0.015  0.00  0.00    +0.140 C 
ATOM     17  N   UNL     1      -1.389  -1.995   0.196  0.00  0.00    -0.176 NA
ATOM     18  C   UNL     1      -0.578  -2.530   1.302  0.00  0.00    +0.140 C 
ATOM     19  C   UNL     1       0.818  -1.901   1.226  0.00  0.00    +0.131 C 
ATOM     20  O   UNL     1       0.691  -0.479   1.161  0.00  0.00    -0.371 OA
ATOM     21  C   UNL     1       1.621  -2.288   2.469  0.00  0.00    +0.039 C 
ENDBRANCH  11  17
ENDBRANCH  10  11
ENDBRANCH   9  10
ENDBRANCH   1   9
BRANCH   3  22
ATOM     22  C   UNL     1      -0.773  -6.593  -7.346  0.00  0.00    +0.147 C 
BRANCH  22  23
ATOM     23  C   UNL     1       0.379  -6.740  -8.342  0.00  0.00    +0.137 C 
ATOM     24  C   UNL     1      -0.084  -7.570  -9.560  0.00  0.00    +0.035 C 
ATOM     25  C   UNL     1       1.166  -8.442  -9.858  0.00  0.00    +0.031 C 
ATOM     26  C   UNL     1       1.712  -8.673  -8.427  0.00  0.00    +0.160 C 
ATOM     27  O   UNL     1       1.466  -7.440  -7.728  0.00  0.00    -0.375 OA
ENDBRANCH  22  23
ENDBRANCH   3  22
TORSDOF 6
