REMARK  Name = ZINC06973751
REMARK  8 active torsions:
REMARK  status: ('A' for Active; 'I' for Inactive)
REMARK    1  A    between atoms: C_1  and  O_2
REMARK    2  A    between atoms: O_2  and  C_3
REMARK    3  A    between atoms: C_6  and  N_9
REMARK    4  A    between atoms: C_13  and  S_17
REMARK    5  A    between atoms: S_17  and  C_18
REMARK    6  A    between atoms: N_20  and  N_21
REMARK    7  A    between atoms: C_22  and  C_23
REMARK    8  A    between atoms: C_32  and  O_33
REMARK                            x       y       z     vdW  Elec       q    Type
REMARK                         _______ _______ _______ _____ _____    ______ ____
ROOT
ATOM      1  C   UNL     1       4.461  -6.527  -4.753  0.00  0.00    +0.146 C 
ATOM      2  N   UNL     1       3.201  -6.848  -4.640  0.00  0.00    -0.380 N 
ATOM      3  N   UNL     1       5.436  -7.432  -4.399  0.00  0.00    -0.217 N 
ATOM      4  H   UNL     1       2.952  -7.725  -4.308  0.00  0.00    +0.158 HD
ATOM      5  H   UNL     1       6.373  -7.193  -4.483  0.00  0.00    +0.176 HD
ATOM      6  H   UNL     1       2.514  -6.211  -4.890  0.00  0.00    +0.158 HD
ENDROOT
BRANCH   3   7
ATOM      7  N   UNL     1       5.076  -8.698  -3.918  0.00  0.00    -0.188 NA
ATOM      8  C   UNL     1       5.997  -9.552  -3.585  0.00  0.00    +0.142 C 
BRANCH   8   9
ATOM      9  C   UNL     1       5.620 -10.880  -3.080  0.00  0.00    +0.044 A 
ATOM     10  C   UNL     1       6.642 -11.850  -2.694  0.00  0.00    -0.006 A 
ATOM     11  C   UNL     1       8.007 -11.552  -2.791  0.00  0.00    +0.009 A 
ATOM     12  C   UNL     1       8.928 -12.485  -2.420  0.00  0.00    +0.001 A 
ATOM     13  C   UNL     1       8.532 -13.733  -1.946  0.00  0.00    +0.001 A 
ATOM     14  C   UNL     1       7.213 -14.056  -1.840  0.00  0.00    +0.008 A 
ATOM     15  C   UNL     1       6.235 -13.119  -2.213  0.00  0.00    -0.017 A 
ATOM     16  C   UNL     1       4.865 -13.416  -2.116  0.00  0.00    +0.012 A 
ATOM     17  C   UNL     1       3.927 -12.502  -2.479  0.00  0.00    +0.046 A 
ATOM     18  C   UNL     1       4.278 -11.239  -2.954  0.00  0.00    +0.126 A 
BRANCH  18  19
ATOM     19  O   UNL     1       3.308 -10.355  -3.300  0.00  0.00    -0.506 OA
ATOM     20  H   UNL     1       3.033 -10.414  -4.225  0.00  0.00    +0.292 HD
ENDBRANCH  18  19
ENDBRANCH   8   9
ENDBRANCH   3   7
BRANCH   1  21
ATOM     21  S   UNL     1       4.914  -4.935  -5.358  0.00  0.00    -0.078 S 
BRANCH  21  26
ATOM     22  N   UNL     1       2.460  -2.459  -4.303  0.00  0.00    -0.209 N 
ATOM     23  C   UNL     1       2.943  -1.775  -5.348  0.00  0.00    +0.228 C 
ATOM     24  O   UNL     1       2.904  -0.570  -5.478  0.00  0.00    -0.275 OA
ATOM     25  C   UNL     1       3.546  -2.744  -6.341  0.00  0.00    +0.120 C 
ATOM     26  C   UNL     1       3.325  -4.121  -5.682  0.00  0.00    +0.149 C 
ATOM     27  C   UNL     1       2.626  -3.785  -4.383  0.00  0.00    +0.240 C 
ATOM     28  O   UNL     1       2.271  -4.588  -3.548  0.00  0.00    -0.274 OA
BRANCH  22  32
ATOM     29  C   UNL     1       0.607  -0.607  -1.056  0.00  0.00    +0.120 A 
ATOM     30  C   UNL     1       1.832  -1.237  -0.889  0.00  0.00    +0.047 A 
ATOM     31  C   UNL     1       2.445  -1.850  -1.963  0.00  0.00    +0.027 A 
ATOM     32  C   UNL     1       1.837  -1.836  -3.210  0.00  0.00    +0.044 A 
ATOM     33  C   UNL     1       0.612  -1.205  -3.377  0.00  0.00    +0.027 A 
ATOM     34  C   UNL     1      -0.004  -0.597  -2.301  0.00  0.00    +0.047 A 
BRANCH  29  36
ATOM     35  C   UNL     1       0.689  -0.052   1.255  0.00  0.00    +0.277 C 
ATOM     36  O   UNL     1       0.003  -0.003   0.002  0.00  0.00    -0.495 OA
ENDBRANCH  29  36
ENDBRANCH  22  32
ENDBRANCH  21  26
ENDBRANCH   1  21
TORSDOF 7
