REMARK  Name = ZINC63084120
REMARK  10 active torsions:
REMARK  status: ('A' for Active; 'I' for Inactive)
REMARK    1  A    between atoms: C_1  and  C_2
REMARK    2  A    between atoms: C_2  and  C_3
REMARK    3  A    between atoms: C_2  and  N_4
REMARK    4  A    between atoms: N_4  and  C_5
REMARK    5  A    between atoms: N_4  and  C_8
REMARK    6  A    between atoms: C_5  and  C_6
REMARK    7  A    between atoms: C_6  and  O_7
REMARK    8  A    between atoms: C_8  and  C_9
REMARK    9  A    between atoms: N_15  and  C_18
REMARK   10  A    between atoms: N_19  and  N_20
REMARK                            x       y       z     vdW  Elec       q    Type
REMARK                         _______ _______ _______ _____ _____    ______ ____
ROOT
ATOM      1  C   UNL     1      -0.544  -2.337   1.268  0.00  0.00    +0.117 A 
ATOM      2  N   UNL     1       0.754  -2.236   1.498  0.00  0.00    -0.217 NA
ATOM      3  C   UNL     1       1.272  -2.571   2.674  0.00  0.00    +0.146 A 
ATOM      4  C   UNL     1       0.404  -3.040   3.679  0.00  0.00    +0.079 A 
ATOM      5  C   UNL     1       0.572  -3.479   5.011  0.00  0.00    +0.148 A 
ATOM      6  N   UNL     1      -0.596  -3.807   5.487  0.00  0.00    -0.177 NA
ATOM      7  N   UNL     1      -1.578  -3.604   4.509  0.00  0.00    -0.249 N 
ATOM      8  C   UNL     1      -0.970  -3.130   3.385  0.00  0.00    +0.163 A 
ATOM      9  N   UNL     1      -1.393  -2.764   2.176  0.00  0.00    -0.215 NA
ATOM     10  C   UNL     1      -3.012  -3.859   4.667  0.00  0.00    +0.174 C 
ATOM     11  N   UNL     1       2.630  -2.462   2.906  0.00  0.00    -0.267 N 
ATOM     12  H   UNL     1       2.996  -2.711   3.769  0.00  0.00    +0.167 HD
ENDROOT
BRANCH  11  13
ATOM     13  N   UNL     1       3.456  -2.006   1.919  0.00  0.00    -0.255 NA
ATOM     14  H   UNL     1       3.160  -1.099   1.590  0.00  0.00    +0.140 HD
ATOM     15  H   UNL     1       4.415  -1.981   2.233  0.00  0.00    +0.140 HD
ENDBRANCH  11  13
BRANCH   1  16
ATOM     16  C   UNL     1      -1.071  -1.941  -0.087  0.00  0.00    -0.001 C 
BRANCH  16  17
ATOM     17  N   UNL     1      -1.599  -0.571  -0.025  0.00  0.00    +0.387 N 
ATOM     18  H   UNL     1      -1.935  -0.382   0.907  0.00  0.00    -0.081 HD
BRANCH  17  20
ATOM     19  C   UNL     1       0.660   0.164   0.572  0.00  0.00    -0.014 C 
ATOM     20  C   UNL     1      -0.532   0.381  -0.363  0.00  0.00    -0.074 C 
ATOM     21  C   UNL     1      -0.090   0.159  -1.811  0.00  0.00    -0.014 C 
ENDBRANCH  17  20
BRANCH  17  22
ATOM     22  C   UNL     1      -2.703  -0.428  -0.983  0.00  0.00    -0.050 C 
BRANCH  22  23
ATOM     23  C   UNL     1      -3.353   0.946  -0.811  0.00  0.00    +0.137 C 
BRANCH  23  24
ATOM     24  O   UNL     1      -2.434   1.962  -1.217  0.00  0.00    -0.397 OA
ATOM     25  H   UNL     1      -2.751   2.863  -1.063  0.00  0.00    +0.209 HD
ENDBRANCH  23  24
ENDBRANCH  22  23
ENDBRANCH  17  22
ENDBRANCH  16  17
ENDBRANCH   1  16
TORSDOF 7
