REMARK  Name = ZINC39528244
REMARK  6 active torsions:
REMARK  status: ('A' for Active; 'I' for Inactive)
REMARK    1  A    between atoms: C_4  and  C_7
REMARK    2  A    between atoms: C_7  and  C_8
REMARK    3  A    between atoms: C_13  and  N_14
REMARK    4  A    between atoms: C_18  and  S_21
REMARK    5  A    between atoms: S_21  and  O_24
REMARK    6  A    between atoms: O_24  and  C_25
REMARK                            x       y       z     vdW  Elec       q    Type
REMARK                         _______ _______ _______ _____ _____    ______ ____
ROOT
ATOM      1  N   UNL     1       2.993  -3.294   0.668  0.00  0.00    -0.331 N 
ATOM      2  C   UNL     1       3.332  -4.390  -0.252  0.00  0.00    +0.086 C 
ATOM      3  C   UNL     1       2.440  -4.277  -1.493  0.00  0.00    -0.061 C 
ATOM      4  N   UNL     1       1.031  -4.245  -1.080  0.00  0.00    +0.398 N 
ATOM      5  C   UNL     1       0.767  -3.035  -0.292  0.00  0.00    +0.133 C 
ATOM      6  C   UNL     1       1.577  -3.091   1.013  0.00  0.00    +0.115 C 
ATOM      7  H   UNL     1       0.442  -4.247  -1.899  0.00  0.00    -0.083 HD
ATOM      8  H   UNL     1       0.827  -5.061  -0.521  0.00  0.00    -0.083 HD
ENDROOT
BRANCH   1  14
ATOM      9  C   UNL     1       4.448  -1.377   0.485  0.00  0.00    -0.021 A 
ATOM     10  C   UNL     1       5.427  -0.563   1.020  0.00  0.00    +0.025 A 
ATOM     11  C   UNL     1       5.954  -0.842   2.268  0.00  0.00    +0.041 A 
ATOM     12  C   UNL     1       5.502  -1.936   2.985  0.00  0.00    +0.022 A 
ATOM     13  C   UNL     1       4.523  -2.753   2.455  0.00  0.00    +0.025 A 
ATOM     14  C   UNL     1       3.988  -2.472   1.204  0.00  0.00    +0.033 A 
ATOM     15 CL   UNL     1       7.186   0.183   2.938  0.00  0.00    -0.084 Cl
BRANCH   9  16
ATOM     16  C   UNL     1       3.874  -1.072  -0.875  0.00  0.00    +0.072 C 
BRANCH  16  20
ATOM     17  C   UNL     1       6.008   2.187  -2.627  0.00  0.00    +0.000 A 
ATOM     18  C   UNL     1       6.454   0.891  -2.809  0.00  0.00    +0.000 A 
ATOM     19  C   UNL     1       5.763  -0.164  -2.242  0.00  0.00    +0.004 A 
ATOM     20  C   UNL     1       4.627   0.077  -1.492  0.00  0.00    -0.043 A 
ATOM     21  C   UNL     1       4.182   1.373  -1.309  0.00  0.00    +0.004 A 
ATOM     22  C   UNL     1       4.872   2.428  -1.877  0.00  0.00    +0.000 A 
ENDBRANCH  16  20
ENDBRANCH   9  16
ENDBRANCH   1  14
BRANCH   5  23
ATOM     23  S   UNL     1      -1.001  -2.942   0.100  0.00  0.00    +0.109 S 
ATOM     24  O   UNL     1      -1.752  -2.701  -1.082  0.00  0.00    -0.138 OA
ATOM     25  O   UNL     1      -1.363  -3.992   0.987  0.00  0.00    -0.138 OA
BRANCH  23  26
ATOM     26  O   UNL     1      -1.153  -1.670   0.923  0.00  0.00    -0.347 OA
BRANCH  26  27
ATOM     27  C   UNL     1      -1.094  -0.527   0.190  0.00  0.00    +0.156 A 
ATOM     28  C   UNL     1       0.122   0.113  -0.003  0.00  0.00    +0.048 A 
ATOM     29  C   UNL     1       0.180   1.274  -0.749  0.00  0.00    +0.004 A 
ATOM     30  C   UNL     1      -0.973   1.799  -1.303  0.00  0.00    +0.000 A 
ATOM     31  C   UNL     1      -2.186   1.164  -1.112  0.00  0.00    +0.004 A 
ATOM     32  C   UNL     1      -2.248  -0.001  -0.372  0.00  0.00    +0.048 A 
ENDBRANCH  26  27
ENDBRANCH  23  26
ENDBRANCH   5  23
TORSDOF 6
