REMARK  Name = ZINC58505803
REMARK  12 active torsions:
REMARK  status: ('A' for Active; 'I' for Inactive)
REMARK    1  A    between atoms: C_1  and  N_2
REMARK    2  A    between atoms: N_2  and  C_3
REMARK    3  A    between atoms: N_2  and  C_6
REMARK    4  A    between atoms: C_3  and  C_4
REMARK    5  A    between atoms: C_4  and  O_5
REMARK    6  A    between atoms: C_6  and  C_7
REMARK    7  A    between atoms: C_7  and  C_8
REMARK    8  A    between atoms: C_7  and  O_25
REMARK    9  A    between atoms: C_8  and  O_9
REMARK   10  A    between atoms: O_9  and  C_10
REMARK   11  A    between atoms: C_10  and  C_11
REMARK   12  A    between atoms: C_10  and  C_18
REMARK                            x       y       z     vdW  Elec       q    Type
REMARK                         _______ _______ _______ _____ _____    ______ ____
ROOT
ATOM      1  C   UNL     1       5.043  -0.495   3.469  0.00  0.00    +0.178 C 
ENDROOT
BRANCH   1   2
ATOM      2  C   UNL     1       5.737  -1.792   3.143  0.00  0.00    -0.014 A 
ATOM      3  C   UNL     1       6.280  -1.988   1.887  0.00  0.00    +0.008 A 
ATOM      4  C   UNL     1       6.917  -3.178   1.587  0.00  0.00    +0.020 A 
ATOM      5  C   UNL     1       7.010  -4.173   2.544  0.00  0.00    +0.041 A 
ATOM      6  C   UNL     1       6.467  -3.976   3.800  0.00  0.00    +0.020 A 
ATOM      7  C   UNL     1       5.835  -2.784   4.101  0.00  0.00    +0.008 A 
ATOM      8 CL   UNL     1       7.809  -5.667   2.167  0.00  0.00    -0.084 Cl
ENDBRANCH   1   2
BRANCH   1   9
ATOM      9  C   UNL     1       6.072   0.560   3.784  0.00  0.00    -0.014 A 
ATOM     10  C   UNL     1       6.652   1.287   2.762  0.00  0.00    +0.008 A 
ATOM     11  C   UNL     1       7.596   2.254   3.050  0.00  0.00    +0.020 A 
ATOM     12  C   UNL     1       7.961   2.495   4.363  0.00  0.00    +0.041 A 
ATOM     13  C   UNL     1       7.380   1.767   5.386  0.00  0.00    +0.020 A 
ATOM     14  C   UNL     1       6.432   0.804   5.097  0.00  0.00    +0.008 A 
ATOM     15 CL   UNL     1       9.147   3.710   4.725  0.00  0.00    -0.084 Cl
ENDBRANCH   1   9
BRANCH   1  16
ATOM     16  O   UNL     1       4.261  -0.078   2.349  0.00  0.00    -0.365 OA
BRANCH  16  17
ATOM     17  C   UNL     1       2.921  -0.572   2.359  0.00  0.00    +0.190 C 
BRANCH  17  18
ATOM     18  C   UNL     1       2.180  -0.066   1.119  0.00  0.00    +0.124 C 
BRANCH  18  19
ATOM     19  O   UNL     1       2.780  -0.621  -0.053  0.00  0.00    -0.391 OA
ATOM     20  H   UNL     1       2.760  -1.587  -0.085  0.00  0.00    +0.210 HD
ENDBRANCH  18  19
BRANCH  18  21
ATOM     21  C   UNL     1       0.713  -0.491   1.192  0.00  0.00    -0.045 C 
BRANCH  21  23
ATOM     22  C   UNL     1      -0.018   1.465   0.010  0.00  0.00    -0.096 C 
ATOM     23  N   UNL     1       0.002  -0.004   0.002  0.00  0.00    +0.381 N 
ATOM     24  H   UNL     1       0.474  -0.330  -0.828  0.00  0.00    -0.082 HD
BRANCH  23  25
ATOM     25  C   UNL     1      -1.376  -0.512   0.012  0.00  0.00    -0.051 C 
BRANCH  25  26
ATOM     26  C   UNL     1      -2.078  -0.110  -1.286  0.00  0.00    +0.137 C 
BRANCH  26  27
ATOM     27  O   UNL     1      -1.444  -0.758  -2.391  0.00  0.00    -0.397 OA
ATOM     28  H   UNL     1      -1.838  -0.549  -3.249  0.00  0.00    +0.209 HD
ENDBRANCH  26  27
ENDBRANCH  25  26
ENDBRANCH  23  25
ENDBRANCH  21  23
ENDBRANCH  18  21
ENDBRANCH  17  18
ENDBRANCH  16  17
ENDBRANCH   1  16
TORSDOF 11
