REMARK  Name = ZINC12465691
REMARK  8 active torsions:
REMARK  status: ('A' for Active; 'I' for Inactive)
REMARK    1  A    between atoms: C_1  and  N_54
REMARK    2  A    between atoms: C_2  and  N_54
REMARK    3  A    between atoms: C_3  and  C_4
REMARK    4  A    between atoms: C_3  and  N_54
REMARK    5  A    between atoms: C_4  and  N_5
REMARK    6  A    between atoms: C_15  and  C_17
REMARK    7  A    between atoms: N_22  and  S_23
REMARK    8  A    between atoms: S_23  and  C_26
REMARK                            x       y       z     vdW  Elec       q    Type
REMARK                         _______ _______ _______ _____ _____    ______ ____
ROOT
ATOM      1  N   UNL     1      -1.349  -0.849  -0.620  0.00  0.00    -0.251 N 
ATOM      2  C   UNL     1      -0.430   0.118  -0.993  0.00  0.00    +0.168 A 
ATOM      3  N   UNL     1      -0.345   1.368  -0.603  0.00  0.00    -0.224 NA
ATOM      4  C   UNL     1       0.613   2.206  -1.054  0.00  0.00    +0.080 A 
ATOM      5  C   UNL     1       0.814   3.565  -0.717  0.00  0.00    +0.029 A 
ATOM      6  C   UNL     1       1.845   4.278  -1.270  0.00  0.00    +0.002 A 
ATOM      7  C   UNL     1       2.724   3.700  -2.174  0.00  0.00    +0.001 A 
ATOM      8  C   UNL     1       2.557   2.373  -2.526  0.00  0.00    +0.017 A 
ATOM      9  C   UNL     1       1.527   1.651  -1.978  0.00  0.00    +0.041 A 
ATOM     10  S   UNL     1       0.944  -0.021  -2.127  0.00  0.00    -0.052 S 
ATOM     11  C   UNL     1      -2.325  -0.547   0.260  0.00  0.00    +0.240 C 
ATOM     12  O   UNL     1      -2.455   0.593   0.653  0.00  0.00    -0.273 OA
ENDROOT
BRANCH  11  13
ATOM     13  C   UNL     1      -3.253  -1.626   0.755  0.00  0.00    +0.166 C 
ATOM     14  C   UNL     1      -2.693  -2.245   2.053  0.00  0.00    +0.031 C 
ATOM     15  C   UNL     1      -3.969  -2.478   2.905  0.00  0.00    +0.019 C 
ATOM     16  C   UNL     1      -4.833  -1.254   2.513  0.00  0.00    +0.110 C 
ATOM     17  N   UNL     1      -4.567  -1.047   1.075  0.00  0.00    -0.164 NA
BRANCH  17  18
ATOM     18  S   UNL     1      -5.575  -0.290   0.001  0.00  0.00    +0.068 S 
ATOM     19  O   UNL     1      -6.407   0.572   0.764  0.00  0.00    -0.152 OA
ATOM     20  O   UNL     1      -4.756   0.183  -1.060  0.00  0.00    -0.152 OA
BRANCH  18  21
ATOM     21  C   UNL     1      -6.626  -1.526  -0.686  0.00  0.00    +0.144 A 
ATOM     22  C   UNL     1      -7.833  -1.960  -0.248  0.00  0.00    +0.038 A 
ATOM     23  C   UNL     1      -8.486  -2.952  -0.955  0.00  0.00    +0.030 A 
ATOM     24  C   UNL     1      -7.899  -3.462  -2.067  0.00  0.00    +0.080 A 
ATOM     25  S   UNL     1      -6.381  -2.525  -2.145  0.00  0.00    -0.057 S 
ATOM     26 CL   UNL     1      -8.477  -4.699  -3.139  0.00  0.00    -0.076 Cl
ENDBRANCH  18  21
ENDBRANCH  17  18
ENDBRANCH  11  13
BRANCH   1  27
ATOM     27  C   UNL     1      -1.262  -2.199  -1.181  0.00  0.00    +0.097 C 
BRANCH  27  28
ATOM     28  C   UNL     1      -0.452  -3.092  -0.239  0.00  0.00    -0.060 C 
BRANCH  28  31
ATOM     29  C   UNL     1       0.707  -5.213  -0.097  0.00  0.00    -0.097 C 
ATOM     30  C   UNL     1      -1.539  -5.118  -0.998  0.00  0.00    -0.097 C 
ATOM     31  N   UNL     1      -0.249  -4.406  -0.885  0.00  0.00    +0.377 N 
ATOM     32  H   UNL     1       0.135  -4.259  -1.825  0.00  0.00    -0.083 HD
ENDBRANCH  28  31
ENDBRANCH  27  28
ENDBRANCH   1  27
TORSDOF 6
