REMARK  Name = ZINC59935263
REMARK  8 active torsions:
REMARK  status: ('A' for Active; 'I' for Inactive)
REMARK    1  A    between atoms: C_1  and  C_2
REMARK    2  A    between atoms: C_5  and  C_7
REMARK    3  A    between atoms: C_9  and  C_12
REMARK    4  A    between atoms: C_12  and  C_13
REMARK    5  A    between atoms: N_15  and  C_16
REMARK    6  A    between atoms: C_20  and  C_22
REMARK    7  A    between atoms: C_22  and  N_23
REMARK    8  A    between atoms: C_27  and  C_29
REMARK                            x       y       z     vdW  Elec       q    Type
REMARK                         _______ _______ _______ _____ _____    ______ ____
ROOT
ATOM      1  C   UNL     1       7.492  -2.700  -2.507  0.00  0.00    +0.034 A 
ATOM      2  C   UNL     1       6.630  -2.061  -3.388  0.00  0.00    +0.023 A 
ATOM      3  C   UNL     1       7.138  -1.387  -4.482  0.00  0.00    +0.002 A 
ATOM      4  C   UNL     1       8.504  -1.350  -4.699  0.00  0.00    +0.002 A 
ATOM      5  C   UNL     1       9.364  -1.986  -3.824  0.00  0.00    -0.062 A 
ATOM      6  C   UNL     1       8.863  -2.655  -2.724  0.00  0.00    +0.025 A 
ENDROOT
BRANCH   1   9
ATOM      7  C   UNL     1       5.807  -4.040  -1.493  0.00  0.00    +0.223 C 
ATOM      8  O   UNL     1       5.154  -3.969  -2.512  0.00  0.00    -0.275 OA
ATOM      9  N   UNL     1       6.981  -3.384  -1.398  0.00  0.00    -0.285 N 
ATOM     10  H   UNL     1       7.471  -3.385  -0.561  0.00  0.00    +0.155 HD
BRANCH   7  11
ATOM     11  C   UNL     1       5.307  -4.862  -0.333  0.00  0.00    +0.152 C 
BRANCH  11  14
ATOM     12  C   UNL     1       1.816  -5.260  -1.426  0.00  0.00    +0.144 A 
ATOM     13  N   UNL     1       2.991  -4.733  -1.102  0.00  0.00    -0.240 NA
ATOM     14  C   UNL     1       3.985  -5.487  -0.694  0.00  0.00    +0.058 A 
ATOM     15  C   UNL     1       3.819  -6.833  -0.597  0.00  0.00    +0.071 A 
ATOM     16  S   UNL     1       2.119  -6.997  -1.126  0.00  0.00    -0.072 S 
BRANCH  12  21
ATOM     17  C   UNL     1      -1.370  -1.670  -2.875  0.00  0.00    +0.086 C 
ATOM     18  C   UNL     1      -0.808  -3.026  -2.534  0.00  0.00    +0.103 A 
ATOM     19  C   UNL     1      -1.475  -4.195  -2.614  0.00  0.00    +0.045 A 
ATOM     20  C   UNL     1      -0.585  -5.208  -2.208  0.00  0.00    +0.052 A 
ATOM     21  C   UNL     1       0.592  -4.594  -1.899  0.00  0.00    +0.160 A 
ATOM     22  O   UNL     1       0.442  -3.271  -2.108  0.00  0.00    -0.458 OA
ENDBRANCH  12  21
ENDBRANCH  11  14
ENDBRANCH   7  11
ENDBRANCH   1   9
BRANCH   5  23
ATOM     23  C   UNL     1      10.851  -1.942  -4.065  0.00  0.00    -0.042 C 
BRANCH  23  24
ATOM     24  N   UNL     1      11.423  -0.770  -3.389  0.00  0.00    +0.390 N 
ATOM     25  C   UNL     1      11.354  -0.944  -1.916  0.00  0.00    -0.077 C 
ATOM     26  C   UNL     1      12.446   0.024  -1.393  0.00  0.00    -0.020 C 
ATOM     27  C   UNL     1      13.564  -0.112  -2.452  0.00  0.00    -0.008 C 
ATOM     28  C   UNL     1      12.860  -0.645  -3.714  0.00  0.00    +0.019 C 
ATOM     29  H   UNL     1      10.930   0.066  -3.665  0.00  0.00    -0.080 HD
BRANCH  28  30
ATOM     30  C   UNL     1      13.047   0.324  -4.854  0.00  0.00    +0.197 C 
ATOM     31  O   UNL     1      12.083   0.864  -5.354  0.00  0.00    -0.278 OA
ATOM     32  N   UNL     1      14.284   0.590  -5.316  0.00  0.00    -0.331 N 
ATOM     33  H   UNL     1      15.055   0.159  -4.915  0.00  0.00    +0.145 HD
ATOM     34  H   UNL     1      14.404   1.214  -6.049  0.00  0.00    +0.145 HD
ENDBRANCH  28  30
ENDBRANCH  23  24
ENDBRANCH   5  23
TORSDOF 7
