REMARK  Name = ZINC08789383
REMARK  9 active torsions:
REMARK  status: ('A' for Active; 'I' for Inactive)
REMARK    1  A    between atoms: C_1  and  C_2
REMARK    2  A    between atoms: C_2  and  C_3
REMARK    3  A    between atoms: C_17  and  C_19
REMARK    4  A    between atoms: C_19  and  C_21
REMARK    5  A    between atoms: C_19  and  O_22
REMARK    6  A    between atoms: N_25  and  C_28
REMARK    7  A    between atoms: C_28  and  C_29
REMARK    8  A    between atoms: C_34  and  O_35
REMARK    9  A    between atoms: O_35  and  C_36
REMARK                            x       y       z     vdW  Elec       q    Type
REMARK                         _______ _______ _______ _____ _____    ______ ____
ROOT
ATOM      1  C   UNL     1       1.454  -0.535  -0.063  0.00  0.00    -0.026 A 
ATOM      2  C   UNL     1       2.578   0.255   0.064  0.00  0.00    +0.005 A 
ATOM      3  C   UNL     1       2.460   1.630   0.145  0.00  0.00    +0.001 A 
ATOM      4  C   UNL     1       1.208   2.217   0.099  0.00  0.00    +0.004 A 
ATOM      5  C   UNL     1       0.083   1.434  -0.028  0.00  0.00    -0.027 A 
ATOM      6  C   UNL     1       0.190   0.048  -0.112  0.00  0.00    +0.039 A 
ATOM      7  N   UNL     1      -1.077  -0.527  -0.237  0.00  0.00    -0.286 N 
ATOM      8  C   UNL     1      -2.056   0.398  -0.244  0.00  0.00    +0.211 C 
ATOM      9  O   UNL     1      -3.247   0.190  -0.342  0.00  0.00    -0.277 OA
ATOM     10  C   UNL     1      -1.387   1.737  -0.100  0.00  0.00    +0.050 C 
ATOM     11  C   UNL     1      -1.869   2.479   1.153  0.00  0.00    +0.088 C 
ATOM     12  C   UNL     1      -1.896   3.976   0.734  0.00  0.00    +0.075 C 
ATOM     13  C   UNL     1      -1.415   3.986  -0.733  0.00  0.00    -0.028 C 
ATOM     14  C   UNL     1      -3.366   4.326   0.781  0.00  0.00    +0.224 C 
ATOM     15  O   UNL     1      -3.837   5.410   0.514  0.00  0.00    -0.275 OA
ATOM     16  N   UNL     1      -4.066   3.252   1.163  0.00  0.00    -0.237 N 
ATOM     17  C   UNL     1      -3.327   2.162   1.400  0.00  0.00    +0.225 C 
ATOM     18  O   UNL     1      -3.759   1.087   1.757  0.00  0.00    -0.275 OA
ATOM     19  H   UNL     1      -1.233  -1.482  -0.312  0.00  0.00    +0.155 HD
ATOM     20  N   UNL     1      -1.691   2.627  -1.206  0.00  0.00    +0.396 N 
ATOM     21  H   UNL     1      -2.679   2.538  -1.472  0.00  0.00    -0.083 HD
ATOM     22  H   UNL     1      -1.097   2.406  -2.014  0.00  0.00    -0.083 HD
ENDROOT
BRANCH   1  24
ATOM     23  C   UNL     1       1.613  -2.459  -1.619  0.00  0.00    +0.009 C 
ATOM     24  C   UNL     1       1.594  -2.033  -0.150  0.00  0.00    +0.033 C 
ENDBRANCH   1  24
BRANCH  13  25
ATOM     25  C   UNL     1      -2.193   5.027  -1.540  0.00  0.00    +0.098 C 
ATOM     26  C   UNL     1      -1.843   6.429  -1.037  0.00  0.00    +0.036 C 
BRANCH  25  27
ATOM     27  O   UNL     1      -1.844   4.916  -2.922  0.00  0.00    -0.394 OA
ATOM     28  H   UNL     1      -2.300   5.547  -3.495  0.00  0.00    +0.210 HD
ENDBRANCH  25  27
ENDBRANCH  13  25
BRANCH  16  29
ATOM     29  C   UNL     1      -5.524   3.268   1.311  0.00  0.00    +0.155 C 
BRANCH  29  30
ATOM     30  C   UNL     1      -5.881   3.665   2.720  0.00  0.00    +0.012 A 
ATOM     31  C   UNL     1      -6.227   2.698   3.645  0.00  0.00    +0.009 A 
ATOM     32  C   UNL     1      -6.555   3.062   4.938  0.00  0.00    +0.001 A 
ATOM     33  C   UNL     1      -6.537   4.394   5.309  0.00  0.00    +0.004 A 
ATOM     34  C   UNL     1      -6.192   5.364   4.389  0.00  0.00    +0.046 A 
ATOM     35  C   UNL     1      -5.858   5.001   3.092  0.00  0.00    +0.125 A 
BRANCH  35  36
ATOM     36  O   UNL     1      -5.513   5.954   2.186  0.00  0.00    -0.495 OA
ATOM     37  C   UNL     1      -5.511   7.309   2.639  0.00  0.00    +0.277 C 
ENDBRANCH  35  36
ENDBRANCH  29  30
ENDBRANCH  16  29
TORSDOF 6
