REMARK  Name = ZINC01087883
REMARK  10 active torsions:
REMARK  status: ('A' for Active; 'I' for Inactive)
REMARK    1  A    between atoms: C_1  and  C_2
REMARK    2  A    between atoms: C_2  and  O_3
REMARK    3  A    between atoms: O_3  and  C_4
REMARK    4  A    between atoms: C_6  and  C_12
REMARK    5  A    between atoms: C_9  and  O_10
REMARK    6  A    between atoms: O_10  and  C_11
REMARK    7  A    between atoms: N_25  and  S_26
REMARK    8  A    between atoms: S_26  and  C_29
REMARK    9  A    between atoms: C_32  and  O_39
REMARK   10  A    between atoms: O_39  and  C_40
REMARK                            x       y       z     vdW  Elec       q    Type
REMARK                         _______ _______ _______ _____ _____    ______ ____
ROOT
ATOM      1  C   UNL     1       3.846   2.215  -0.334  0.00  0.00    +0.057 C 
ATOM      2  C   UNL     1       4.970   0.078  -1.042  0.00  0.00    -0.070 C 
ATOM      3  C   UNL     1       6.325  -0.325  -1.640  0.00  0.00    +0.017 C 
ATOM      4  C   UNL     1       6.690   0.522  -2.832  0.00  0.00    -0.047 A 
ATOM      5  C   UNL     1       7.819   0.175  -3.560  0.00  0.00    +0.004 A 
ATOM      6  C   UNL     1       8.210   0.925  -4.650  0.00  0.00    +0.000 A 
ATOM      7  C   UNL     1       7.477   2.035  -5.026  0.00  0.00    +0.000 A 
ATOM      8  C   UNL     1       6.347   2.382  -4.310  0.00  0.00    +0.002 A 
ATOM      9  C   UNL     1       5.950   1.625  -3.225  0.00  0.00    -0.056 A 
ATOM     10  C   UNL     1       4.702   1.968  -2.478  0.00  0.00    -0.019 C 
ATOM     11  C   UNL     1       4.446   3.468  -2.276  0.00  0.00    +0.097 C 
ATOM     12  N   UNL     1       3.590   3.484  -1.058  0.00  0.00    -0.187 NA
ATOM     13  N   UNL     1       4.923   1.586  -1.114  0.00  0.00    +0.400 N 
ATOM     14  H   UNL     1       5.824   1.953  -0.786  0.00  0.00    -0.078 HD
ENDROOT
BRANCH   1  17
ATOM     15  C   UNL     1       1.015   0.041   0.902  0.00  0.00    +0.162 A 
ATOM     16  C   UNL     1       2.163   0.816   0.878  0.00  0.00    +0.052 A 
ATOM     17  C   UNL     1       2.598   1.372  -0.310  0.00  0.00    -0.042 A 
ATOM     18  C   UNL     1       1.889   1.156  -1.478  0.00  0.00    +0.007 A 
ATOM     19  C   UNL     1       0.742   0.384  -1.461  0.00  0.00    +0.049 A 
ATOM     20  C   UNL     1       0.301  -0.176  -0.273  0.00  0.00    +0.162 A 
BRANCH  20  21
ATOM     21  O   UNL     1      -0.827  -0.935  -0.255  0.00  0.00    -0.491 OA
ATOM     22  C   UNL     1      -1.508  -1.115  -1.498  0.00  0.00    +0.277 C 
ENDBRANCH  20  21
BRANCH  15  23
ATOM     23  O   UNL     1       0.583  -0.501   2.072  0.00  0.00    -0.489 OA
BRANCH  23  25
ATOM     24  C   UNL     1       0.728  -0.924   4.447  0.00  0.00    +0.048 C 
ATOM     25  C   UNL     1       1.365  -0.237   3.238  0.00  0.00    +0.226 C 
ENDBRANCH  23  25
ENDBRANCH  15  23
ENDBRANCH   1  17
BRANCH  12  26
ATOM     26  S   UNL     1       2.550   4.688  -0.599  0.00  0.00    +0.060 S 
ATOM     27  O   UNL     1       2.077   5.294  -1.794  0.00  0.00    -0.153 OA
ATOM     28  O   UNL     1       1.675   4.123   0.367  0.00  0.00    -0.153 OA
BRANCH  26  29
ATOM     29  C   UNL     1       3.505   5.909   0.240  0.00  0.00    +0.115 A 
ATOM     30  C   UNL     1       3.686   7.138  -0.318  0.00  0.00    +0.033 A 
ATOM     31  C   UNL     1       4.432   8.117   0.333  0.00  0.00    +0.050 A 
ATOM     32  C   UNL     1       5.013   7.869   1.544  0.00  0.00    +0.146 A 
ATOM     33  C   UNL     1       4.851   6.605   2.150  0.00  0.00    +0.114 A 
ATOM     34  C   UNL     1       4.086   5.616   1.484  0.00  0.00    +0.030 A 
ATOM     35  C   UNL     1       3.926   4.356   2.090  0.00  0.00    +0.013 A 
ATOM     36  C   UNL     1       4.520   4.142   3.301  0.00  0.00    +0.020 A 
ATOM     37  C   UNL     1       5.260   5.159   3.901  0.00  0.00    +0.111 A 
ATOM     38  N   UNL     1       5.407   6.332   3.334  0.00  0.00    -0.251 NA
BRANCH  32  39
ATOM     39  O   UNL     1       5.742   8.834   2.162  0.00  0.00    -0.493 OA
ATOM     40  C   UNL     1       5.861  10.088   1.488  0.00  0.00    +0.277 C 
ENDBRANCH  32  39
ENDBRANCH  26  29
ENDBRANCH  12  26
TORSDOF 7
