REMARK  Name = ZINC22430502
REMARK  12 active torsions:
REMARK  status: ('A' for Active; 'I' for Inactive)
REMARK    1  A    between atoms: C_1  and  C_2
REMARK    2  A    between atoms: C_5  and  S_8
REMARK    3  A    between atoms: S_8  and  N_11
REMARK    4  A    between atoms: N_11  and  C_12
REMARK    5  A    between atoms: N_11  and  C_29
REMARK    6  A    between atoms: C_12  and  C_13
REMARK    7  A    between atoms: N_15  and  C_16
REMARK    8  A    between atoms: C_16  and  C_17
REMARK    9  A    between atoms: C_20  and  N_23
REMARK   10  A    between atoms: C_27  and  C_28
REMARK   11  A    between atoms: C_31  and  C_36
REMARK   12  A    between atoms: C_33  and  C_35
REMARK                            x       y       z     vdW  Elec       q    Type
REMARK                         _______ _______ _______ _____ _____    ______ ____
ROOT
ATOM      1  N   UNL     1       7.739   9.730  -1.986  0.00  0.00    -0.194 N 
ENDROOT
BRANCH   1   2
ATOM      2  C   UNL     1       8.754   9.656  -1.028  0.00  0.00    +0.052 A 
ATOM      3  C   UNL     1       9.498  10.786  -0.714  0.00  0.00    +0.028 A 
ATOM      4  C   UNL     1      10.496  10.711   0.237  0.00  0.00    -0.048 A 
ATOM      5  C   UNL     1      10.763   9.510   0.868  0.00  0.00    +0.006 A 
ATOM      6  C   UNL     1      10.028   8.382   0.554  0.00  0.00    -0.048 A 
ATOM      7  C   UNL     1       9.024   8.451  -0.392  0.00  0.00    +0.028 A 
ATOM      8  C   UNL     1      10.322   7.075   1.244  0.00  0.00    +0.044 C 
ATOM      9  C   UNL     1      11.300  11.938   0.583  0.00  0.00    +0.044 C 
ENDBRANCH   1   2
BRANCH   1  10
ATOM     10  S   UNL     1       8.116  10.038  -3.569  0.00  0.00    +0.075 S 
ATOM     11  O   UNL     1       9.502   9.761  -3.718  0.00  0.00    -0.150 OA
ATOM     12  O   UNL     1       7.122   9.395  -4.355  0.00  0.00    -0.150 OA
BRANCH  10  17
ATOM     13  C   UNL     1       7.438  15.969  -4.444  0.00  0.00    +0.044 C 
ATOM     14  C   UNL     1       7.607  14.488  -4.226  0.00  0.00    -0.050 A 
ATOM     15  C   UNL     1       8.857  13.969  -3.944  0.00  0.00    +0.005 A 
ATOM     16  C   UNL     1       9.012  12.610  -3.743  0.00  0.00    +0.029 A 
ATOM     17  C   UNL     1       7.918  11.770  -3.824  0.00  0.00    +0.109 A 
ATOM     18  C   UNL     1       6.669  12.288  -4.111  0.00  0.00    +0.029 A 
ATOM     19  C   UNL     1       6.513  13.647  -4.307  0.00  0.00    +0.005 A 
ENDBRANCH  10  17
ENDBRANCH   1  10
BRANCH   1  20
ATOM     20  C   UNL     1       6.342   9.535  -1.590  0.00  0.00    +0.227 C 
BRANCH  20  21
ATOM     21  C   UNL     1       5.773  10.840  -1.097  0.00  0.00    +0.232 C 
ATOM     22  O   UNL     1       6.466  11.835  -1.078  0.00  0.00    -0.274 OA
ATOM     23  N   UNL     1       4.494  10.902  -0.676  0.00  0.00    -0.310 N 
ATOM     24  H   UNL     1       3.866   9.999  -0.694  0.00  0.00    +0.149 HD
BRANCH  23  25
ATOM     25  C   UNL     1       3.941  12.171  -0.197  0.00  0.00    +0.139 C 
BRANCH  25  26
ATOM     26  C   UNL     1       2.504  11.970   0.211  0.00  0.00    -0.030 A 
ATOM     27  C   UNL     1       2.199  11.611   1.511  0.00  0.00    +0.007 A 
ATOM     28  C   UNL     1       0.883  11.427   1.887  0.00  0.00    +0.026 A 
ATOM     29  C   UNL     1      -0.134  11.603   0.959  0.00  0.00    +0.048 A 
ATOM     30  C   UNL     1       0.175  11.958  -0.347  0.00  0.00    +0.026 A 
ATOM     31  C   UNL     1       1.493  12.146  -0.716  0.00  0.00    +0.007 A 
BRANCH  29  32
ATOM     32  N   UNL     1      -1.471  11.416   1.338  0.00  0.00    -0.305 N 
ATOM     33  C   UNL     1      -1.986  10.333   2.004  0.00  0.00    +0.110 A 
ATOM     34  C   UNL     1      -3.303  10.564   2.164  0.00  0.00    +0.102 A 
ATOM     35  N   UNL     1      -3.591  11.750   1.608  0.00  0.00    -0.350 N 
ATOM     36  C   UNL     1      -2.501  12.273   1.115  0.00  0.00    +0.088 A 
ATOM     37  C   UNL     1      -2.403  13.601   0.410  0.00  0.00    +0.084 C 
ATOM     38  H   UNL     1      -4.624  12.129   1.623  0.00  0.00    +0.166 HD
ENDBRANCH  29  32
ENDBRANCH  25  26
ENDBRANCH  23  25
ENDBRANCH  20  21
ENDBRANCH   1  20
TORSDOF 8
