REMARK  Name = ZINC44282238
REMARK  5 active torsions:
REMARK  status: ('A' for Active; 'I' for Inactive)
REMARK    1  A    between atoms: C_6  and  C_7
REMARK    2  A    between atoms: C_8  and  C_17
REMARK    3  A    between atoms: C_17  and  C_18
REMARK    4  A    between atoms: C_18  and  C_19
REMARK    5  A    between atoms: C_19  and  N_20
REMARK                            x       y       z     vdW  Elec       q    Type
REMARK                         _______ _______ _______ _____ _____    ______ ____
ROOT
ATOM      1  C   UNL     1      -1.273  -0.764   0.008  0.00  0.00    +0.093 A 
ATOM      2  C   UNL     1      -1.527  -1.901  -0.699  0.00  0.00    +0.051 A 
ATOM      3  N   UNL     1      -2.807  -2.278  -0.404  0.00  0.00    -0.302 N 
ATOM      4  C   UNL     1      -3.575  -3.328  -0.819  0.00  0.00    +0.108 A 
ATOM      5  C   UNL     1      -4.839  -3.477  -0.367  0.00  0.00    +0.034 A 
ATOM      6  C   UNL     1      -5.380  -2.551   0.541  0.00  0.00    +0.020 A 
ATOM      7  C   UNL     1      -4.626  -1.501   0.962  0.00  0.00    +0.048 A 
ATOM      8  C   UNL     1      -3.308  -1.358   0.481  0.00  0.00    +0.139 A 
ATOM      9  N   UNL     1      -2.368  -0.457   0.721  0.00  0.00    -0.228 NA
ATOM     10 BR   UNL     1      -5.884  -4.939  -0.956  0.00  0.00    -0.049 Br
ENDROOT
BRANCH   1  16
ATOM     11  C   UNL     1      -0.022   1.392  -0.081  0.00  0.00    +0.011 A 
ATOM     12  C   UNL     1       1.163   2.098  -0.091  0.00  0.00    +0.016 A 
ATOM     13  C   UNL     1       2.372   1.427  -0.027  0.00  0.00    +0.018 A 
ATOM     14  C   UNL     1       2.399   0.045   0.049  0.00  0.00    +0.016 A 
ATOM     15  C   UNL     1       1.219  -0.670   0.059  0.00  0.00    +0.011 A 
ATOM     16  C   UNL     1      -0.001   0.001  -0.005  0.00  0.00    +0.002 A 
ATOM     17 BR   UNL     1       3.993   2.401  -0.042  0.00  0.00    -0.050 Br
ENDBRANCH   1  16
BRANCH   2  18
ATOM     18  C   UNL     1      -0.577  -2.608  -1.630  0.00  0.00    +0.054 C 
BRANCH  18  19
ATOM     19  C   UNL     1      -0.649  -1.967  -3.017  0.00  0.00    -0.013 C 
BRANCH  19  20
ATOM     20  C   UNL     1       0.316  -2.685  -3.962  0.00  0.00    -0.086 C 
BRANCH  20  21
ATOM     21  N   UNL     1       0.246  -2.069  -5.294  0.00  0.00    +0.378 N 
ATOM     22  H   UNL     1      -0.694  -2.146  -5.651  0.00  0.00    -0.090 HD
ATOM     23  H   UNL     1       0.502  -1.095  -5.228  0.00  0.00    -0.090 HD
ATOM     24  H   UNL     1       0.882  -2.543  -5.917  0.00  0.00    -0.090 HD
ENDBRANCH  20  21
ENDBRANCH  19  20
ENDBRANCH  18  19
ENDBRANCH   2  18
TORSDOF 5
