REMARK  Name = ZINC09451266
REMARK  12 active torsions:
REMARK  status: ('A' for Active; 'I' for Inactive)
REMARK    1  A    between atoms: C_1  and  C_2
REMARK    2  A    between atoms: C_2  and  C_3
REMARK    3  A    between atoms: C_3  and  C_5
REMARK    4  A    between atoms: C_3  and  C_6
REMARK    5  A    between atoms: C_9  and  N_12
REMARK    6  A    between atoms: C_13  and  C_15
REMARK    7  A    between atoms: C_15  and  S_16
REMARK    8  A    between atoms: S_16  and  C_17
REMARK    9  A    between atoms: C_20  and  C_23
REMARK   10  A    between atoms: N_21  and  N_22
REMARK   11  A    between atoms: C_25  and  C_29
REMARK   12  A    between atoms: C_32  and  C_35
REMARK                            x       y       z     vdW  Elec       q    Type
REMARK                         _______ _______ _______ _____ _____    ______ ____
ROOT
ATOM      1  C   UNL     1      -2.310 -10.527   3.288  0.00  0.00    +0.209 A 
ATOM      2  N   UNL     1      -1.635 -11.274   2.443  0.00  0.00    -0.120 NA
ATOM      3  N   UNL     1      -1.673 -12.505   2.812  0.00  0.00    -0.125 NA
ATOM      4  C   UNL     1      -2.376 -12.620   3.916  0.00  0.00    +0.199 A 
ATOM      5  N   UNL     1      -2.801 -11.355   4.258  0.00  0.00    -0.223 N 
ENDROOT
BRANCH   4   6
ATOM      6  C   UNL     1      -2.653 -13.866   4.652  0.00  0.00    +0.105 A 
ATOM      7  C   UNL     1      -1.997 -15.056   4.504  0.00  0.00    +0.061 A 
ATOM      8  C   UNL     1      -2.574 -15.977   5.393  0.00  0.00    +0.093 A 
ATOM      9  N   UNL     1      -3.539 -15.370   6.051  0.00  0.00    -0.173 NA
ATOM     10  N   UNL     1      -3.608 -14.042   5.612  0.00  0.00    -0.273 N 
ATOM     11  H   UNL     1      -4.227 -13.367   5.932  0.00  0.00    +0.189 HD
BRANCH   8  12
ATOM     12  C   UNL     1      -2.166 -17.395   5.561  0.00  0.00    +0.002 A 
ATOM     13  C   UNL     1      -1.120 -17.916   4.802  0.00  0.00    +0.010 A 
ATOM     14  C   UNL     1      -0.745 -19.234   4.962  0.00  0.00    +0.004 A 
ATOM     15  C   UNL     1      -1.405 -20.038   5.874  0.00  0.00    -0.050 A 
ATOM     16  C   UNL     1      -2.444 -19.526   6.630  0.00  0.00    +0.004 A 
ATOM     17  C   UNL     1      -2.823 -18.207   6.482  0.00  0.00    +0.010 A 
ATOM     18  C   UNL     1      -0.991 -21.477   6.045  0.00  0.00    +0.044 C 
ENDBRANCH   8  12
ENDBRANCH   4   6
BRANCH   5  19
ATOM     19  N   UNL     1      -3.557 -11.002   5.339  0.00  0.00    -0.295 N 
ATOM     20  H   UNL     1      -4.538 -10.980   5.103  0.00  0.00    +0.163 HD
ATOM     21  H   UNL     1      -3.386 -11.622   6.117  0.00  0.00    +0.163 HD
ENDBRANCH   5  19
BRANCH   1  22
ATOM     22  S   UNL     1      -2.533  -8.782   3.193  0.00  0.00    -0.075 S 
BRANCH  22  23
ATOM     23  C   UNL     1      -1.638  -8.307   1.688  0.00  0.00    +0.173 C 
BRANCH  23  25
ATOM     24  N   UNL     1      -1.160  -6.235   0.425  0.00  0.00    -0.285 N 
ATOM     25  C   UNL     1      -1.751  -6.818   1.486  0.00  0.00    +0.227 C 
ATOM     26  O   UNL     1      -2.373  -6.144   2.280  0.00  0.00    -0.275 OA
ATOM     27  H   UNL     1      -0.725  -6.782  -0.249  0.00  0.00    +0.155 HD
BRANCH  24  31
ATOM     28  C   UNL     1      -1.199  -2.087   0.034  0.00  0.00    -0.044 A 
ATOM     29  C   UNL     1      -1.130  -2.662   1.290  0.00  0.00    +0.006 A 
ATOM     30  C   UNL     1      -1.117  -4.036   1.423  0.00  0.00    +0.023 A 
ATOM     31  C   UNL     1      -1.174  -4.842   0.293  0.00  0.00    +0.033 A 
ATOM     32  C   UNL     1      -1.243  -4.263  -0.967  0.00  0.00    +0.023 A 
ATOM     33  C   UNL     1      -1.261  -2.887  -1.093  0.00  0.00    +0.006 A 
BRANCH  28  34
ATOM     34  C   UNL     1      -1.213  -0.587  -0.108  0.00  0.00    +0.016 C 
ATOM     35  C   UNL     1       0.070  -0.007   0.489  0.00  0.00    +0.012 C 
BRANCH  34  37
ATOM     36  C   UNL     1      -2.509   1.491   0.387  0.00  0.00    +0.004 C 
ATOM     37  C   UNL     1      -2.424  -0.017   0.633  0.00  0.00    +0.004 C 
ENDBRANCH  34  37
ENDBRANCH  28  34
ENDBRANCH  24  31
ENDBRANCH  23  25
ENDBRANCH  22  23
ENDBRANCH   1  22
TORSDOF 9
