REMARK  Name = ZINC57244368
REMARK  8 active torsions:
REMARK  status: ('A' for Active; 'I' for Inactive)
REMARK    1  A    between atoms: C_1  and  C_2
REMARK    2  A    between atoms: C_2  and  C_3
REMARK    3  A    between atoms: C_3  and  C_5
REMARK    4  A    between atoms: C_3  and  N_10
REMARK    5  A    between atoms: N_13  and  C_14
REMARK    6  A    between atoms: C_14  and  C_15
REMARK    7  A    between atoms: C_15  and  C_17
REMARK    8  A    between atoms: C_15  and  N_22
REMARK                            x       y       z     vdW  Elec       q    Type
REMARK                         _______ _______ _______ _____ _____    ______ ____
ROOT
ATOM      1  N   UNL     1       2.108  -0.057  -1.135  0.00  0.00    -0.292 N 
ATOM      2  C   UNL     1       2.460   1.205  -1.450  0.00  0.00    +0.300 C 
ATOM      3  O   UNL     1       1.602   2.043  -1.653  0.00  0.00    -0.253 OA
ATOM      4  N   UNL     1       3.763   1.539  -1.541  0.00  0.00    -0.301 N 
ATOM      5  H   UNL     1       2.792  -0.725  -0.973  0.00  0.00    +0.151 HD
ATOM      6  H   UNL     1       4.447   0.871  -1.379  0.00  0.00    +0.150 HD
ENDROOT
BRANCH   1   7
ATOM      7  C   UNL     1       0.692  -0.419  -1.036  0.00  0.00    +0.111 C 
BRANCH   7   8
ATOM      8  C   UNL     1       0.533  -1.897  -1.286  0.00  0.00    +0.010 A 
ATOM      9  C   UNL     1      -0.428  -2.545  -1.989  0.00  0.00    +0.013 A 
ATOM     10  C   UNL     1      -0.372  -3.923  -2.088  0.00  0.00    +0.008 A 
ATOM     11  C   UNL     1       0.642  -4.585  -1.479  0.00  0.00    +0.045 A 
ATOM     12  S   UNL     1       1.566  -3.247  -0.741  0.00  0.00    -0.100 S 
ENDBRANCH   7   8
BRANCH   7  14
ATOM     13  C   UNL     1       0.221   1.434   0.572  0.00  0.00    +0.006 C 
ATOM     14  C   UNL     1       0.175  -0.081   0.364  0.00  0.00    +0.024 C 
ENDBRANCH   7  14
ENDBRANCH   1   7
BRANCH   4  15
ATOM     15  C   UNL     1       4.145   2.911  -1.885  0.00  0.00    +0.095 C 
BRANCH  15  16
ATOM     16  C   UNL     1       5.666   3.054  -1.792  0.00  0.00    -0.013 C 
BRANCH  16  17
ATOM     17  N   UNL     1       6.061   4.389  -2.261  0.00  0.00    +0.386 N 
ATOM     18  C   UNL     1       7.537   4.538  -2.197  0.00  0.00    -0.078 C 
ATOM     19  C   UNL     1       7.822   5.683  -3.202  0.00  0.00    -0.020 C 
ATOM     20  C   UNL     1       6.806   5.410  -4.335  0.00  0.00    -0.020 C 
ATOM     21  C   UNL     1       5.700   4.557  -3.686  0.00  0.00    -0.078 C 
ATOM     22  H   UNL     1       5.614   5.101  -1.703  0.00  0.00    -0.081 HD
ENDBRANCH  16  17
BRANCH  16  23
ATOM     23  C   UNL     1       6.101   2.876  -0.360  0.00  0.00    -0.022 A 
ATOM     24  C   UNL     1       6.633   1.783   0.240  0.00  0.00    +0.009 A 
ATOM     25  C   UNL     1       6.961   1.849   1.581  0.00  0.00    +0.008 A 
ATOM     26  C   UNL     1       6.742   3.003   2.256  0.00  0.00    +0.045 A 
ATOM     27  S   UNL     1       6.057   4.051   0.983  0.00  0.00    -0.103 S 
ENDBRANCH  16  23
ENDBRANCH  15  16
ENDBRANCH   4  15
TORSDOF 7
