REMARK  Name = ZINC65515447
REMARK  5 active torsions:
REMARK  status: ('A' for Active; 'I' for Inactive)
REMARK    1  A    between atoms: C_4  and  N_7
REMARK    2  A    between atoms: N_7  and  C_8
REMARK    3  A    between atoms: C_13  and  C_14
REMARK    4  A    between atoms: N_20  and  C_23
REMARK    5  A    between atoms: C_23  and  C_24
REMARK                            x       y       z     vdW  Elec       q    Type
REMARK                         _______ _______ _______ _____ _____    ______ ____
ROOT
ATOM      1  C   UNL     1       5.990  -1.811  -0.242  0.00  0.00    +0.248 C 
ATOM      2  O   UNL     1       6.166  -0.613  -0.127  0.00  0.00    -0.270 OA
ATOM      3  N   UNL     1       7.043  -2.632  -0.421  0.00  0.00    -0.299 N 
ATOM      4  C   UNL     1       6.814  -4.091  -0.438  0.00  0.00    +0.106 C 
ATOM      5  C   UNL     1       7.646  -4.770  -1.541  0.00  0.00    +0.000 C 
ATOM      6  C   UNL     1       7.641  -3.903  -2.781  0.00  0.00    -0.077 C 
ATOM      7  N   UNL     1       8.814  -3.033  -2.765  0.00  0.00    +0.386 N 
ATOM      8  C   UNL     1       8.635  -1.804  -2.091  0.00  0.00    -0.059 C 
ATOM      9  C   UNL     1       8.360  -2.053  -0.595  0.00  0.00    +0.089 C 
ATOM     10  H   UNL     1       9.574  -3.530  -2.325  0.00  0.00    -0.081 HD
ENDROOT
BRANCH   1  16
ATOM     11  C   UNL     1       4.229  -3.163   0.896  0.00  0.00    +0.044 A 
ATOM     12  C   UNL     1       2.938  -3.674   0.939  0.00  0.00    +0.024 A 
ATOM     13  C   UNL     1       2.052  -3.400  -0.083  0.00  0.00    +0.002 A 
ATOM     14  C   UNL     1       2.442  -2.616  -1.158  0.00  0.00    +0.001 A 
ATOM     15  C   UNL     1       3.718  -2.101  -1.218  0.00  0.00    +0.015 A 
ATOM     16  C   UNL     1       4.625  -2.364  -0.188  0.00  0.00    +0.058 A 
BRANCH  11  17
ATOM     17  N   UNL     1       5.123  -3.437   1.924  0.00  0.00    -0.314 N 
ATOM     18  H   UNL     1       5.539  -4.311   1.985  0.00  0.00    +0.152 HD
BRANCH  17  22
ATOM     19  C   UNL     1       6.016  -0.506   4.745  0.00  0.00    +0.000 A 
ATOM     20  C   UNL     1       6.549  -1.776   4.876  0.00  0.00    +0.002 A 
ATOM     21  C   UNL     1       6.255  -2.750   3.943  0.00  0.00    +0.023 A 
ATOM     22  C   UNL     1       5.422  -2.454   2.871  0.00  0.00    +0.031 A 
ATOM     23  C   UNL     1       4.888  -1.178   2.742  0.00  0.00    +0.023 A 
ATOM     24  C   UNL     1       5.187  -0.208   3.679  0.00  0.00    +0.002 A 
ENDBRANCH  17  22
ENDBRANCH  11  17
ENDBRANCH   1  16
BRANCH   7  25
ATOM     25  C   UNL     1       9.198  -2.747  -4.154  0.00  0.00    +0.018 C 
BRANCH  25  26
ATOM     26  C   UNL     1       9.686  -4.013  -4.810  0.00  0.00    +0.194 C 
ATOM     27  O   UNL     1       9.686  -5.056  -4.192  0.00  0.00    -0.278 OA
ATOM     28  N   UNL     1      10.124  -3.985  -6.085  0.00  0.00    -0.331 N 
ATOM     29  H   UNL     1      10.124  -3.151  -6.580  0.00  0.00    +0.145 HD
ATOM     30  H   UNL     1      10.438  -4.800  -6.507  0.00  0.00    +0.145 HD
ENDBRANCH  25  26
ENDBRANCH   7  25
TORSDOF 5
