REMARK  Name = ZINC43253690
REMARK  8 active torsions:
REMARK  status: ('A' for Active; 'I' for Inactive)
REMARK    1  A    between atoms: C_1  and  C_2
REMARK    2  A    between atoms: C_2  and  C_4
REMARK    3  A    between atoms: C_2  and  N_21
REMARK    4  A    between atoms: C_4  and  C_6
REMARK    5  A    between atoms: C_4  and  N_12
REMARK    6  A    between atoms: N_12  and  C_13
REMARK    7  A    between atoms: N_12  and  C_14
REMARK    8  A    between atoms: C_14  and  C_15
REMARK                            x       y       z     vdW  Elec       q    Type
REMARK                         _______ _______ _______ _____ _____    ______ ____
ROOT
ATOM      1  C   UNL     1       0.780  -0.421   1.213  0.00  0.00    +0.079 C 
ENDROOT
BRANCH   1   2
ATOM      2  C   UNL     1       0.785  -1.917   1.027  0.00  0.00    +0.007 A 
ATOM      3  C   UNL     1       1.787  -2.720   0.595  0.00  0.00    +0.014 A 
ATOM      4  C   UNL     1       1.564  -4.081   0.501  0.00  0.00    +0.028 A 
ATOM      5  C   UNL     1       0.347  -4.572   0.845  0.00  0.00    +0.078 A 
ATOM      6  S   UNL     1      -0.527  -3.091   1.325  0.00  0.00    -0.080 S 
ATOM      7 CL   UNL     1      -0.214  -6.215   0.827  0.00  0.00    -0.076 Cl
ENDBRANCH   1   2
BRANCH   1   9
ATOM      8  C   UNL     1      -0.276   1.717   0.468  0.00  0.00    -0.012 C 
ATOM      9  C   UNL     1      -0.162   0.217   0.190  0.00  0.00    -0.056 C 
BRANCH   9  10
ATOM     10  N   UNL     1       0.372   0.009  -1.163  0.00  0.00    +0.381 N 
ATOM     11  H   UNL     1      -0.249   0.430  -1.838  0.00  0.00    -0.090 HD
ATOM     12  H   UNL     1       1.284   0.435  -1.234  0.00  0.00    -0.090 HD
ATOM     13  H   UNL     1       0.447  -0.980  -1.347  0.00  0.00    -0.090 HD
ENDBRANCH   9  10
ENDBRANCH   1   9
BRANCH   1  14
ATOM     14  N   UNL     1       0.320  -0.098   2.570  0.00  0.00    -0.295 NA
ATOM     15  C   UNL     1       1.274  -0.581   3.578  0.00  0.00    +0.105 C 
BRANCH  14  16
ATOM     16  C   UNL     1      -1.023  -0.641   2.814  0.00  0.00    +0.127 C 
BRANCH  16  17
ATOM     17  C   UNL     1      -1.625   0.031   4.021  0.00  0.00    +0.005 A 
ATOM     18  C   UNL     1      -2.384   1.152   4.084  0.00  0.00    +0.027 A 
ATOM     19  C   UNL     1      -2.832   1.590   5.317  0.00  0.00    +0.025 A 
ATOM     20  C   UNL     1      -2.499   0.884   6.426  0.00  0.00    +0.060 A 
ATOM     21  S   UNL     1      -1.530  -0.448   5.738  0.00  0.00    -0.099 S 
ATOM     22 BR   UNL     1      -3.893   3.150   5.454  0.00  0.00    -0.050 Br
ENDBRANCH  16  17
ENDBRANCH  14  16
ENDBRANCH   1  14
TORSDOF 6
