REMARK  Name = ZINC60856937
REMARK  7 active torsions:
REMARK  status: ('A' for Active; 'I' for Inactive)
REMARK    1  A    between atoms: C_3  and  O_27
REMARK    2  A    between atoms: C_6  and  C_7
REMARK    3  A    between atoms: C_7  and  C_8
REMARK    4  A    between atoms: C_8  and  C_9
REMARK    5  A    between atoms: N_12  and  C_15
REMARK    6  A    between atoms: C_15  and  C_16
REMARK    7  A    between atoms: N_18  and  C_19
REMARK                            x       y       z     vdW  Elec       q    Type
REMARK                         _______ _______ _______ _____ _____    ______ ____
ROOT
ATOM      1  C   UNL     1      -3.061  -1.808  -1.420  0.00  0.00    -0.014 C 
ATOM      2  C   UNL     1      -2.825  -3.201  -0.829  0.00  0.00    -0.015 C 
ATOM      3  C   UNL     1      -4.126  -4.005  -0.896  0.00  0.00    -0.078 C 
ATOM      4  N   UNL     1      -4.555  -4.131  -2.294  0.00  0.00    +0.385 N 
ATOM      5  C   UNL     1      -4.852  -2.804  -2.846  0.00  0.00    -0.078 C 
ATOM      6  C   UNL     1      -3.580  -1.954  -2.853  0.00  0.00    -0.015 C 
ATOM      7  H   UNL     1      -3.819  -4.562  -2.833  0.00  0.00    -0.081 HD
ENDROOT
BRANCH   1   8
ATOM      8  C   UNL     1      -1.746  -1.027  -1.429  0.00  0.00    +0.008 C 
BRANCH   8   9
ATOM      9  C   UNL     1      -1.293  -0.774   0.011  0.00  0.00    +0.035 C 
BRANCH   9  15
ATOM     10  C   UNL     1      -0.017   1.378   0.010  0.00  0.00    +0.007 A 
ATOM     11  C   UNL     1       1.169   2.087   0.002  0.00  0.00    +0.045 A 
ATOM     12  C   UNL     1       2.380   1.409  -0.013  0.00  0.00    +0.117 A 
ATOM     13  C   UNL     1       2.396   0.022  -0.021  0.00  0.00    +0.045 A 
ATOM     14  C   UNL     1       1.207  -0.681  -0.013  0.00  0.00    +0.007 A 
ATOM     15  C   UNL     1       0.002  -0.004   0.002  0.00  0.00    -0.047 A 
BRANCH  12  16
ATOM     16  O   UNL     1       3.548   2.104  -0.021  0.00  0.00    -0.507 OA
ATOM     17  H   UNL     1       3.895   2.300   0.860  0.00  0.00    +0.292 HD
ENDBRANCH  12  16
ENDBRANCH   9  15
ENDBRANCH   8   9
ENDBRANCH   1   8
BRANCH   4  18
ATOM     18  C   UNL     1      -5.760  -4.969  -2.361  0.00  0.00    +0.019 C 
BRANCH  18  19
ATOM     19  C   UNL     1      -6.132  -5.201  -3.803  0.00  0.00    +0.197 C 
ATOM     20  O   UNL     1      -5.459  -4.717  -4.688  0.00  0.00    -0.278 OA
ATOM     21  N   UNL     1      -7.212  -5.947  -4.109  0.00  0.00    -0.306 N 
ATOM     22  H   UNL     1      -7.750  -6.335  -3.401  0.00  0.00    +0.149 HD
BRANCH  21  23
ATOM     23  C   UNL     1      -7.573  -6.173  -5.510  0.00  0.00    +0.159 C 
ATOM     24  C   UNL     1      -8.396  -7.458  -5.629  0.00  0.00    +0.032 C 
ATOM     25  C   UNL     1      -8.278  -8.045  -7.024  0.00  0.00    +0.004 C 
ATOM     26  C   UNL     1      -8.912  -7.188  -8.104  0.00  0.00    +0.019 C 
ATOM     27  C   UNL     1      -8.149  -5.874  -8.277  0.00  0.00    +0.104 C 
ATOM     28  N   UNL     1      -8.675  -4.893  -7.314  0.00  0.00    -0.314 N 
ATOM     29  C   UNL     1      -8.412  -5.017  -6.012  0.00  0.00    +0.233 C 
ATOM     30  O   UNL     1      -8.847  -4.200  -5.227  0.00  0.00    -0.274 OA
ATOM     31  H   UNL     1      -9.217  -4.152  -7.628  0.00  0.00    +0.149 HD
ENDBRANCH  21  23
ENDBRANCH  18  19
ENDBRANCH   4  18
TORSDOF 7
