REMARK  Name = ZINC35493895
REMARK  8 active torsions:
REMARK  status: ('A' for Active; 'I' for Inactive)
REMARK    1  A    between atoms: C_1  and  C_2
REMARK    2  A    between atoms: C_9  and  O_20
REMARK    3  A    between atoms: C_12  and  C_14
REMARK    4  A    between atoms: C_23  and  O_40
REMARK    5  A    between atoms: C_24  and  C_31
REMARK    6  A    between atoms: C_27  and  O_30
REMARK    7  A    between atoms: N_32  and  N_33
REMARK    8  A    between atoms: N_33  and  C_34
REMARK                            x       y       z     vdW  Elec       q    Type
REMARK                         _______ _______ _______ _____ _____    ______ ____
ROOT
ATOM      1  C   UNL     1       0.458   1.635   0.034  0.00  0.00    +0.014 C 
ATOM      2  C   UNL     1       0.249   0.120   0.071  0.00  0.00    +0.004 C 
ATOM      3  C   UNL     1      -1.186  -0.190   0.451  0.00  0.00    +0.010 C 
ATOM      4  C   UNL     1      -1.473   0.525   1.782  0.00  0.00    +0.005 C 
ATOM      5  C   UNL     1      -0.495   0.091   2.868  0.00  0.00    +0.009 C 
ATOM      6  C   UNL     1       0.963   0.311   2.434  0.00  0.00    +0.025 C 
ATOM      7  C   UNL     1       1.163  -0.510   1.156  0.00  0.00    +0.075 C 
ATOM      8  C   UNL     1       2.544  -0.395   0.502  0.00  0.00    +0.036 C 
ATOM      9  C   UNL     1       2.263  -0.788  -0.974  0.00  0.00    +0.011 C 
ATOM     10  C   UNL     1       0.761  -0.503  -1.223  0.00  0.00    +0.027 C 
ATOM     11  C   UNL     1       1.896  -0.171   3.546  0.00  0.00    +0.009 C 
ATOM     12  C   UNL     1       1.621   0.625   4.823  0.00  0.00    +0.036 C 
ATOM     13  C   UNL     1       0.168   0.415   5.253  0.00  0.00    +0.079 C 
ATOM     14  C   UNL     1      -0.750   0.886   4.149  0.00  0.00    +0.039 C 
ATOM     15  C   UNL     1      -2.203   0.692   4.589  0.00  0.00    +0.018 C 
ATOM     16  C   UNL     1      -2.458   1.482   5.874  0.00  0.00    +0.032 C 
ATOM     17  C   UNL     1      -1.522   0.980   6.975  0.00  0.00    +0.117 C 
ATOM     18  C   UNL     1      -0.107   1.212   6.530  0.00  0.00    +0.067 C 
ENDROOT
BRANCH  10  19
ATOM     19  C   UNL     1       0.597   0.463  -2.369  0.00  0.00    -0.022 C 
ATOM     20  C   UNL     1       1.556   1.188  -2.939  0.00  0.00    +0.094 C 
ATOM     21  C   UNL     1       0.970   1.993  -4.015  0.00  0.00    +0.332 C 
ATOM     22  O   UNL     1       1.586   2.761  -4.728  0.00  0.00    -0.246 OA
ATOM     23  O   UNL     1      -0.351   1.753  -4.096  0.00  0.00    -0.457 OA
ATOM     24  C   UNL     1      -0.688   0.788  -3.094  0.00  0.00    +0.264 C 
ENDBRANCH  10  19
BRANCH   7  25
ATOM     25  O   UNL     1       0.812  -1.878   1.373  0.00  0.00    -0.388 OA
ATOM     26  H   UNL     1       1.352  -2.321   2.042  0.00  0.00    +0.210 HD
ENDBRANCH   7  25
BRANCH  17  27
ATOM     27  O   UNL     1      -1.765  -0.408   7.212  0.00  0.00    -0.392 OA
ATOM     28  H   UNL     1      -2.668  -0.606   7.494  0.00  0.00    +0.210 HD
ENDBRANCH  17  27
BRANCH  14  29
ATOM     29  C   UNL     1      -0.491   2.348   3.894  0.00  0.00    +0.113 C 
ATOM     30  N   UNL     1      -1.431   3.202   4.056  0.00  0.00    -0.194 NA
BRANCH  30  31
ATOM     31  N   UNL     1      -1.191   4.562   3.819  0.00  0.00    -0.238 N 
ATOM     32  H   UNL     1      -0.312   4.856   3.532  0.00  0.00    +0.174 HD
BRANCH  31  33
ATOM     33  C   UNL     1      -2.216   5.493   3.996  0.00  0.00    +0.048 A 
ATOM     34  C   UNL     1      -3.473   5.074   4.413  0.00  0.00    +0.025 A 
ATOM     35  C   UNL     1      -4.485   5.998   4.586  0.00  0.00    +0.002 A 
ATOM     36  C   UNL     1      -4.247   7.339   4.346  0.00  0.00    +0.000 A 
ATOM     37  C   UNL     1      -2.997   7.760   3.931  0.00  0.00    +0.002 A 
ATOM     38  C   UNL     1      -1.979   6.842   3.761  0.00  0.00    +0.025 A 
ENDBRANCH  31  33
ENDBRANCH  30  31
ENDBRANCH  14  29
BRANCH  13  39
ATOM     39  O   UNL     1      -0.059  -0.974   5.501  0.00  0.00    -0.388 OA
ATOM     40  H   UNL     1       0.501  -1.346   6.196  0.00  0.00    +0.210 HD
ENDBRANCH  13  39
TORSDOF 7
