REMARK  Name = ZINC15084970
REMARK  6 active torsions:
REMARK  status: ('A' for Active; 'I' for Inactive)
REMARK    1  A    between atoms: C_1  and  C_2
REMARK    2  A    between atoms: C_14  and  C_16
REMARK    3  A    between atoms: C_17  and  C_24
REMARK    4  A    between atoms: C_27  and  O_32
REMARK    5  A    between atoms: C_28  and  O_30
REMARK    6  A    between atoms: O_30  and  C_31
REMARK                            x       y       z     vdW  Elec       q    Type
REMARK                         _______ _______ _______ _____ _____    ______ ____
ROOT
ATOM      1  C   UNL     1       1.151   1.306   0.217  0.00  0.00    +0.044 C 
ATOM      2  C   UNL     1       0.995  -0.191   0.163  0.00  0.00    -0.049 A 
ATOM      3  C   UNL     1       0.862  -0.838  -1.058  0.00  0.00    +0.005 A 
ATOM      4  C   UNL     1       0.718  -2.198  -1.136  0.00  0.00    +0.029 A 
ATOM      5  C   UNL     1       0.700  -2.991   0.035  0.00  0.00    +0.081 A 
ATOM      6  C   UNL     1       0.838  -2.299   1.260  0.00  0.00    +0.041 A 
ATOM      7  C   UNL     1       0.987  -0.936   1.327  0.00  0.00    +0.020 A 
ATOM      8  S   UNL     1       0.768  -3.617   2.449  0.00  0.00    -0.048 S 
ATOM      9  C   UNL     1       0.567  -4.958   1.285  0.00  0.00    +0.196 A 
ATOM     10  N   UNL     1       0.568  -4.331   0.133  0.00  0.00    -0.221 NA
ATOM     11  N   UNL     1       0.442  -6.319   1.537  0.00  0.00    -0.193 N 
ATOM     12  C   UNL     1       0.294  -7.308   0.587  0.00  0.00    +0.136 A 
ATOM     13  C   UNL     1       0.207  -8.482   1.249  0.00  0.00    +0.033 A 
ATOM     14  C   UNL     1       0.305  -8.206   2.630  0.00  0.00    +0.067 A 
ATOM     15  N   UNL     1       0.450  -6.923   2.795  0.00  0.00    -0.168 NA
ATOM     16  C   UNL     1       0.256  -9.231   3.734  0.00  0.00    +0.068 C 
ATOM     17  C   UNL     1       0.037  -9.875   0.728  0.00  0.00    +0.112 C 
ATOM     18  S   UNL     1      -0.974  -9.960  -0.752  0.00  0.00    -0.138 S 
ATOM     19  C   UNL     1      -0.027  -9.150  -2.048  0.00  0.00    +0.166 C 
ATOM     20  C   UNL     1       0.097  -7.691  -1.845  0.00  0.00    +0.228 C 
ATOM     21  O   UNL     1       0.032  -7.027  -2.858  0.00  0.00    -0.275 OA
ATOM     22  N   UNL     1       0.265  -7.007  -0.753  0.00  0.00    -0.269 N 
ATOM     23  H   UNL     1       0.401  -6.062  -0.924  0.00  0.00    +0.156 HD
ENDROOT
BRANCH  17  24
ATOM     24  C   UNL     1      -0.606 -10.716   1.800  0.00  0.00    -0.026 A 
ATOM     25  C   UNL     1      -1.921 -10.488   2.159  0.00  0.00    +0.009 A 
ATOM     26  C   UNL     1      -2.516 -11.258   3.142  0.00  0.00    +0.049 A 
ATOM     27  C   UNL     1      -1.794 -12.261   3.768  0.00  0.00    +0.158 A 
ATOM     28  C   UNL     1      -0.470 -12.491   3.406  0.00  0.00    +0.162 A 
ATOM     29  C   UNL     1       0.118 -11.719   2.417  0.00  0.00    +0.054 A 
BRANCH  28  30
ATOM     30  O   UNL     1       0.243 -13.474   4.017  0.00  0.00    -0.491 OA
ATOM     31  C   UNL     1       1.596 -13.654   3.594  0.00  0.00    +0.277 C 
ENDBRANCH  28  30
BRANCH  27  32
ATOM     32  O   UNL     1      -2.377 -13.019   4.735  0.00  0.00    -0.503 OA
ATOM     33  H   UNL     1      -2.814 -13.814   4.401  0.00  0.00    +0.292 HD
ENDBRANCH  27  32
ENDBRANCH  17  24
TORSDOF 3
