REMARK  Name = ZINC44594463
REMARK  7 active torsions:
REMARK  status: ('A' for Active; 'I' for Inactive)
REMARK    1  A    between atoms: C_1  and  C_2
REMARK    2  A    between atoms: C_7  and  N_8
REMARK    3  A    between atoms: N_8  and  S_9
REMARK    4  A    between atoms: S_9  and  C_12
REMARK    5  A    between atoms: C_15  and  C_18
REMARK    6  A    between atoms: C_18  and  C_19
REMARK    7  A    between atoms: C_19  and  N_20
REMARK                            x       y       z     vdW  Elec       q    Type
REMARK                         _______ _______ _______ _____ _____    ______ ____
ROOT
ATOM      1  S   UNL     1       0.763  -0.677   3.742  0.00  0.00    +0.072 S 
ATOM      2  O   UNL     1       0.518   0.208   4.826  0.00  0.00    -0.150 OA
ATOM      3  O   UNL     1       0.387  -2.047   3.776  0.00  0.00    -0.150 OA
ENDROOT
BRANCH   1   4
ATOM      4  C   UNL     1       2.500  -0.639   3.444  0.00  0.00    +0.109 A 
ATOM      5  C   UNL     1       3.117  -1.705   2.817  0.00  0.00    +0.029 A 
ATOM      6  C   UNL     1       4.479  -1.676   2.584  0.00  0.00    +0.005 A 
ATOM      7  C   UNL     1       5.224  -0.579   2.977  0.00  0.00    -0.049 A 
ATOM      8  C   UNL     1       4.606   0.487   3.603  0.00  0.00    +0.005 A 
ATOM      9  C   UNL     1       3.244   0.460   3.832  0.00  0.00    +0.029 A 
BRANCH   7  10
ATOM     10  C   UNL     1       6.709  -0.547   2.723  0.00  0.00    +0.015 C 
BRANCH  10  11
ATOM     11  C   UNL     1       6.979   0.081   1.355  0.00  0.00    -0.082 C 
BRANCH  11  12
ATOM     12  N   UNL     1       8.427   0.112   1.107  0.00  0.00    +0.378 N 
ATOM     13  H   UNL     1       8.879   0.660   1.824  0.00  0.00    -0.090 HD
ATOM     14  H   UNL     1       8.791  -0.829   1.123  0.00  0.00    -0.090 HD
ATOM     15  H   UNL     1       8.605   0.526   0.205  0.00  0.00    -0.090 HD
ENDBRANCH  11  12
ENDBRANCH  10  11
ENDBRANCH   7  10
ENDBRANCH   1   4
BRANCH   1  16
ATOM     16  N   UNL     1       0.025  -0.016   2.415  0.00  0.00    -0.216 N 
ATOM     17  H   UNL     1      -0.523   0.779   2.511  0.00  0.00    +0.174 HD
BRANCH  16  24
ATOM     18  C   UNL     1       0.151   1.691   0.143  0.00  0.00    +0.046 C 
ATOM     19  C   UNL     1       0.257   0.193   0.022  0.00  0.00    -0.028 A 
ATOM     20  C   UNL     1       0.426  -0.390  -1.219  0.00  0.00    +0.006 A 
ATOM     21  C   UNL     1       0.524  -1.765  -1.331  0.00  0.00    +0.015 A 
ATOM     22  C   UNL     1       0.452  -2.561  -0.202  0.00  0.00    +0.020 A 
ATOM     23  C   UNL     1       0.282  -1.984   1.042  0.00  0.00    +0.040 A 
ATOM     24  C   UNL     1       0.190  -0.603   1.159  0.00  0.00    +0.052 A 
ATOM     25 BR   UNL     1       0.585  -4.441  -0.361  0.00  0.00    -0.050 Br
ENDBRANCH  16  24
ENDBRANCH   1  16
TORSDOF 6
