REMARK  Name = ZINC36581406
REMARK  18 active torsions:
REMARK  status: ('A' for Active; 'I' for Inactive)
REMARK    1  A    between atoms: C_1  and  C_2
REMARK    2  A    between atoms: C_4  and  C_15
REMARK    3  A    between atoms: C_12  and  C_13
REMARK    4  A    between atoms: C_12  and  C_14
REMARK    5  A    between atoms: N_17  and  C_18
REMARK    6  A    between atoms: N_17  and  C_36
REMARK    7  A    between atoms: C_18  and  C_20
REMARK    8  A    between atoms: C_18  and  C_29
REMARK    9  A    between atoms: C_21  and  O_28
REMARK   10  A    between atoms: C_23  and  O_27
REMARK   11  A    between atoms: C_25  and  O_26
REMARK   12  A    between atoms: N_31  and  C_32
REMARK   13  A    between atoms: C_32  and  C_33
REMARK   14  A    between atoms: C_32  and  C_34
REMARK   15  A    between atoms: C_32  and  C_35
REMARK   16  A    between atoms: C_36  and  C_37
REMARK   17  A    between atoms: C_36  and  C_38
REMARK   18  A    between atoms: C_36  and  C_39
REMARK                            x       y       z     vdW  Elec       q    Type
REMARK                         _______ _______ _______ _____ _____    ______ ____
ROOT
ATOM      1  C   UNL     1      -1.406  -1.450  -4.012  0.00  0.00    +0.200 C 
ENDROOT
BRANCH   1   2
ATOM      2  C   UNL     1      -2.814  -1.523  -3.479  0.00  0.00    +0.065 A 
ATOM      3  C   UNL     1      -3.035  -1.842  -2.147  0.00  0.00    +0.129 A 
ATOM      4  C   UNL     1      -4.330  -1.909  -1.657  0.00  0.00    +0.091 A 
ATOM      5  C   UNL     1      -5.404  -1.657  -2.497  0.00  0.00    +0.124 A 
ATOM      6  C   UNL     1      -5.183  -1.337  -3.828  0.00  0.00    +0.091 A 
ATOM      7  C   UNL     1      -3.888  -1.266  -4.318  0.00  0.00    +0.129 A 
BRANCH   7   8
ATOM      8  O   UNL     1      -3.671  -0.948  -5.621  0.00  0.00    -0.506 OA
ATOM      9  H   UNL     1      -3.645  -1.712  -6.213  0.00  0.00    +0.292 HD
ENDBRANCH   7   8
BRANCH   5  10
ATOM     10  O   UNL     1      -6.674  -1.724  -2.016  0.00  0.00    -0.507 OA
ATOM     11  H   UNL     1      -7.006  -0.886  -1.665  0.00  0.00    +0.292 HD
ENDBRANCH   5  10
BRANCH   3  12
ATOM     12  O   UNL     1      -1.983  -2.090  -1.324  0.00  0.00    -0.506 OA
ATOM     13  H   UNL     1      -1.452  -1.308  -1.118  0.00  0.00    +0.292 HD
ENDBRANCH   3  12
ENDBRANCH   1   2
BRANCH   1  14
ATOM     14  C   UNL     1      -0.509  -2.334  -3.184  0.00  0.00    +0.239 C 
ATOM     15  O   UNL     1       0.341  -1.839  -2.474  0.00  0.00    -0.273 OA
ATOM     16  N   UNL     1      -0.651  -3.673  -3.233  0.00  0.00    -0.309 N 
ATOM     17  H   UNL     1      -1.331  -4.069  -3.800  0.00  0.00    +0.149 HD
BRANCH  16  18
ATOM     18  C   UNL     1       0.222  -4.532  -2.428  0.00  0.00    +0.026 C 
ATOM     19  C   UNL     1       0.043  -4.194  -0.946  0.00  0.00    +0.031 C 
ATOM     20  C   UNL     1      -0.146  -5.998  -2.665  0.00  0.00    +0.031 C 
ATOM     21  C   UNL     1       1.679  -4.300  -2.832  0.00  0.00    +0.031 C 
ENDBRANCH  16  18
ENDBRANCH   1  14
BRANCH   1  24
ATOM     22  C   UNL     1      -1.355   0.744  -2.955  0.00  0.00    +0.220 C 
ATOM     23  O   UNL     1      -1.770   0.271  -1.918  0.00  0.00    -0.275 OA
ATOM     24  N   UNL     1      -0.929  -0.067  -3.943  0.00  0.00    -0.280 N 
BRANCH  22  27
ATOM     25  C   UNL     1      -3.305   3.797  -3.187  0.00  0.00    +0.008 C 
ATOM     26  C   UNL     1      -2.411   2.916  -2.322  0.00  0.00    +0.001 C 
ATOM     27  C   UNL     1      -1.317   2.241  -3.138  0.00  0.00    +0.079 C 
ATOM     28  C   UNL     1       0.075   2.785  -2.840  0.00  0.00    +0.017 C 
ATOM     29  C   UNL     1       0.169   3.390  -1.438  0.00  0.00    -0.004 C 
ATOM     30  C   UNL     1      -0.787   2.744  -0.422  0.00  0.00    +0.008 C 
ATOM     31  C   UNL     1      -1.865   3.634  -1.094  0.00  0.00    -0.001 C 
ATOM     32  C   UNL     1      -0.731   4.636  -1.303  0.00  0.00    -0.029 C 
ATOM     33  C   UNL     1      -0.788   5.518  -2.546  0.00  0.00    +0.011 C 
ATOM     34  C   UNL     1      -0.410   5.471  -0.049  0.00  0.00    +0.011 C 
ENDBRANCH  22  27
BRANCH  24  35
ATOM     35  C   UNL     1       0.012   0.434  -4.948  0.00  0.00    +0.030 C 
ATOM     36  C   UNL     1       1.420   0.477  -4.351  0.00  0.00    +0.031 C 
ATOM     37  C   UNL     1       0.001  -0.493  -6.164  0.00  0.00    +0.031 C 
ATOM     38  C   UNL     1      -0.403   1.843  -5.377  0.00  0.00    +0.031 C 
ENDBRANCH  24  35
ENDBRANCH   1  24
TORSDOF 9
