REMARK  Name = ZINC61118079
REMARK  10 active torsions:
REMARK  status: ('A' for Active; 'I' for Inactive)
REMARK    1  A    between atoms: C_1  and  C_2
REMARK    2  A    between atoms: C_2  and  C_3
REMARK    3  A    between atoms: C_3  and  C_4
REMARK    4  A    between atoms: C_4  and  C_5
REMARK    5  A    between atoms: C_4  and  C_8
REMARK    6  A    between atoms: C_4  and  C_10
REMARK    7  A    between atoms: C_5  and  C_6
REMARK    8  A    between atoms: C_6  and  C_7
REMARK    9  A    between atoms: C_8  and  N_9
REMARK   10  A    between atoms: N_12  and  C_13
REMARK                            x       y       z     vdW  Elec       q    Type
REMARK                         _______ _______ _______ _____ _____    ______ ____
ROOT
ATOM      1  C   UNL     1       1.467  -2.525  -0.043  0.00  0.00    +0.222 C 
ATOM      2  O   UNL     1       0.892  -3.228   0.761  0.00  0.00    -0.275 OA
ATOM      3  N   UNL     1       2.756  -2.185   0.159  0.00  0.00    -0.285 N 
ATOM      4  H   UNL     1       3.235  -1.679  -0.516  0.00  0.00    +0.155 HD
ENDROOT
BRANCH   3   5
ATOM      5  C   UNL     1       3.402  -2.560   1.343  0.00  0.00    +0.039 A 
ATOM      6  C   UNL     1       4.339  -1.715   1.921  0.00  0.00    +0.064 A 
ATOM      7  C   UNL     1       4.976  -2.087   3.091  0.00  0.00    +0.163 A 
ATOM      8  C   UNL     1       4.679  -3.304   3.686  0.00  0.00    +0.193 A 
ATOM      9  C   UNL     1       3.744  -4.148   3.109  0.00  0.00    +0.163 A 
ATOM     10  C   UNL     1       3.101  -3.776   1.942  0.00  0.00    +0.064 A 
ATOM     11  F   UNL     1       3.456  -5.334   3.690  0.00  0.00    -0.202 F 
ATOM     12  F   UNL     1       5.302  -3.666   4.829  0.00  0.00    -0.199 F 
ATOM     13  F   UNL     1       5.889  -1.265   3.654  0.00  0.00    -0.202 F 
ENDBRANCH   3   5
BRANCH   1  14
ATOM     14  C   UNL     1       0.741  -2.033  -1.269  0.00  0.00    +0.032 C 
BRANCH  14  15
ATOM     15  C   UNL     1       0.724  -0.503  -1.271  0.00  0.00    +0.014 C 
BRANCH  15  17
ATOM     16  C   UNL     1      -0.010   1.531  -0.019  0.00  0.00    +0.004 C 
ATOM     17  C   UNL     1       0.007   0.001  -0.017  0.00  0.00    -0.002 C 
ENDBRANCH  15  17
ENDBRANCH  14  15
BRANCH  14  18
ATOM     18  C   UNL     1      -0.696  -2.559  -1.256  0.00  0.00    +0.014 C 
BRANCH  18  19
ATOM     19  C   UNL     1      -1.433  -2.059  -2.500  0.00  0.00    -0.002 C 
ATOM     20  C   UNL     1      -2.869  -2.585  -2.487  0.00  0.00    +0.004 C 
ENDBRANCH  18  19
ENDBRANCH  14  18
BRANCH  14  21
ATOM     21  C   UNL     1       1.458  -2.537  -2.523  0.00  0.00    -0.070 C 
BRANCH  21  22
ATOM     22  N   UNL     1       1.474  -4.006  -2.521  0.00  0.00    +0.379 N 
ATOM     23  H   UNL     1       1.960  -4.335  -1.700  0.00  0.00    -0.090 HD
ATOM     24  H   UNL     1       0.527  -4.353  -2.513  0.00  0.00    -0.090 HD
ATOM     25  H   UNL     1       1.947  -4.338  -3.348  0.00  0.00    -0.090 HD
ENDBRANCH  21  22
ENDBRANCH  14  21
ENDBRANCH   1  14
TORSDOF 8
