REMARK  Name = ZINC04012581
REMARK  10 active torsions:
REMARK  status: ('A' for Active; 'I' for Inactive)
REMARK    1  A    between atoms: C_1  and  C_2
REMARK    2  A    between atoms: C_2  and  C_3
REMARK    3  A    between atoms: C_2  and  C_4
REMARK    4  A    between atoms: C_2  and  C_5
REMARK    5  A    between atoms: C_5  and  C_7
REMARK    6  A    between atoms: C_5  and  N_17
REMARK    7  A    between atoms: C_8  and  C_9
REMARK    8  A    between atoms: C_18  and  C_22
REMARK    9  A    between atoms: C_22  and  C_24
REMARK   10  A    between atoms: C_22  and  N_62
REMARK                            x       y       z     vdW  Elec       q    Type
REMARK                         _______ _______ _______ _____ _____    ______ ____
ROOT
ATOM      1  N   UNL     1       5.460  -0.353   2.164  0.00  0.00    -0.223 N 
ATOM      2  C   UNL     1       4.244   0.206   2.023  0.00  0.00    +0.143 A 
ATOM      3  N   UNL     1       4.438   1.415   1.554  0.00  0.00    -0.115 NA
ATOM      4  N   UNL     1       5.706   1.587   1.410  0.00  0.00    -0.023 NA
ATOM      5  N   UNL     1       6.327   0.520   1.774  0.00  0.00    -0.043 NA
ENDROOT
BRANCH   1   6
ATOM      6  C   UNL     1       5.747  -1.701   2.663  0.00  0.00    +0.139 C 
BRANCH   6   8
ATOM      7  C   UNL     1       5.887  -0.809   4.992  0.00  0.00    +0.013 C 
ATOM      8  C   UNL     1       6.622  -1.606   3.913  0.00  0.00    -0.012 C 
ATOM      9  C   UNL     1       6.921  -3.014   4.434  0.00  0.00    +0.013 C 
ATOM     10  C   UNL     1       7.935  -0.902   3.565  0.00  0.00    +0.013 C 
ENDBRANCH   6   8
BRANCH   6  11
ATOM     11  C   UNL     1       6.471  -2.486   1.600  0.00  0.00    +0.001 C 
ATOM     12  C   UNL     1       5.940  -3.604   1.124  0.00  0.00    +0.007 C 
BRANCH  12  13
ATOM     13  C   UNL     1       6.650  -4.374   0.082  0.00  0.00    -0.007 A 
ATOM     14  C   UNL     1       7.878  -3.925  -0.407  0.00  0.00    +0.011 A 
ATOM     15  C   UNL     1       8.539  -4.651  -1.375  0.00  0.00    +0.020 A 
ATOM     16  C   UNL     1       7.982  -5.819  -1.871  0.00  0.00    +0.042 A 
ATOM     17  C   UNL     1       6.762  -6.267  -1.395  0.00  0.00    +0.040 A 
ATOM     18  C   UNL     1       6.093  -5.552  -0.421  0.00  0.00    +0.049 A 
ATOM     19 CL   UNL     1       4.563  -6.115   0.175  0.00  0.00    -0.083 Cl
ATOM     20 CL   UNL     1       8.818  -6.723  -3.095  0.00  0.00    -0.083 Cl
ENDBRANCH  12  13
ENDBRANCH   6  11
ENDBRANCH   1   6
BRANCH   2  21
ATOM     21  C   UNL     1       2.918  -0.432   2.348  0.00  0.00    +0.034 C 
BRANCH  21  22
ATOM     22  C   UNL     1       2.383   0.147   3.632  0.00  0.00    -0.054 A 
ATOM     23  C   UNL     1       1.886   1.437   3.655  0.00  0.00    +0.004 A 
ATOM     24  C   UNL     1       1.390   1.966   4.831  0.00  0.00    +0.020 A 
ATOM     25  C   UNL     1       1.402   1.209   5.989  0.00  0.00    +0.041 A 
ATOM     26  C   UNL     1       1.905  -0.079   5.968  0.00  0.00    +0.020 A 
ATOM     27  C   UNL     1       2.395  -0.610   4.789  0.00  0.00    +0.004 A 
ATOM     28 CL   UNL     1       0.787   1.877   7.469  0.00  0.00    -0.084 Cl
ENDBRANCH  21  22
BRANCH  21  34
ATOM     29  C   UNL     1       2.499  -0.638  -0.029  0.00  0.00    -0.049 C 
ATOM     30  C   UNL     1       1.506  -0.290  -1.141  0.00  0.00    +0.141 C 
ATOM     31  O   UNL     1       0.234  -0.868  -0.836  0.00  0.00    -0.383 OA
ATOM     32  C   UNL     1      -0.313  -0.431   0.411  0.00  0.00    +0.141 C 
ATOM     33  C   UNL     1       0.661  -0.781   1.539  0.00  0.00    -0.049 C 
ATOM     34  N   UNL     1       1.964  -0.141   1.256  0.00  0.00    +0.392 N 
ATOM     35  H   UNL     1       1.830   0.875   1.191  0.00  0.00    -0.080 HD
ENDBRANCH  21  34
ENDBRANCH   2  21
TORSDOF 7
