REMARK  Name = ZINC59834122
REMARK  15 active torsions:
REMARK  status: ('A' for Active; 'I' for Inactive)
REMARK    1  A    between atoms: C_1  and  C_2
REMARK    2  A    between atoms: C_2  and  C_3
REMARK    3  A    between atoms: C_3  and  C_4
REMARK    4  A    between atoms: C_4  and  N_5
REMARK    5  A    between atoms: N_5  and  C_6
REMARK    6  A    between atoms: C_7  and  N_18
REMARK    7  A    between atoms: N_8  and  C_15
REMARK    8  A    between atoms: C_15  and  C_16
REMARK    9  A    between atoms: C_16  and  C_17
REMARK   10  A    between atoms: C_19  and  C_21
REMARK   11  A    between atoms: C_21  and  N_22
REMARK   12  A    between atoms: N_22  and  C_23
REMARK   13  A    between atoms: N_22  and  C_26
REMARK   14  A    between atoms: C_23  and  C_24
REMARK   15  A    between atoms: C_26  and  C_27
REMARK                            x       y       z     vdW  Elec       q    Type
REMARK                         _______ _______ _______ _____ _____    ______ ____
ROOT
ATOM      1  N   UNL     1       1.555  -3.449  -2.587  0.00  0.00    -0.266 N 
ATOM      2  C   UNL     1       0.764  -3.612  -3.668  0.00  0.00    +0.203 C 
ATOM      3  O   UNL     1       1.152  -4.271  -4.610  0.00  0.00    -0.277 OA
ENDROOT
BRANCH   1   4
ATOM      4  C   UNL     1       2.873  -3.952  -2.595  0.00  0.00    +0.140 A 
ATOM      5  C   UNL     1       3.235  -4.985  -1.756  0.00  0.00    +0.127 A 
ATOM      6  N   UNL     1       4.528  -5.455  -1.786  0.00  0.00    -0.280 N 
ATOM      7  C   UNL     1       5.429  -4.912  -2.625  0.00  0.00    +0.331 A 
ATOM      8  O   UNL     1       6.567  -5.341  -2.637  0.00  0.00    -0.246 OA
ATOM      9  N   UNL     1       5.095  -3.905  -3.451  0.00  0.00    -0.273 N 
ATOM     10  H   UNL     1       5.763  -3.531  -4.046  0.00  0.00    +0.173 HD
ATOM     11  C   UNL     1       3.841  -3.413  -3.464  0.00  0.00    +0.277 A 
ATOM     12  O   UNL     1       3.547  -2.502  -4.220  0.00  0.00    -0.266 OA
BRANCH   5  13
ATOM     13  N   UNL     1       2.315  -5.539  -0.898  0.00  0.00    -0.343 N 
ATOM     14  H   UNL     1       1.425  -5.158  -0.829  0.00  0.00    +0.144 HD
ATOM     15  H   UNL     1       2.554  -6.311  -0.362  0.00  0.00    +0.144 HD
ENDBRANCH   5  13
BRANCH   6  16
ATOM     16  C   UNL     1       4.926  -6.551  -0.900  0.00  0.00    +0.128 C 
BRANCH  16  17
ATOM     17  C   UNL     1       4.693  -7.888  -1.607  0.00  0.00    +0.018 C 
ATOM     18  C   UNL     1       5.109  -9.034  -0.681  0.00  0.00    +0.005 C 
ENDBRANCH  16  17
ENDBRANCH   6  16
ENDBRANCH   1   4
BRANCH   1  19
ATOM     19  C   UNL     1       1.046  -2.749  -1.406  0.00  0.00    +0.114 C 
BRANCH  19  20
ATOM     20  C   UNL     1       1.435  -1.271  -1.481  0.00  0.00    +0.019 C 
BRANCH  20  22
ATOM     21  C   UNL     1       1.291   0.938  -0.322  0.00  0.00    +0.004 C 
ATOM     22  C   UNL     1       0.902  -0.540  -0.247  0.00  0.00    -0.002 C 
ENDBRANCH  20  22
ENDBRANCH  19  20
ENDBRANCH   1  19
BRANCH   2  23
ATOM     23  C   UNL     1      -0.601  -2.976  -3.705  0.00  0.00    +0.020 C 
BRANCH  23  24
ATOM     24  N   UNL     1      -1.258  -3.300  -4.979  0.00  0.00    +0.390 N 
ATOM     25  H   UNL     1      -0.663  -3.021  -5.745  0.00  0.00    -0.080 HD
BRANCH  24  26
ATOM     26  C   UNL     1      -1.501  -4.747  -5.050  0.00  0.00    -0.051 C 
BRANCH  26  27
ATOM     27  C   UNL     1      -2.037  -5.100  -6.413  0.00  0.00    -0.053 C 
ATOM     28  C   UNL     1      -1.425  -5.999  -7.144  0.00  0.00    +0.002 C 
ENDBRANCH  26  27
ENDBRANCH  24  26
BRANCH  24  29
ATOM     29  C   UNL     1      -2.537  -2.583  -5.066  0.00  0.00    -0.039 C 
BRANCH  29  30
ATOM     30  C   UNL     1      -2.279  -1.100  -5.136  0.00  0.00    -0.029 A 
ATOM     31  C   UNL     1      -2.481  -0.310  -4.020  0.00  0.00    +0.004 A 
ATOM     32  C   UNL     1      -2.244   1.050  -4.083  0.00  0.00    +0.000 A 
ATOM     33  C   UNL     1      -1.804   1.622  -5.262  0.00  0.00    +0.003 A 
ATOM     34  C   UNL     1      -1.601   0.834  -6.379  0.00  0.00    +0.038 A 
ATOM     35  C   UNL     1      -1.833  -0.530  -6.315  0.00  0.00    +0.125 A 
ATOM     36  F   UNL     1      -1.629  -1.302  -7.405  0.00  0.00    -0.205 F 
ENDBRANCH  29  30
ENDBRANCH  24  29
ENDBRANCH  23  24
ENDBRANCH   2  23
TORSDOF 13
