REMARK  Name = ZINC12565262
REMARK  11 active torsions:
REMARK  status: ('A' for Active; 'I' for Inactive)
REMARK    1  A    between atoms: C_1  and  C_2
REMARK    2  A    between atoms: C_3  and  N_9
REMARK    3  A    between atoms: C_10  and  C_12
REMARK    4  A    between atoms: C_12  and  N_64
REMARK    5  A    between atoms: C_13  and  C_14
REMARK    6  A    between atoms: C_13  and  N_64
REMARK    7  A    between atoms: C_14  and  C_15
REMARK    8  A    between atoms: C_21  and  C_22
REMARK    9  A    between atoms: C_21  and  N_64
REMARK   10  A    between atoms: N_24  and  C_25
REMARK   11  A    between atoms: C_30  and  C_31
REMARK                            x       y       z     vdW  Elec       q    Type
REMARK                         _______ _______ _______ _____ _____    ______ ____
ROOT
ATOM      1  N   UNL     1      -1.478   5.932   0.101  0.00  0.00    +0.391 N 
ATOM      2  H   UNL     1      -1.970   5.485   0.884  0.00  0.00    -0.080 HD
ENDROOT
BRANCH   1   3
ATOM      3  C   UNL     1      -0.061   5.512   0.123  0.00  0.00    +0.020 C 
BRANCH   3   5
ATOM      4  N   UNL     1       1.803   5.536   1.748  0.00  0.00    -0.287 N 
ATOM      5  C   UNL     1       0.496   5.755   1.502  0.00  0.00    +0.201 C 
ATOM      6  O   UNL     1      -0.230   6.149   2.389  0.00  0.00    -0.278 OA
ATOM      7  H   UNL     1       2.402   5.304   1.021  0.00  0.00    +0.155 HD
BRANCH   4  10
ATOM      8  C   UNL     1       4.565   6.125   2.098  0.00  0.00    +0.047 C 
ATOM      9  C   UNL     1       3.638   5.927   3.269  0.00  0.00    -0.011 A 
ATOM     10  C   UNL     1       2.296   5.641   3.054  0.00  0.00    +0.038 A 
ATOM     11  C   UNL     1       1.445   5.460   4.136  0.00  0.00    +0.023 A 
ATOM     12  C   UNL     1       1.934   5.564   5.423  0.00  0.00    +0.003 A 
ATOM     13  C   UNL     1       3.270   5.849   5.636  0.00  0.00    +0.020 A 
ATOM     14  C   UNL     1       4.122   6.031   4.560  0.00  0.00    +0.046 A 
ATOM     15 CL   UNL     1       5.798   6.389   4.832  0.00  0.00    -0.083 Cl
ENDBRANCH   4  10
ENDBRANCH   3   5
ENDBRANCH   1   3
BRANCH   1  16
ATOM     16  C   UNL     1      -2.111   5.510  -1.167  0.00  0.00    -0.073 C 
BRANCH  16  17
ATOM     17  C   UNL     1      -2.407   4.011  -1.092  0.00  0.00    +0.012 C 
BRANCH  17  18
ATOM     18  C   UNL     1      -2.958   3.542  -2.414  0.00  0.00    -0.075 C 
ATOM     19  C   UNL     1      -2.130   3.033  -3.270  0.00  0.00    -0.028 C 
ATOM     20  C   UNL     1      -2.527   2.532  -4.628  0.00  0.00    +0.027 C 
ATOM     21  C   UNL     1      -4.040   2.313  -4.688  0.00  0.00    +0.004 C 
ATOM     22  C   UNL     1      -4.734   3.572  -4.152  0.00  0.00    +0.005 C 
ATOM     23  C   UNL     1      -4.432   3.688  -2.655  0.00  0.00    +0.030 C 
ENDBRANCH  17  18
ENDBRANCH  16  17
ENDBRANCH   1  16
BRANCH   1  24
ATOM     24  C   UNL     1      -1.573   7.399   0.250  0.00  0.00    +0.020 C 
BRANCH  24  25
ATOM     25  C   UNL     1      -3.019   7.775   0.446  0.00  0.00    +0.201 C 
ATOM     26  O   UNL     1      -3.875   6.916   0.444  0.00  0.00    -0.278 OA
ATOM     27  N   UNL     1      -3.362   9.067   0.623  0.00  0.00    -0.287 N 
ATOM     28  H   UNL     1      -2.686   9.760   0.566  0.00  0.00    +0.155 HD
BRANCH  27  29
ATOM     29  C   UNL     1      -4.692   9.408   0.891  0.00  0.00    +0.038 A 
ATOM     30  C   UNL     1      -5.721   8.575   0.471  0.00  0.00    +0.023 A 
ATOM     31  C   UNL     1      -7.034   8.913   0.736  0.00  0.00    +0.003 A 
ATOM     32  C   UNL     1      -7.324  10.081   1.418  0.00  0.00    +0.020 A 
ATOM     33  C   UNL     1      -6.301  10.913   1.838  0.00  0.00    +0.046 A 
ATOM     34  C   UNL     1      -4.986  10.576   1.581  0.00  0.00    -0.011 A 
ATOM     35  C   UNL     1      -3.872  11.479   2.043  0.00  0.00    +0.047 C 
ATOM     36 CL   UNL     1      -6.671  12.377   2.693  0.00  0.00    -0.083 Cl
ENDBRANCH  27  29
ENDBRANCH  24  25
ENDBRANCH   1  24
TORSDOF 9
