REMARK  Name = ZINC63514102
REMARK  8 active torsions:
REMARK  status: ('A' for Active; 'I' for Inactive)
REMARK    1  A    between atoms: C_5  and  S_14
REMARK    2  A    between atoms: C_10  and  N_11
REMARK    3  A    between atoms: S_14  and  C_15
REMARK    4  A    between atoms: C_15  and  C_16
REMARK    5  A    between atoms: N_18  and  C_19
REMARK    6  A    between atoms: C_19  and  C_20
REMARK    7  A    between atoms: C_20  and  O_21
REMARK    8  A    between atoms: O_21  and  C_22
REMARK                            x       y       z     vdW  Elec       q    Type
REMARK                         _______ _______ _______ _____ _____    ______ ____
ROOT
ATOM      1  C   UNL     1       5.167   0.747   4.123  0.00  0.00    +0.223 C 
ATOM      2  O   UNL     1       6.380   0.764   4.122  0.00  0.00    -0.275 OA
ATOM      3  N   UNL     1       4.495   0.730   5.291  0.00  0.00    -0.312 N 
ATOM      4  H   UNL     1       3.525   0.716   5.292  0.00  0.00    +0.149 HD
ENDROOT
BRANCH   1   5
ATOM      5  C   UNL     1       4.412   0.743   2.819  0.00  0.00    +0.168 C 
BRANCH   5   6
ATOM      6  S   UNL     1       5.589   0.768   1.439  0.00  0.00    -0.106 S 
BRANCH   6  11
ATOM      7  C   UNL     1      -0.017   1.402   0.010  0.00  0.00    +0.035 A 
ATOM      8  C   UNL     1       1.108   2.144   0.003  0.00  0.00    +0.029 A 
ATOM      9  C   UNL     1       2.417   1.476  -0.013  0.00  0.00    +0.061 A 
ATOM     10  N   UNL     1       3.639   1.924  -0.022  0.00  0.00    -0.355 N 
ATOM     11  C   UNL     1       4.535   0.761  -0.037  0.00  0.00    +0.236 C 
ATOM     12  N   UNL     1       3.671  -0.427  -0.035  0.00  0.00    -0.355 N 
ATOM     13  C   UNL     1       2.437  -0.012  -0.021  0.00  0.00    +0.063 A 
ATOM     14  C   UNL     1       1.147  -0.715  -0.013  0.00  0.00    +0.060 A 
ATOM     15  C   UNL     1       0.002  -0.004   0.002  0.00  0.00    +0.128 A 
ATOM     16  H   UNL     1       3.966  -1.351  -0.043  0.00  0.00    +0.162 HD
ATOM     17  H   UNL     1       3.909   2.856  -0.020  0.00  0.00    +0.162 HD
BRANCH  15  18
ATOM     18  N   UNL     1      -1.286  -0.732   0.010  0.00  0.00    +0.056 N 
ATOM     19  O   UNL     1      -2.328  -0.118   0.024  0.00  0.00    -0.126 OA
ATOM     20  O   UNL     1      -1.298  -1.941   0.004  0.00  0.00    -0.126 OA
ENDBRANCH  15  18
ENDBRANCH   6  11
ENDBRANCH   5   6
ENDBRANCH   1   5
BRANCH   3  21
ATOM     21  C   UNL     1       5.229   0.734   6.559  0.00  0.00    +0.132 C 
BRANCH  21  22
ATOM     22  C   UNL     1       4.236   0.713   7.723  0.00  0.00    +0.179 C 
BRANCH  22  23
ATOM     23  O   UNL     1       3.512  -0.519   7.709  0.00  0.00    -0.372 OA
BRANCH  23  24
ATOM     24  C   UNL     1       2.553  -0.641   8.761  0.00  0.00    +0.070 C 
ATOM     25  C   UNL     1       1.526   0.488   8.649  0.00  0.00    +0.038 C 
ATOM     26  C   UNL     1       0.499   0.357   9.776  0.00  0.00    -0.008 C 
ATOM     27  C   UNL     1      -0.213  -0.993   9.663  0.00  0.00    +0.007 C 
ATOM     28  C   UNL     1       0.814  -2.121   9.775  0.00  0.00    -0.008 C 
ATOM     29  C   UNL     1       1.841  -1.991   8.649  0.00  0.00    +0.038 C 
ATOM     30  C   UNL     1       1.525  -2.031  11.127  0.00  0.00    +0.007 C 
ATOM     31  C   UNL     1       2.237  -0.682  11.240  0.00  0.00    -0.008 C 
ATOM     32  C   UNL     1       1.210   0.447  11.128  0.00  0.00    +0.007 C 
ATOM     33  C   UNL     1       3.264  -0.551  10.113  0.00  0.00    +0.038 C 
ENDBRANCH  23  24
ENDBRANCH  22  23
ENDBRANCH  21  22
ENDBRANCH   3  21
TORSDOF 8
