REMARK  Name = ZINC39325017
REMARK  7 active torsions:
REMARK  status: ('A' for Active; 'I' for Inactive)
REMARK    1  A    between atoms: C_1  and  C_2
REMARK    2  A    between atoms: C_9  and  C_14
REMARK    3  A    between atoms: C_14  and  N_15
REMARK    4  A    between atoms: N_15  and  C_16
REMARK    5  A    between atoms: N_15  and  S_24
REMARK    6  A    between atoms: C_16  and  C_17
REMARK    7  A    between atoms: S_24  and  C_27
REMARK                            x       y       z     vdW  Elec       q    Type
REMARK                         _______ _______ _______ _____ _____    ______ ____
ROOT
ATOM      1  N   UNL     1       1.289  -6.490   2.940  0.00  0.00    -0.171 NA
ENDROOT
BRANCH   1   2
ATOM      2  S   UNL     1       0.542  -7.274   4.192  0.00  0.00    +0.063 S 
ATOM      3  O   UNL     1       1.109  -8.576   4.253  0.00  0.00    -0.153 OA
ATOM      4  O   UNL     1       0.560  -6.382   5.299  0.00  0.00    -0.153 OA
BRANCH   2   5
ATOM      5  C   UNL     1      -1.149  -7.482   3.742  0.00  0.00    +0.134 A 
ATOM      6  C   UNL     1      -1.645  -8.725   3.537  0.00  0.00    +0.031 A 
ATOM      7  C   UNL     1      -2.978  -8.928   3.180  0.00  0.00    +0.004 A 
ATOM      8  C   UNL     1      -3.834  -7.890   3.022  0.00  0.00    +0.031 A 
ATOM      9  C   UNL     1      -3.383  -6.557   3.221  0.00  0.00    +0.102 A 
ATOM     10  C   UNL     1      -1.990  -6.346   3.600  0.00  0.00    +0.126 A 
ATOM     11  N   UNL     1      -1.681  -5.059   3.764  0.00  0.00    -0.189 NA
ATOM     12  S   UNL     1      -3.037  -4.245   3.468  0.00  0.00    +0.117 S 
ATOM     13  N   UNL     1      -4.074  -5.422   3.111  0.00  0.00    -0.191 NA
ENDBRANCH   2   5
ENDBRANCH   1   2
BRANCH   1  14
ATOM     14  C   UNL     1       1.490  -5.040   2.998  0.00  0.00    +0.126 C 
BRANCH  14  23
ATOM     15  C   UNL     1       4.464   1.060   5.223  0.00  0.00    +0.044 C 
ATOM     16  C   UNL     1       4.198  -0.421   5.317  0.00  0.00    -0.050 A 
ATOM     17  C   UNL     1       4.350  -1.065   6.545  0.00  0.00    +0.005 A 
ATOM     18  C   UNL     1       4.129  -2.396   6.706  0.00  0.00    +0.024 A 
ATOM     19  C   UNL     1       3.728  -3.191   5.617  0.00  0.00    +0.040 A 
ATOM     20  N   UNL     1       3.513  -4.495   5.787  0.00  0.00    -0.284 N 
ATOM     21  C   UNL     1       3.136  -5.299   4.807  0.00  0.00    +0.225 C 
ATOM     22  O   UNL     1       2.955  -6.482   5.023  0.00  0.00    -0.275 OA
ATOM     23  C   UNL     1       2.931  -4.741   3.416  0.00  0.00    +0.114 C 
ATOM     24  C   UNL     1       3.174  -3.258   3.217  0.00  0.00    -0.003 C 
ATOM     25  C   UNL     1       3.560  -2.536   4.308  0.00  0.00    -0.007 A 
ATOM     26  C   UNL     1       3.810  -1.098   4.206  0.00  0.00    +0.012 A 
ATOM     27  H   UNL     1       3.639  -4.873   6.671  0.00  0.00    +0.155 HD
ENDBRANCH  14  23
ENDBRANCH   1  14
BRANCH   1  28
ATOM     28  C   UNL     1       1.750  -7.247   1.773  0.00  0.00    +0.144 C 
BRANCH  28  29
ATOM     29  C   UNL     1       3.194  -7.634   1.963  0.00  0.00    -0.031 A 
ATOM     30  C   UNL     1       4.199  -6.789   1.530  0.00  0.00    +0.008 A 
ATOM     31  C   UNL     1       5.523  -7.143   1.705  0.00  0.00    +0.038 A 
ATOM     32  C   UNL     1       5.843  -8.344   2.314  0.00  0.00    +0.123 A 
ATOM     33  C   UNL     1       4.836  -9.190   2.747  0.00  0.00    +0.038 A 
ATOM     34  C   UNL     1       3.513  -8.831   2.576  0.00  0.00    +0.008 A 
ATOM     35  F   UNL     1       7.138  -8.692   2.485  0.00  0.00    -0.205 F 
ENDBRANCH  28  29
ENDBRANCH   1  28
TORSDOF 6
