REMARK  Name = ZINC33300474
REMARK  3 active torsions:
REMARK  status: ('A' for Active; 'I' for Inactive)
REMARK    1  A    between atoms: C_3  and  C_8
REMARK    2  A    between atoms: C_10  and  C_13
REMARK    3  A    between atoms: N_18  and  C_20
REMARK                            x       y       z     vdW  Elec       q    Type
REMARK                         _______ _______ _______ _____ _____    ______ ____
ROOT
ATOM      1  C   UNL     1      -1.373  -3.335  -0.301  0.00  0.00    +0.195 A 
ATOM      2  C   UNL     1      -0.688  -4.605  -0.015  0.00  0.00    +0.213 A 
ATOM      3  O   UNL     1       0.531  -4.690  -0.037  0.00  0.00    -0.285 OA
ATOM      4  C   UNL     1      -1.500  -5.725   0.292  0.00  0.00    +0.073 A 
ATOM      5  C   UNL     1      -2.844  -5.551   0.290  0.00  0.00    +0.117 A 
ATOM      6  N   UNL     1      -3.387  -4.343   0.009  0.00  0.00    -0.239 N 
ATOM      7  N   UNL     1      -2.689  -3.304  -0.268  0.00  0.00    -0.158 NA
ENDROOT
BRANCH   6   8
ATOM      8  C   UNL     1      -4.781  -4.221   0.022  0.00  0.00    +0.065 A 
ATOM      9  C   UNL     1      -5.370  -2.963   0.040  0.00  0.00    +0.029 A 
ATOM     10  C   UNL     1      -6.746  -2.847   0.048  0.00  0.00    +0.022 A 
ATOM     11  C   UNL     1      -7.538  -3.982   0.050  0.00  0.00    +0.041 A 
ATOM     12  C   UNL     1      -6.954  -5.237   0.038  0.00  0.00    +0.022 A 
ATOM     13  C   UNL     1      -5.579  -5.359   0.024  0.00  0.00    +0.029 A 
ATOM     14 CL   UNL     1      -9.267  -3.832   0.067  0.00  0.00    -0.084 Cl
ENDBRANCH   6   8
BRANCH   1  17
ATOM     15  C   UNL     1      -0.020  -0.138  -1.129  0.00  0.00    +0.202 A 
ATOM     16  N   UNL     1      -1.092  -0.924  -0.896  0.00  0.00    -0.186 NA
ATOM     17  C   UNL     1      -0.601  -2.119  -0.624  0.00  0.00    +0.283 A 
ATOM     18  O   UNL     1       0.736  -2.015  -0.691  0.00  0.00    -0.331 OA
ATOM     19  N   UNL     1       1.048  -0.879  -0.980  0.00  0.00    -0.056 NA
BRANCH  15  22
ATOM     20  C   UNL     1       1.113   3.335  -2.019  0.00  0.00    +0.002 A 
ATOM     21  C   UNL     1       1.144   1.995  -1.690  0.00  0.00    +0.012 A 
ATOM     22  C   UNL     1      -0.048   1.304  -1.483  0.00  0.00    +0.023 A 
ATOM     23  C   UNL     1      -1.265   1.968  -1.614  0.00  0.00    +0.027 A 
ATOM     24  C   UNL     1      -1.284   3.310  -1.938  0.00  0.00    +0.019 A 
ATOM     25  C   UNL     1      -0.097   3.992  -2.143  0.00  0.00    +0.015 A 
ATOM     26 BR   UNL     1      -2.935   4.216  -2.110  0.00  0.00    -0.050 Br
ENDBRANCH  15  22
ENDBRANCH   1  17
TORSDOF 3
