REMARK  Name = ZINC20572892
REMARK  3 active torsions:
REMARK  status: ('A' for Active; 'I' for Inactive)
REMARK    1  A    between atoms: C_2  and  C_14
REMARK    2  A    between atoms: C_6  and  O_12
REMARK    3  A    between atoms: C_14  and  N_15
REMARK                            x       y       z     vdW  Elec       q    Type
REMARK                         _______ _______ _______ _____ _____    ______ ____
ROOT
ATOM      1  C   UNL     1      -0.017   1.406   0.010  0.00  0.00    +0.097 A 
ATOM      2  C   UNL     1       1.152   2.097   0.002  0.00  0.00    -0.016 A 
ATOM      3  C   UNL     1       2.405   1.339  -0.014  0.00  0.00    +0.024 A 
ATOM      4  C   UNL     1       3.643   1.992  -0.021  0.00  0.00    +0.035 A 
ATOM      5  C   UNL     1       4.795   1.261  -0.036  0.00  0.00    +0.083 A 
ATOM      6  C   UNL     1       4.747  -0.133  -0.043  0.00  0.00    +0.139 A 
ATOM      7  C   UNL     1       3.531  -0.795  -0.036  0.00  0.00    +0.093 A 
ATOM      8  C   UNL     1       2.350  -0.067  -0.021  0.00  0.00    +0.143 A 
ATOM      9  O   UNL     1       1.154  -0.694  -0.013  0.00  0.00    -0.422 OA
ATOM     10  C   UNL     1       0.002  -0.004   0.002  0.00  0.00    +0.338 A 
ATOM     11  O   UNL     1      -1.053  -0.612   0.009  0.00  0.00    -0.245 OA
ATOM     12 CL   UNL     1       6.331   2.071  -0.046  0.00  0.00    -0.080 Cl
ENDROOT
BRANCH   6  13
ATOM     13  O   UNL     1       5.902  -0.847  -0.059  0.00  0.00    -0.505 OA
ATOM     14  H   UNL     1       6.245  -1.059   0.820  0.00  0.00    +0.292 HD
ENDBRANCH   6  13
BRANCH   2  15
ATOM     15  C   UNL     1       1.160   3.604   0.010  0.00  0.00    +0.120 C 
BRANCH  15  16
ATOM     16  N   UNL     1       1.296   4.086   1.391  0.00  0.00    -0.298 NA
ATOM     17  C   UNL     1       0.117   3.732   2.190  0.00  0.00    +0.090 C 
ATOM     18  C   UNL     1       0.357   4.115   3.653  0.00  0.00    +0.080 C 
ATOM     19  C   UNL     1       0.632   5.618   3.742  0.00  0.00    +0.172 C 
ATOM     20  C   UNL     1       1.831   5.973   2.859  0.00  0.00    +0.080 C 
ATOM     21  C   UNL     1       1.545   5.533   1.421  0.00  0.00    +0.090 C 
ATOM     22  O   UNL     1       0.919   5.973   5.104  0.00  0.00    -0.346 OA
ATOM     23  C   UNL     1       0.331   7.285   5.276  0.00  0.00    +0.191 C 
ATOM     24  C   UNL     1      -0.947   7.174   4.407  0.00  0.00    +0.191 C 
ATOM     25  O   UNL     1      -0.521   6.346   3.305  0.00  0.00    -0.346 OA
ENDBRANCH  15  16
ENDBRANCH   2  15
TORSDOF 3
