REMARK  Name = ZINC35374495
REMARK  7 active torsions:
REMARK  status: ('A' for Active; 'I' for Inactive)
REMARK    1  A    between atoms: C_1  and  C_2
REMARK    2  A    between atoms: C_2  and  C_3
REMARK    3  A    between atoms: C_3  and  C_5
REMARK    4  A    between atoms: C_3  and  C_6
REMARK    5  A    between atoms: C_6  and  N_7
REMARK    6  A    between atoms: C_8  and  C_10
REMARK    7  A    between atoms: C_21  and  C_23
REMARK                            x       y       z     vdW  Elec       q    Type
REMARK                         _______ _______ _______ _____ _____    ______ ____
ROOT
ATOM      1  C   UNL     1      -6.532  -4.357   1.482  0.00  0.00    +0.028 C 
ATOM      2  C   UNL     1      -7.715  -4.152   2.476  0.00  0.00    +0.061 C 
ATOM      3  S   UNL     1      -8.674  -5.690   2.120  0.00  0.00    -0.174 S 
ATOM      4  C   UNL     1      -7.322  -6.672   1.359  0.00  0.00    -0.016 C 
ATOM      5  N   UNL     1      -6.149  -5.783   1.493  0.00  0.00    +0.397 N 
ATOM      6  C   UNL     1      -7.641  -6.943  -0.102  0.00  0.00    +0.017 C 
ATOM      7  C   UNL     1      -6.495  -7.739  -0.738  0.00  0.00    +0.107 C 
ATOM      8  N   UNL     1      -6.238  -8.931   0.081  0.00  0.00    -0.301 N 
ATOM      9  C   UNL     1      -5.970  -8.761   1.516  0.00  0.00    +0.107 C 
ATOM     10  C   UNL     1      -7.119  -7.961   2.140  0.00  0.00    +0.017 C 
ATOM     11  C   UNL     1      -6.250 -10.159  -0.473  0.00  0.00    +0.219 C 
ATOM     12  O   UNL     1      -6.551 -10.295  -1.641  0.00  0.00    -0.275 OA
ATOM     13  H   UNL     1      -5.518  -5.959   0.726  0.00  0.00    -0.083 HD
ATOM     14  H   UNL     1      -5.676  -5.989   2.359  0.00  0.00    -0.083 HD
ENDROOT
BRANCH  11  15
ATOM     15  C   UNL     1      -5.889 -11.364   0.356  0.00  0.00    +0.075 C 
ATOM     16  C   UNL     1      -4.367 -11.500   0.424  0.00  0.00    +0.013 C 
ATOM     17  C   UNL     1      -4.001 -12.724   1.267  0.00  0.00    +0.001 C 
ATOM     18  C   UNL     1      -4.597 -13.980   0.628  0.00  0.00    +0.000 C 
ATOM     19  C   UNL     1      -6.119 -13.844   0.560  0.00  0.00    +0.001 C 
ATOM     20  C   UNL     1      -6.485 -12.620  -0.282  0.00  0.00    +0.013 C 
ENDBRANCH  11  15
BRANCH   1  22
ATOM     21  N   UNL     1      -5.478  -2.173   1.970  0.00  0.00    -0.316 N 
ATOM     22  C   UNL     1      -5.358  -3.514   1.911  0.00  0.00    +0.200 C 
ATOM     23  O   UNL     1      -4.307  -4.043   2.203  0.00  0.00    -0.278 OA
ATOM     24  H   UNL     1      -6.319  -1.750   1.736  0.00  0.00    +0.149 HD
BRANCH  21  25
ATOM     25  C   UNL     1      -4.337  -1.354   2.387  0.00  0.00    +0.107 C 
BRANCH  25  26
ATOM     26  C   UNL     1      -4.735   0.123   2.368  0.00  0.00    +0.003 C 
ATOM     27  C   UNL     1      -5.037   0.551   0.930  0.00  0.00    +0.009 C 
BRANCH  26  29
ATOM     28  C   UNL     1      -4.030   2.430   3.018  0.00  0.00    +0.004 C 
ATOM     29  C   UNL     1      -3.587   0.968   2.921  0.00  0.00    +0.001 C 
ENDBRANCH  26  29
ENDBRANCH  25  26
ENDBRANCH  21  25
ENDBRANCH   1  22
TORSDOF 5
