REMARK  Name = ZINC40277273
REMARK  11 active torsions:
REMARK  status: ('A' for Active; 'I' for Inactive)
REMARK    1  A    between atoms: C_1  and  C_2
REMARK    2  A    between atoms: C_5  and  C_31
REMARK    3  A    between atoms: C_6  and  O_8
REMARK    4  A    between atoms: O_8  and  C_9
REMARK    5  A    between atoms: C_9  and  C_10
REMARK    6  A    between atoms: C_10  and  N_11
REMARK    7  A    between atoms: C_19  and  C_20
REMARK    8  A    between atoms: C_20  and  N_21
REMARK    9  A    between atoms: C_22  and  C_24
REMARK   10  A    between atoms: C_31  and  C_32
REMARK   11  A    between atoms: C_31  and  C_33
REMARK                            x       y       z     vdW  Elec       q    Type
REMARK                         _______ _______ _______ _____ _____    ______ ____
ROOT
ATOM      1  N   UNL     1       0.058  -2.156   6.003  0.00  0.00    -0.323 N 
ATOM      2  C   UNL     1       1.167  -1.696   6.685  0.00  0.00    +0.069 A 
ATOM      3  C   UNL     1       2.537  -1.796   6.481  0.00  0.00    +0.028 A 
ATOM      4  C   UNL     1       3.405  -1.205   7.375  0.00  0.00    +0.002 A 
ATOM      5  C   UNL     1       2.918  -0.513   8.475  0.00  0.00    +0.002 A 
ATOM      6  C   UNL     1       1.573  -0.405   8.691  0.00  0.00    +0.030 A 
ATOM      7  C   UNL     1       0.675  -0.995   7.798  0.00  0.00    +0.089 A 
ATOM      8  N   UNL     1      -0.680  -1.062   7.740  0.00  0.00    -0.231 NA
ATOM      9  C   UNL     1      -1.040  -1.736   6.687  0.00  0.00    +0.128 A 
ENDROOT
BRANCH   1  10
ATOM     10  C   UNL     1       0.063  -2.946   4.769  0.00  0.00    +0.164 C 
BRANCH  10  11
ATOM     11  C   UNL     1       0.045  -2.006   3.562  0.00  0.00    +0.250 C 
BRANCH  11  12
ATOM     12  O   UNL     1       0.050  -2.776   2.358  0.00  0.00    -0.490 OA
BRANCH  12  18
ATOM     13  C   UNL     1      -0.018   1.503   0.010  0.00  0.00    +0.044 C 
ATOM     14  C   UNL     1       0.002  -0.004   0.002  0.00  0.00    -0.047 A 
ATOM     15  C   UNL     1       0.006  -0.688  -1.200  0.00  0.00    +0.004 A 
ATOM     16  C   UNL     1       0.024  -2.071  -1.211  0.00  0.00    +0.008 A 
ATOM     17  C   UNL     1       0.039  -2.772  -0.020  0.00  0.00    -0.003 A 
ATOM     18  C   UNL     1       0.035  -2.088   1.186  0.00  0.00    +0.124 A 
ATOM     19  C   UNL     1       0.023  -0.700   1.195  0.00  0.00    +0.049 A 
BRANCH  17  20
ATOM     20  C   UNL     1       0.059  -4.279  -0.033  0.00  0.00    +0.016 C 
ATOM     21  C   UNL     1      -1.188  -4.799  -0.753  0.00  0.00    +0.012 C 
ATOM     22  C   UNL     1       1.311  -4.766  -0.764  0.00  0.00    +0.012 C 
ENDBRANCH  17  20
ENDBRANCH  12  18
ENDBRANCH  11  12
ENDBRANCH  10  11
ENDBRANCH   1  10
BRANCH   9  23
ATOM     23  C   UNL     1      -2.466  -2.014   6.286  0.00  0.00    +0.179 C 
BRANCH  23  24
ATOM     24  N   UNL     1      -2.910  -3.268   6.899  0.00  0.00    -0.304 N 
ATOM     25  C   UNL     1      -4.160  -3.720   6.679  0.00  0.00    +0.246 C 
ATOM     26  O   UNL     1      -4.920  -3.088   5.971  0.00  0.00    -0.270 OA
ATOM     27  H   UNL     1      -2.304  -3.773   7.464  0.00  0.00    +0.149 HD
BRANCH  25  28
ATOM     28  C   UNL     1      -4.609  -4.985   7.298  0.00  0.00    +0.055 A 
ATOM     29  C   UNL     1      -3.741  -5.712   8.116  0.00  0.00    +0.014 A 
ATOM     30  C   UNL     1      -4.166  -6.891   8.691  0.00  0.00    +0.001 A 
ATOM     31  C   UNL     1      -5.449  -7.356   8.459  0.00  0.00    +0.001 A 
ATOM     32  C   UNL     1      -6.314  -6.643   7.649  0.00  0.00    +0.021 A 
ATOM     33  C   UNL     1      -5.904  -5.457   7.072  0.00  0.00    +0.053 A 
ATOM     34 CL   UNL     1      -6.993  -4.558   6.062  0.00  0.00    -0.083 Cl
ENDBRANCH  25  28
ENDBRANCH  23  24
ENDBRANCH   9  23
TORSDOF 8
