REMARK  Name = ZINC42466033
REMARK  7 active torsions:
REMARK  status: ('A' for Active; 'I' for Inactive)
REMARK    1  A    between atoms: C_1  and  N_2
REMARK    2  A    between atoms: N_2  and  C_3
REMARK    3  A    between atoms: C_3  and  C_4
REMARK    4  A    between atoms: C_11  and  C_13
REMARK    5  A    between atoms: C_13  and  C_15
REMARK    6  A    between atoms: C_13  and  N_19
REMARK    7  A    between atoms: C_15  and  C_16
REMARK                            x       y       z     vdW  Elec       q    Type
REMARK                         _______ _______ _______ _____ _____    ______ ____
ROOT
ATOM      1  C   UNL     1      -0.018   1.461   0.010  0.00  0.00    +0.132 C 
ATOM      2  N   UNL     1       0.002  -0.004   0.002  0.00  0.00    -0.303 N 
ATOM      3  C   UNL     1       0.000  -0.672  -1.169  0.00  0.00    +0.201 C 
ATOM      4  O   UNL     1       0.017  -1.884  -1.175  0.00  0.00    -0.277 OA
ENDROOT
BRANCH   2   5
ATOM      5  C   UNL     1       0.024  -0.743   1.267  0.00  0.00    +0.139 C 
BRANCH   5   6
ATOM      6  C   UNL     1      -1.411  -1.020   1.720  0.00  0.00    +0.135 C 
ATOM      7  C   UNL     1      -1.388  -1.792   3.042  0.00  0.00    +0.033 C 
ATOM      8  C   UNL     1      -2.826  -2.013   3.521  0.00  0.00    +0.005 C 
ATOM      9  C   UNL     1      -3.523  -0.655   3.652  0.00  0.00    +0.028 C 
ATOM     10  C   UNL     1      -3.463   0.073   2.307  0.00  0.00    +0.160 C 
ATOM     11  O   UNL     1      -2.099   0.218   1.905  0.00  0.00    -0.375 OA
ENDBRANCH   5   6
ENDBRANCH   2   5
BRANCH   3  12
ATOM     12  C   UNL     1      -0.023   0.089  -2.470  0.00  0.00    +0.022 C 
BRANCH  12  13
ATOM     13  N   UNL     1       0.453  -0.781  -3.554  0.00  0.00    +0.386 N 
ATOM     14  H   UNL     1      -0.148  -1.588  -3.626  0.00  0.00    -0.089 HD
ATOM     15  H   UNL     1       0.438  -0.272  -4.425  0.00  0.00    -0.089 HD
ATOM     16  H   UNL     1       1.396  -1.081  -3.356  0.00  0.00    -0.089 HD
ENDBRANCH  12  13
BRANCH  12  17
ATOM     17  C   UNL     1      -1.452   0.543  -2.770  0.00  0.00    +0.088 C 
BRANCH  17  18
ATOM     18  C   UNL     1      -1.456   1.407  -4.005  0.00  0.00    +0.209 C 
ATOM     19  O   UNL     1      -0.417   1.636  -4.588  0.00  0.00    -0.276 OA
ATOM     20  N   UNL     1      -2.614   1.924  -4.462  0.00  0.00    -0.329 N 
ATOM     21  H   UNL     1      -3.444   1.740  -3.996  0.00  0.00    +0.145 HD
ATOM     22  H   UNL     1      -2.616   2.480  -5.257  0.00  0.00    +0.145 HD
ENDBRANCH  17  18
ENDBRANCH  12  17
ENDBRANCH   3  12
TORSDOF 6
