REMARK  Name = ZINC58158195
REMARK  7 active torsions:
REMARK  status: ('A' for Active; 'I' for Inactive)
REMARK    1  A    between atoms: C_1  and  O_2
REMARK    2  A    between atoms: O_2  and  C_3
REMARK    3  A    between atoms: C_3  and  C_5
REMARK    4  A    between atoms: N_16  and  C_17
REMARK    5  A    between atoms: C_17  and  C_18
REMARK    6  A    between atoms: N_20  and  C_21
REMARK    7  A    between atoms: C_26  and  C_27
REMARK                            x       y       z     vdW  Elec       q    Type
REMARK                         _______ _______ _______ _____ _____    ______ ____
ROOT
ATOM      1  C   UNL     1       1.548  -1.318  -3.255  0.00  0.00    +0.020 C 
ENDROOT
BRANCH   1  10
ATOM      2  C   UNL     1       0.915  -1.994  -1.032  0.00  0.00    +0.044 C 
ATOM      3  C   UNL     1       1.916  -2.603  -0.021  0.00  0.00    -0.002 C 
ATOM      4  C   UNL     1       2.467  -3.816  -0.797  0.00  0.00    -0.026 C 
ATOM      5  C   UNL     1       3.796  -4.292  -0.264  0.00  0.00    +0.002 C 
ATOM      6  C   UNL     1       4.883  -3.232  -0.435  0.00  0.00    +0.000 C 
ATOM      7  C   UNL     1       5.005  -2.909  -1.929  0.00  0.00    -0.002 C 
ATOM      8  C   UNL     1       3.691  -2.292  -2.399  0.00  0.00    -0.015 C 
ATOM      9  C   UNL     1       2.553  -3.273  -2.235  0.00  0.00    -0.064 C 
ATOM     10  N   UNL     1       1.303  -2.468  -2.375  0.00  0.00    +0.396 N 
ATOM     11  H   UNL     1       0.568  -3.041  -2.760  0.00  0.00    -0.080 HD
BRANCH   2  12
ATOM     12  C   UNL     1       0.985  -0.490  -0.979  0.00  0.00    +0.293 C 
ATOM     13  O   UNL     1       2.049   0.070  -1.092  0.00  0.00    -0.253 OA
BRANCH  12  15
ATOM     14  C   UNL     1       0.003   1.650  -0.766  0.00  0.00    +0.280 C 
ATOM     15  O   UNL     1      -0.137   0.228  -0.807  0.00  0.00    -0.469 OA
ENDBRANCH  12  15
ENDBRANCH   2  12
ENDBRANCH   1  10
BRANCH   1  16
ATOM     16  C   UNL     1       0.250  -0.599  -3.515  0.00  0.00    +0.201 C 
ATOM     17  O   UNL     1      -0.778  -1.004  -3.016  0.00  0.00    -0.278 OA
ATOM     18  N   UNL     1       0.231   0.495  -4.302  0.00  0.00    -0.286 N 
ATOM     19  H   UNL     1       1.042   0.785  -4.749  0.00  0.00    +0.155 HD
BRANCH  18  20
ATOM     20  C   UNL     1      -0.952   1.210  -4.473  0.00  0.00    +0.045 A 
ATOM     21  C   UNL     1      -2.164   0.539  -4.572  0.00  0.00    +0.024 A 
ATOM     22  C   UNL     1      -3.335   1.249  -4.742  0.00  0.00    +0.002 A 
ATOM     23  C   UNL     1      -3.313   2.633  -4.815  0.00  0.00    +0.001 A 
ATOM     24  C   UNL     1      -2.119   3.315  -4.719  0.00  0.00    +0.015 A 
ATOM     25  C   UNL     1      -0.926   2.611  -4.541  0.00  0.00    +0.058 A 
BRANCH  25  26
ATOM     26  C   UNL     1       0.354   3.335  -4.431  0.00  0.00    +0.243 C 
ATOM     27  O   UNL     1       1.399   2.717  -4.360  0.00  0.00    -0.270 OA
ATOM     28  N   UNL     1       0.366   4.683  -4.409  0.00  0.00    -0.325 N 
ATOM     29  H   UNL     1      -0.467   5.176  -4.466  0.00  0.00    +0.145 HD
ATOM     30  H   UNL     1       1.208   5.159  -4.337  0.00  0.00    +0.145 HD
ENDBRANCH  25  26
ENDBRANCH  18  20
ENDBRANCH   1  16
TORSDOF 6
