REMARK  Name = ZINC49937849
REMARK  2 active torsions:
REMARK  status: ('A' for Active; 'I' for Inactive)
REMARK    1  A    between atoms: C_6  and  C_7
REMARK    2  A    between atoms: C_18  and  C_20
REMARK                            x       y       z     vdW  Elec       q    Type
REMARK                         _______ _______ _______ _____ _____    ______ ____
ROOT
ATOM      1  C   UNL     1      -1.480  -1.527   0.046  0.00  0.00    +0.154 C 
ATOM      2  C   UNL     1      -1.271  -2.086   1.464  0.00  0.00    +0.113 C 
ATOM      3  C   UNL     1      -0.951  -3.571   1.539  0.00  0.00    +0.065 C 
ATOM      4  C   UNL     1      -0.426  -4.069   2.816  0.00  0.00    +0.040 A 
ATOM      5  C   UNL     1      -0.422  -5.429   3.122  0.00  0.00    +0.033 A 
ATOM      6  C   UNL     1       0.089  -5.854   4.332  0.00  0.00    +0.042 A 
ATOM      7  C   UNL     1       0.597  -4.932   5.235  0.00  0.00    +0.023 A 
ATOM      8  C   UNL     1       0.594  -3.583   4.942  0.00  0.00    +0.048 A 
ATOM      9  C   UNL     1       0.081  -3.133   3.735  0.00  0.00    +0.130 A 
ATOM     10  O   UNL     1       0.065  -1.807   3.455  0.00  0.00    -0.483 OA
ATOM     11  C   UNL     1      -0.072  -1.380   2.098  0.00  0.00    +0.215 C 
ATOM     12 CL   UNL     1       0.097  -7.546   4.723  0.00  0.00    -0.084 Cl
ATOM     13  N   UNL     1      -1.083  -4.312   0.490  0.00  0.00    -0.215 NA
ATOM     14  C   UNL     1      -1.399  -3.850  -0.745  0.00  0.00    +0.249 A 
ATOM     15  N   UNL     1      -1.570  -2.536  -1.020  0.00  0.00    -0.221 N 
ATOM     16  N   UNL     1      -1.832  -2.440  -2.393  0.00  0.00    -0.156 NA
ATOM     17  C   UNL     1      -1.838  -3.662  -2.862  0.00  0.00    +0.247 A 
ATOM     18  N   UNL     1      -1.587  -4.510  -1.883  0.00  0.00    -0.198 NA
ENDROOT
BRANCH   1  24
ATOM     19  C   UNL     1      -0.232   0.619   0.365  0.00  0.00    +0.008 A 
ATOM     20  C   UNL     1       0.820   1.467   0.074  0.00  0.00    +0.038 A 
ATOM     21  C   UNL     1       1.774   1.091  -0.857  0.00  0.00    +0.123 A 
ATOM     22  C   UNL     1       1.672  -0.133  -1.496  0.00  0.00    +0.038 A 
ATOM     23  C   UNL     1       0.619  -0.979  -1.203  0.00  0.00    +0.008 A 
ATOM     24  C   UNL     1      -0.333  -0.603  -0.273  0.00  0.00    -0.022 A 
ATOM     25  F   UNL     1       2.802   1.919  -1.143  0.00  0.00    -0.205 F 
ENDBRANCH   1  24
BRANCH  11  26
ATOM     26  C   UNL     1       1.178  -1.728   1.333  0.00  0.00    -0.004 A 
ATOM     27  C   UNL     1       2.383  -1.104   1.621  0.00  0.00    +0.027 A 
ATOM     28  C   UNL     1       3.509  -1.448   0.898  0.00  0.00    +0.111 A 
ATOM     29  N   UNL     1       3.447  -2.357  -0.056  0.00  0.00    -0.263 NA
ATOM     30  C   UNL     1       2.319  -2.970  -0.357  0.00  0.00    +0.111 A 
ATOM     31  C   UNL     1       1.153  -2.682   0.328  0.00  0.00    +0.027 A 
ENDBRANCH  11  26
TORSDOF 2
