REMARK  Name = ZINC62314248
REMARK  9 active torsions:
REMARK  status: ('A' for Active; 'I' for Inactive)
REMARK    1  A    between atoms: C_1  and  C_2
REMARK    2  A    between atoms: C_5  and  C_8
REMARK    3  A    between atoms: C_9  and  C_19
REMARK    4  A    between atoms: N_12  and  C_13
REMARK    5  A    between atoms: C_13  and  C_14
REMARK    6  A    between atoms: C_14  and  C_16
REMARK    7  A    between atoms: C_14  and  O_18
REMARK    8  A    between atoms: C_16  and  O_17
REMARK    9  A    between atoms: C_19  and  N_20
REMARK                            x       y       z     vdW  Elec       q    Type
REMARK                         _______ _______ _______ _____ _____    ______ ____
ROOT
ATOM      1  C   UNL     1       0.122  -4.022  -0.019  0.00  0.00    +0.090 A 
ATOM      2  C   UNL     1      -0.793  -4.738  -0.738  0.00  0.00    +0.073 A 
ATOM      3  N   UNL     1      -0.556  -6.025  -0.474  0.00  0.00    -0.136 NA
ATOM      4  N   UNL     1       0.430  -6.116   0.346  0.00  0.00    -0.065 NA
ATOM      5  N   UNL     1       0.876  -4.946   0.647  0.00  0.00    -0.241 N 
ENDROOT
BRANCH   1  10
ATOM      6  C   UNL     1       0.695   1.703   0.153  0.00  0.00    +0.044 C 
ATOM      7  C   UNL     1       0.545   0.204   0.108  0.00  0.00    -0.050 A 
ATOM      8  C   UNL     1      -0.677  -0.375   0.401  0.00  0.00    +0.004 A 
ATOM      9  C   UNL     1      -0.821  -1.746   0.362  0.00  0.00    +0.010 A 
ATOM     10  C   UNL     1       0.269  -2.550   0.025  0.00  0.00    +0.002 A 
ATOM     11  C   UNL     1       1.498  -1.960  -0.269  0.00  0.00    +0.010 A 
ATOM     12  C   UNL     1       1.628  -0.587  -0.232  0.00  0.00    +0.004 A 
ENDBRANCH   1  10
BRANCH   5  13
ATOM     13  C   UNL     1       1.994  -4.657   1.548  0.00  0.00    +0.179 C 
BRANCH  13  14
ATOM     14  C   UNL     1       1.493  -4.638   2.994  0.00  0.00    +0.161 C 
BRANCH  14  15
ATOM     15  O   UNL     1       0.558  -3.571   3.159  0.00  0.00    -0.388 OA
ATOM     16  H   UNL     1       0.901  -2.704   2.904  0.00  0.00    +0.210 HD
ENDBRANCH  14  15
BRANCH  14  17
ATOM     17  C   UNL     1       2.677  -4.431   3.941  0.00  0.00    +0.189 C 
BRANCH  17  18
ATOM     18  O   UNL     1       2.227  -4.529   5.294  0.00  0.00    -0.392 OA
ATOM     19  H   UNL     1       2.926  -4.407   5.951  0.00  0.00    +0.210 HD
ENDBRANCH  17  18
ENDBRANCH  14  17
ENDBRANCH  13  14
ENDBRANCH   5  13
BRANCH   2  20
ATOM     20  C   UNL     1      -1.859  -4.185  -1.648  0.00  0.00    -0.026 C 
BRANCH  20  21
ATOM     21  N   UNL     1      -1.364  -4.172  -3.031  0.00  0.00    +0.382 N 
ATOM     22  H   UNL     1      -0.496  -3.660  -3.073  0.00  0.00    -0.090 HD
ATOM     23  H   UNL     1      -1.210  -5.120  -3.342  0.00  0.00    -0.090 HD
ATOM     24  H   UNL     1      -2.046  -3.728  -3.628  0.00  0.00    -0.090 HD
ENDBRANCH  20  21
ENDBRANCH   2  20
TORSDOF 8
