REMARK  Name = ZINC42134638
REMARK  2 active torsions:
REMARK  status: ('A' for Active; 'I' for Inactive)
REMARK    1  A    between atoms: C_10  and  N_12
REMARK    2  A    between atoms: N_12  and  C_13
REMARK                            x       y       z     vdW  Elec       q    Type
REMARK                         _______ _______ _______ _____ _____    ______ ____
ROOT
ATOM      1  C   UNL     1      -0.017   1.389   0.010  0.00  0.00    +0.062 A 
ATOM      2  C   UNL     1       1.169   2.100   0.002  0.00  0.00    +0.128 A 
ATOM      3  C   UNL     1       2.383   1.435  -0.013  0.00  0.00    +0.077 A 
ATOM      4  C   UNL     1       2.409   0.049  -0.021  0.00  0.00    +0.130 A 
ATOM      5  C   UNL     1       1.226  -0.661  -0.013  0.00  0.00    +0.004 A 
ATOM      6  C   UNL     1       0.002  -0.004   0.002  0.00  0.00    +0.041 A 
ATOM      7  N   UNL     1      -1.042  -0.930   0.007  0.00  0.00    -0.286 N 
ATOM      8  C   UNL     1      -0.597  -2.198  -0.004  0.00  0.00    +0.208 C 
ATOM      9  O   UNL     1      -1.280  -3.201  -0.003  0.00  0.00    -0.277 OA
ATOM     10  C   UNL     1       0.915  -2.140  -0.018  0.00  0.00    +0.052 C 
ATOM     11  F   UNL     1       3.590  -0.606  -0.036  0.00  0.00    -0.205 F 
ATOM     12  F   UNL     1       1.142   3.450   0.009  0.00  0.00    -0.205 F 
ATOM     13  H   UNL     1      -1.981  -0.686   0.018  0.00  0.00    +0.155 HD
ENDROOT
BRANCH  10  14
ATOM     14  N   UNL     1       1.444  -2.773  -1.234  0.00  0.00    +0.391 N 
ATOM     15  H   UNL     1       0.962  -2.405  -2.041  0.00  0.00    -0.084 HD
ATOM     16  H   UNL     1       2.430  -2.578  -1.313  0.00  0.00    -0.084 HD
BRANCH  14  17
ATOM     17  C   UNL     1       1.235  -4.225  -1.160  0.00  0.00    -0.066 C 
ATOM     18  C   UNL     1       2.074  -4.805  -0.017  0.00  0.00    +0.012 C 
ATOM     19  C   UNL     1       1.911  -6.327   0.002  0.00  0.00    +0.158 C 
ATOM     20  O   UNL     1       2.305  -6.863  -1.263  0.00  0.00    -0.380 OA
ATOM     21  C   UNL     1       1.524  -6.392  -2.364  0.00  0.00    +0.158 C 
ATOM     22  C   UNL     1       1.671  -4.873  -2.478  0.00  0.00    +0.012 C 
ENDBRANCH  14  17
ENDBRANCH  10  14
TORSDOF 2
