REMARK  Name = ZINC63159674
REMARK  8 active torsions:
REMARK  status: ('A' for Active; 'I' for Inactive)
REMARK    1  A    between atoms: C_1  and  O_2
REMARK    2  A    between atoms: O_2  and  C_3
REMARK    3  A    between atoms: C_6  and  C_9
REMARK    4  A    between atoms: C_9  and  C_11
REMARK    5  A    between atoms: C_9  and  C_28
REMARK    6  A    between atoms: C_11  and  N_12
REMARK    7  A    between atoms: C_16  and  S_19
REMARK    8  A    between atoms: S_19  and  N_22
REMARK                            x       y       z     vdW  Elec       q    Type
REMARK                         _______ _______ _______ _____ _____    ______ ____
ROOT
ATOM      1  C   UNL     1      -4.981  -2.629   0.035  0.00  0.00    +0.064 C 
ENDROOT
BRANCH   1   2
ATOM      2  C   UNL     1      -5.103  -3.490  -1.196  0.00  0.00    -0.033 C 
ATOM      3  C   UNL     1      -6.039  -3.392  -2.167  0.00  0.00    -0.000 A 
ATOM      4  C   UNL     1      -7.180  -2.489  -2.362  0.00  0.00    +0.010 A 
ATOM      5  C   UNL     1      -7.956  -2.639  -3.459  0.00  0.00    +0.001 A 
ATOM      6  C   UNL     1      -7.699  -3.633  -4.413  0.00  0.00    +0.002 A 
ATOM      7  C   UNL     1      -6.670  -4.500  -4.304  0.00  0.00    +0.026 A 
ATOM      8  C   UNL     1      -5.789  -4.433  -3.190  0.00  0.00    +0.043 A 
ATOM      9  N   UNL     1      -4.739  -5.147  -2.862  0.00  0.00    -0.380 N 
ATOM     10  C   UNL     1      -4.201  -4.636  -1.597  0.00  0.00    +0.145 C 
ATOM     11  H   UNL     1      -4.377  -5.888  -3.374  0.00  0.00    +0.160 HD
ENDBRANCH   1   2
BRANCH   1  15
ATOM     12  C   UNL     1      -1.200  -0.637   0.010  0.00  0.00    +0.120 A 
ATOM     13  C   UNL     1      -2.375   0.101   0.019  0.00  0.00    +0.046 A 
ATOM     14  C   UNL     1      -3.596  -0.545   0.027  0.00  0.00    +0.008 A 
ATOM     15  C   UNL     1      -3.648  -1.927   0.026  0.00  0.00    -0.038 A 
ATOM     16  C   UNL     1      -2.479  -2.665   0.017  0.00  0.00    +0.008 A 
ATOM     17  C   UNL     1      -1.255  -2.024   0.003  0.00  0.00    +0.046 A 
BRANCH  12  19
ATOM     18  C   UNL     1      -0.017   1.425   0.010  0.00  0.00    +0.277 C 
ATOM     19  O   UNL     1       0.002  -0.004   0.002  0.00  0.00    -0.495 OA
ENDBRANCH  12  19
ENDBRANCH   1  15
BRANCH   1  20
ATOM     20  C   UNL     1      -5.087  -3.506   1.284  0.00  0.00    +0.115 C 
BRANCH  20  21
ATOM     21  N   UNL     1      -6.427  -4.096   1.355  0.00  0.00    -0.328 N 
ATOM     22  C   UNL     1      -6.761  -4.936   2.410  0.00  0.00    +0.119 A 
ATOM     23  C   UNL     1      -5.821  -5.209   3.399  0.00  0.00    +0.045 A 
ATOM     24  C   UNL     1      -6.168  -6.047   4.443  0.00  0.00    +0.033 A 
ATOM     25  C   UNL     1      -7.448  -6.586   4.464  0.00  0.00    +0.124 A 
ATOM     26  C   UNL     1      -8.330  -6.272   3.450  0.00  0.00    +0.141 A 
ATOM     27  N   UNL     1      -7.973  -5.465   2.469  0.00  0.00    -0.239 NA
ATOM     28  H   UNL     1      -7.080  -3.899   0.665  0.00  0.00    +0.147 HD
BRANCH  25  29
ATOM     29  S   UNL     1      -7.940  -7.659   5.772  0.00  0.00    +0.062 S 
ATOM     30  O   UNL     1      -9.002  -8.456   5.265  0.00  0.00    -0.153 OA
ATOM     31  O   UNL     1      -6.750  -8.225   6.303  0.00  0.00    -0.153 OA
BRANCH  29  32
ATOM     32  N   UNL     1      -8.588  -6.712   6.965  0.00  0.00    -0.172 NA
ATOM     33  C   UNL     1      -7.742  -6.156   8.034  0.00  0.00    +0.137 C 
ATOM     34  C   UNL     1      -8.018  -4.652   8.135  0.00  0.00    +0.177 C 
ATOM     35  O   UNL     1      -9.425  -4.438   8.263  0.00  0.00    -0.377 OA
ATOM     36  C   UNL     1     -10.190  -4.884   7.141  0.00  0.00    +0.177 C 
ATOM     37  C   UNL     1     -10.025  -6.396   6.986  0.00  0.00    +0.137 C 
ENDBRANCH  29  32
ENDBRANCH  25  29
ENDBRANCH  20  21
ENDBRANCH   1  20
TORSDOF 7
