REMARK  Name = ZINC40760987
REMARK  5 active torsions:
REMARK  status: ('A' for Active; 'I' for Inactive)
REMARK    1  A    between atoms: C_4  and  N_7
REMARK    2  A    between atoms: N_7  and  C_8
REMARK    3  A    between atoms: N_7  and  N_14
REMARK    4  A    between atoms: C_16  and  N_31
REMARK    5  A    between atoms: C_17  and  N_21
REMARK                            x       y       z     vdW  Elec       q    Type
REMARK                         _______ _______ _______ _____ _____    ______ ____
ROOT
ATOM      1  N   UNL     1       4.757   0.042  -0.475  0.00  0.00    -0.243 N 
ATOM      2  C   UNL     1       5.845   0.199   0.375  0.00  0.00    +0.139 A 
ATOM      3  C   UNL     1       6.982   0.891  -0.048  0.00  0.00    +0.105 A 
ATOM      4  C   UNL     1       8.046   1.018   0.846  0.00  0.00    +0.150 A 
ATOM      5  N   UNL     1       7.938   0.480   2.058  0.00  0.00    -0.221 NA
ATOM      6  C   UNL     1       6.848  -0.165   2.418  0.00  0.00    +0.200 A 
ATOM      7  N   UNL     1       5.818  -0.304   1.607  0.00  0.00    -0.332 N 
ATOM      8  H   UNL     1       4.785   0.412  -1.371  0.00  0.00    +0.172 HD
ATOM      9  H   UNL     1       5.031  -0.783   1.911  0.00  0.00    +0.168 HD
ENDROOT
BRANCH   4  10
ATOM     10  N   UNL     1       9.203   1.698   0.475  0.00  0.00    -0.277 N 
ATOM     11  C   UNL     1      10.250   1.818   1.369  0.00  0.00    +0.165 A 
ATOM     12  N   UNL     1      10.343   1.359   2.596  0.00  0.00    -0.225 NA
ATOM     13  C   UNL     1      11.438   1.553   3.362  0.00  0.00    +0.080 A 
ATOM     14  C   UNL     1      11.665   1.117   4.688  0.00  0.00    +0.029 A 
ATOM     15  C   UNL     1      12.843   1.401   5.327  0.00  0.00    +0.002 A 
ATOM     16  C   UNL     1      13.850   2.123   4.704  0.00  0.00    +0.001 A 
ATOM     17  C   UNL     1      13.663   2.565   3.407  0.00  0.00    +0.017 A 
ATOM     18  C   UNL     1      12.486   2.285   2.759  0.00  0.00    +0.041 A 
ATOM     19  S   UNL     1      11.826   2.631   1.146  0.00  0.00    -0.052 S 
ATOM     20  H   UNL     1       9.274   2.087  -0.410  0.00  0.00    +0.156 HD
ENDBRANCH   4  10
BRANCH   3  21
ATOM     21  N   UNL     1       7.053   1.442  -1.337  0.00  0.00    -0.353 N 
ATOM     22  H   UNL     1       6.306   1.345  -1.947  0.00  0.00    +0.143 HD
ATOM     23  H   UNL     1       7.849   1.921  -1.617  0.00  0.00    +0.143 HD
ENDBRANCH   3  21
BRANCH   1  24
ATOM     24  N   UNL     1       3.620  -0.649  -0.037  0.00  0.00    -0.221 N 
BRANCH  24  28
ATOM     25  C   UNL     1       0.168   1.450   0.971  0.00  0.00    +0.000 A 
ATOM     26  C   UNL     1       1.371   1.772   1.571  0.00  0.00    +0.002 A 
ATOM     27  C   UNL     1       2.518   1.078   1.239  0.00  0.00    +0.025 A 
ATOM     28  C   UNL     1       2.462   0.055   0.301  0.00  0.00    +0.053 A 
ATOM     29  C   UNL     1       1.251  -0.266  -0.300  0.00  0.00    +0.025 A 
ATOM     30  C   UNL     1       0.108   0.432   0.037  0.00  0.00    +0.002 A 
ENDBRANCH  24  28
BRANCH  24  31
ATOM     31  C   UNL     1       3.644  -2.043   0.060  0.00  0.00    +0.053 A 
ATOM     32  C   UNL     1       4.720  -2.758  -0.451  0.00  0.00    +0.025 A 
ATOM     33  C   UNL     1       4.741  -4.135  -0.352  0.00  0.00    +0.002 A 
ATOM     34  C   UNL     1       3.692  -4.803   0.254  0.00  0.00    +0.000 A 
ATOM     35  C   UNL     1       2.619  -4.094   0.763  0.00  0.00    +0.002 A 
ATOM     36  C   UNL     1       2.595  -2.716   0.674  0.00  0.00    +0.025 A 
ENDBRANCH  24  31
ENDBRANCH   1  24
TORSDOF 5
