REMARK  Name = ZINC39987208
REMARK  4 active torsions:
REMARK  status: ('A' for Active; 'I' for Inactive)
REMARK    1  A    between atoms: C_4  and  C_7
REMARK    2  A    between atoms: C_17  and  C_19
REMARK    3  A    between atoms: C_22  and  C_25
REMARK    4  A    between atoms: C_30  and  C_32
REMARK                            x       y       z     vdW  Elec       q    Type
REMARK                         _______ _______ _______ _____ _____    ______ ____
ROOT
ATOM      1  C   UNL     1       2.395  -0.745  -0.478  0.00  0.00    -0.014 C 
ATOM      2  C   UNL     1       3.506  -0.015  -0.911  0.00  0.00    +0.002 A 
ATOM      3  C   UNL     1       3.437   1.387  -1.052  0.00  0.00    +0.030 A 
ATOM      4  C   UNL     1       4.534   2.073  -1.475  0.00  0.00    +0.042 A 
ATOM      5  C   UNL     1       5.727   1.418  -1.774  0.00  0.00    +0.022 A 
ATOM      6  C   UNL     1       5.854   0.067  -1.659  0.00  0.00    +0.025 A 
ATOM      7  C   UNL     1       4.761  -0.706  -1.226  0.00  0.00    +0.041 A 
ATOM      8  N   UNL     1       4.888  -2.033  -1.113  0.00  0.00    -0.284 N 
ATOM      9  C   UNL     1       3.912  -2.826  -0.715  0.00  0.00    +0.230 C 
ATOM     10  O   UNL     1       4.099  -4.026  -0.635  0.00  0.00    -0.274 OA
ATOM     11  C   UNL     1       2.564  -2.246  -0.351  0.00  0.00    +0.152 C 
ATOM     12 CL   UNL     1       4.445   3.798  -1.646  0.00  0.00    -0.084 Cl
ATOM     13  H   UNL     1       5.743  -2.433  -1.335  0.00  0.00    +0.155 HD
ENDROOT
BRANCH  11  14
ATOM     14  C   UNL     1       2.261  -2.627   1.075  0.00  0.00    +0.056 C 
ATOM     15  N   UNL     1       2.008  -1.808   2.012  0.00  0.00    -0.184 NA
ATOM     16  N   UNL     1       1.759  -2.402   3.247  0.00  0.00    -0.178 N 
ATOM     17  C   UNL     1       1.867  -3.863   3.099  0.00  0.00    +0.173 C 
ATOM     18  C   UNL     1       2.207  -4.042   1.605  0.00  0.00    +0.086 C 
ATOM     19  C   UNL     1       1.467  -1.748   4.389  0.00  0.00    +0.266 C 
ATOM     20  O   UNL     1       1.300  -2.370   5.421  0.00  0.00    -0.268 OA
BRANCH  19  21
ATOM     21  C   UNL     1       1.351  -0.276   4.388  0.00  0.00    +0.039 A 
ATOM     22  C   UNL     1       0.888   0.392   5.524  0.00  0.00    +0.016 A 
ATOM     23  C   UNL     1       0.782   1.766   5.517  0.00  0.00    +0.039 A 
ATOM     24  C   UNL     1       1.134   2.486   4.385  0.00  0.00    +0.123 A 
ATOM     25  C   UNL     1       1.594   1.828   3.255  0.00  0.00    +0.039 A 
ATOM     26  C   UNL     1       1.710   0.455   3.253  0.00  0.00    +0.016 A 
ATOM     27  F   UNL     1       1.028   3.833   4.384  0.00  0.00    -0.205 F 
ENDBRANCH  19  21
BRANCH  17  28
ATOM     28  C   UNL     1       0.556  -4.529   3.428  0.00  0.00    +0.128 A 
ATOM     29  C   UNL     1       0.408  -5.689   4.092  0.00  0.00    +0.046 A 
ATOM     30  C   UNL     1      -0.981  -5.939   4.176  0.00  0.00    +0.041 A 
ATOM     31  C   UNL     1      -1.599  -4.917   3.558  0.00  0.00    +0.195 A 
ATOM     32  O   UNL     1      -0.663  -4.063   3.111  0.00  0.00    -0.466 OA
ENDBRANCH  17  28
ENDBRANCH  11  14
BRANCH   1  36
ATOM     33  C   UNL     1      -1.234   1.136   0.444  0.00  0.00    +0.000 A 
ATOM     34  C   UNL     1      -0.039   1.713   0.843  0.00  0.00    +0.001 A 
ATOM     35  C   UNL     1       1.159   1.103   0.544  0.00  0.00    +0.008 A 
ATOM     36  C   UNL     1       1.167  -0.109  -0.166  0.00  0.00    -0.020 A 
ATOM     37  C   UNL     1      -0.050  -0.686  -0.565  0.00  0.00    +0.008 A 
ATOM     38  C   UNL     1      -1.237  -0.059  -0.257  0.00  0.00    +0.001 A 
ENDBRANCH   1  36
TORSDOF 4
