REMARK  Name = ZINC35365953
REMARK  8 active torsions:
REMARK  status: ('A' for Active; 'I' for Inactive)
REMARK    1  A    between atoms: C_1  and  C_2
REMARK    2  A    between atoms: C_9  and  O_20
REMARK    3  A    between atoms: C_12  and  C_14
REMARK    4  A    between atoms: C_23  and  O_40
REMARK    5  A    between atoms: C_24  and  C_31
REMARK    6  A    between atoms: C_27  and  O_30
REMARK    7  A    between atoms: N_32  and  N_33
REMARK    8  A    between atoms: N_33  and  C_34
REMARK                            x       y       z     vdW  Elec       q    Type
REMARK                         _______ _______ _______ _____ _____    ______ ____
ROOT
ATOM      1  C   UNL     1      -0.040   1.566  -0.058  0.00  0.00    +0.014 C 
ATOM      2  C   UNL     1      -0.051   0.029  -0.048  0.00  0.00    +0.004 C 
ATOM      3  C   UNL     1      -1.462  -0.489  -0.066  0.00  0.00    +0.010 C 
ATOM      4  C   UNL     1      -2.150  -0.315   1.298  0.00  0.00    +0.005 C 
ATOM      5  C   UNL     1      -1.295   0.409   2.317  0.00  0.00    +0.009 C 
ATOM      6  C   UNL     1       0.086  -0.208   2.475  0.00  0.00    +0.025 C 
ATOM      7  C   UNL     1       0.712  -0.560   1.156  0.00  0.00    +0.075 C 
ATOM      8  C   UNL     1       2.140  -0.064   0.890  0.00  0.00    +0.036 C 
ATOM      9  C   UNL     1       2.294  -0.313  -0.638  0.00  0.00    +0.011 C 
ATOM     10  C   UNL     1       0.860  -0.366  -1.224  0.00  0.00    +0.027 C 
ATOM     11  C   UNL     1       0.948   0.690   3.353  0.00  0.00    +0.009 C 
ATOM     12  C   UNL     1       0.290   0.870   4.723  0.00  0.00    +0.036 C 
ATOM     13  C   UNL     1      -1.048   0.150   4.814  0.00  0.00    +0.079 C 
ATOM     14  C   UNL     1      -1.984   0.539   3.677  0.00  0.00    +0.039 C 
ATOM     15  C   UNL     1      -3.242  -0.323   3.750  0.00  0.00    +0.018 C 
ATOM     16  C   UNL     1      -3.946  -0.114   5.090  0.00  0.00    +0.032 C 
ATOM     17  C   UNL     1      -3.007  -0.369   6.264  0.00  0.00    +0.117 C 
ATOM     18  C   UNL     1      -1.732   0.469   6.153  0.00  0.00    +0.067 C 
ENDROOT
BRANCH  10  19
ATOM     19  C   UNL     1       0.547  -1.728  -1.789  0.00  0.00    -0.022 C 
ATOM     20  C   UNL     1       1.236  -2.849  -1.585  0.00  0.00    +0.094 C 
ATOM     21  C   UNL     1       0.592  -3.945  -2.316  0.00  0.00    +0.332 C 
ATOM     22  O   UNL     1       0.979  -5.097  -2.332  0.00  0.00    -0.246 OA
ATOM     23  O   UNL     1      -0.492  -3.483  -2.967  0.00  0.00    -0.457 OA
ATOM     24  C   UNL     1      -0.611  -2.084  -2.691  0.00  0.00    +0.264 C 
ENDBRANCH  10  19
BRANCH   7  25
ATOM     25  O   UNL     1       0.726  -2.004   1.064  0.00  0.00    -0.388 OA
ATOM     26  H   UNL     1       1.191  -2.441   1.791  0.00  0.00    +0.210 HD
ENDBRANCH   7  25
BRANCH  17  27
ATOM     27  O   UNL     1      -3.678  -0.039   7.486  0.00  0.00    -0.392 OA
ATOM     28  H   UNL     1      -4.482  -0.552   7.644  0.00  0.00    +0.210 HD
ENDBRANCH  17  27
BRANCH  14  29
ATOM     29  C   UNL     1      -2.388   1.995   3.815  0.00  0.00    +0.113 C 
ATOM     30  N   UNL     1      -3.620   2.306   3.962  0.00  0.00    -0.194 NA
BRANCH  30  31
ATOM     31  N   UNL     1      -3.993   3.651   4.090  0.00  0.00    -0.238 N 
ATOM     32  H   UNL     1      -3.317   4.346   4.067  0.00  0.00    +0.174 HD
BRANCH  31  33
ATOM     33  C   UNL     1      -5.338   3.990   4.250  0.00  0.00    +0.048 A 
ATOM     34  C   UNL     1      -6.307   2.996   4.289  0.00  0.00    +0.025 A 
ATOM     35  C   UNL     1      -7.636   3.336   4.448  0.00  0.00    +0.002 A 
ATOM     36  C   UNL     1      -8.003   4.664   4.568  0.00  0.00    +0.000 A 
ATOM     37  C   UNL     1      -7.040   5.656   4.529  0.00  0.00    +0.002 A 
ATOM     38  C   UNL     1      -5.709   5.324   4.377  0.00  0.00    +0.025 A 
ENDBRANCH  31  33
ENDBRANCH  30  31
ENDBRANCH  14  29
BRANCH  13  39
ATOM     39  O   UNL     1      -0.834  -1.270   4.815  0.00  0.00    -0.388 OA
ATOM     40  H   UNL     1      -0.292  -1.586   5.551  0.00  0.00    +0.210 HD
ENDBRANCH  13  39
TORSDOF 7
