REMARK  Name = ZINC67517650
REMARK  4 active torsions:
REMARK  status: ('A' for Active; 'I' for Inactive)
REMARK    1  A    between atoms: C_1  and  C_2
REMARK    2  A    between atoms: C_2  and  C_3
REMARK    3  A    between atoms: C_4  and  C_8
REMARK    4  A    between atoms: C_20  and  C_23
REMARK                            x       y       z     vdW  Elec       q    Type
REMARK                         _______ _______ _______ _____ _____    ______ ____
ROOT
ATOM      1  C   UNL     1      -1.688  -0.638   2.589  0.00  0.00    +0.257 C 
ATOM      2  O   UNL     1      -0.541  -0.330   2.850  0.00  0.00    -0.269 OA
ATOM      3  N   UNL     1      -2.570  -0.859   3.584  0.00  0.00    -0.294 N 
ATOM      4  C   UNL     1      -3.920  -1.360   3.295  0.00  0.00    +0.108 C 
ATOM      5  C   UNL     1      -4.172  -2.620   4.129  0.00  0.00    +0.019 C 
ATOM      6  C   UNL     1      -3.915  -2.312   5.607  0.00  0.00    +0.007 C 
ATOM      7  C   UNL     1      -2.460  -1.881   5.790  0.00  0.00    +0.010 C 
ATOM      8  C   UNL     1      -2.200  -0.609   4.987  0.00  0.00    +0.079 C 
ATOM      9  C   UNL     1      -3.078   0.523   5.529  0.00  0.00    +0.023 C 
ATOM     10  C   UNL     1      -2.761   0.758   7.006  0.00  0.00    +0.005 C 
ATOM     11  C   UNL     1      -3.049  -0.521   7.797  0.00  0.00    -0.014 C 
ATOM     12  C   UNL     1      -2.172  -1.621   7.267  0.00  0.00    +0.008 C 
ATOM     13  C   UNL     1      -2.745  -0.285   9.278  0.00  0.00    +0.007 C 
ENDROOT
BRANCH   1  15
ATOM     14  C   UNL     1      -1.395  -1.184   0.071  0.00  0.00    +0.084 A 
ATOM     15  C   UNL     1      -2.114  -0.770   1.186  0.00  0.00    +0.117 A 
ATOM     16  S   UNL     1      -3.699  -0.443   0.433  0.00  0.00    +0.041 S 
ATOM     17  N   UNL     1      -3.317  -0.834  -1.093  0.00  0.00    -0.110 NA
ATOM     18  N   UNL     1      -2.080  -1.181  -1.046  0.00  0.00    -0.145 NA
BRANCH  14  20
ATOM     19  C   UNL     1       0.942  -0.370  -0.081  0.00  0.00    +0.010 C 
ATOM     20  C   UNL     1       0.053  -1.596   0.139  0.00  0.00    +0.055 C 
ENDBRANCH  14  20
ENDBRANCH   1  15
TORSDOF 2
