REMARK  Name = ZINC60271349
REMARK  11 active torsions:
REMARK  status: ('A' for Active; 'I' for Inactive)
REMARK    1  A    between atoms: C_1  and  N_2
REMARK    2  A    between atoms: N_2  and  C_3
REMARK    3  A    between atoms: N_2  and  C_4
REMARK    4  A    between atoms: C_4  and  C_5
REMARK    5  A    between atoms: C_5  and  N_6
REMARK    6  A    between atoms: C_13  and  N_15
REMARK    7  A    between atoms: C_16  and  C_18
REMARK    8  A    between atoms: C_22  and  C_24
REMARK    9  A    between atoms: C_24  and  O_25
REMARK   10  A    between atoms: O_25  and  C_26
REMARK   11  A    between atoms: C_31  and  C_32
REMARK                            x       y       z     vdW  Elec       q    Type
REMARK                         _______ _______ _______ _____ _____    ______ ____
ROOT
ATOM      1  N   UNL     1      -8.273   1.207   0.743  0.00  0.00    -0.281 N 
ATOM      2  C   UNL     1      -8.374   2.321   1.495  0.00  0.00    +0.248 C 
ATOM      3  O   UNL     1      -7.399   3.023   1.676  0.00  0.00    -0.270 OA
ATOM      4  H   UNL     1      -9.065   0.689   0.534  0.00  0.00    +0.155 HD
ENDROOT
BRANCH   1  12
ATOM      5  N   UNL     1      -3.220  -0.307  -0.933  0.00  0.00    -0.348 N 
ATOM      6  C   UNL     1      -2.475   0.132   0.127  0.00  0.00    +0.087 A 
ATOM      7  C   UNL     1      -3.274   0.697   1.045  0.00  0.00    +0.027 A 
ATOM      8  C   UNL     1      -4.643   0.613   0.532  0.00  0.00    +0.002 A 
ATOM      9  C   UNL     1      -4.552  -0.023  -0.720  0.00  0.00    +0.049 A 
ATOM     10  C   UNL     1      -5.706  -0.242  -1.464  0.00  0.00    +0.028 A 
ATOM     11  C   UNL     1      -6.928   0.165  -0.977  0.00  0.00    +0.025 A 
ATOM     12  C   UNL     1      -7.022   0.799   0.261  0.00  0.00    +0.034 A 
ATOM     13  C   UNL     1      -5.887   1.018   1.020  0.00  0.00    +0.033 A 
BRANCH   5  14
ATOM     14  C   UNL     1      -2.682  -0.975  -2.121  0.00  0.00    +0.103 C 
BRANCH  14  15
ATOM     15  C   UNL     1      -2.440   0.060  -3.222  0.00  0.00    -0.058 C 
BRANCH  15  17
ATOM     16  C   UNL     1      -2.909  -1.528  -4.958  0.00  0.00    -0.097 C 
ATOM     17  N   UNL     1      -1.901  -0.609  -4.414  0.00  0.00    +0.377 N 
ATOM     18  C   UNL     1      -1.557   0.397  -5.427  0.00  0.00    -0.097 C 
ATOM     19  H   UNL     1      -1.073  -1.129  -4.162  0.00  0.00    -0.083 HD
ENDBRANCH  15  17
ENDBRANCH  14  15
ENDBRANCH   5  14
ENDBRANCH   1  12
BRANCH   2  20
ATOM     20  C   UNL     1      -9.672   2.688   2.099  0.00  0.00    +0.037 A 
ATOM     21  C   UNL     1     -10.793   1.881   1.898  0.00  0.00    +0.013 A 
ATOM     22  C   UNL     1     -12.001   2.229   2.466  0.00  0.00    +0.001 A 
ATOM     23  C   UNL     1     -12.103   3.377   3.233  0.00  0.00    +0.007 A 
ATOM     24  C   UNL     1     -10.996   4.181   3.436  0.00  0.00    -0.010 A 
ATOM     25  C   UNL     1      -9.780   3.841   2.879  0.00  0.00    +0.020 A 
BRANCH  24  26
ATOM     26  C   UNL     1     -11.117   5.429   4.272  0.00  0.00    +0.264 C 
BRANCH  26  27
ATOM     27  O   UNL     1     -10.842   5.115   5.639  0.00  0.00    -0.487 OA
BRANCH  27  28
ATOM     28  C   UNL     1     -10.909   6.135   6.531  0.00  0.00    +0.133 A 
ATOM     29  C   UNL     1     -11.237   7.413   6.104  0.00  0.00    +0.046 A 
ATOM     30  C   UNL     1     -11.304   8.450   7.013  0.00  0.00    +0.004 A 
ATOM     31  C   UNL     1     -11.044   8.225   8.355  0.00  0.00    +0.001 A 
ATOM     32  C   UNL     1     -10.717   6.961   8.796  0.00  0.00    +0.017 A 
ATOM     33  C   UNL     1     -10.651   5.901   7.888  0.00  0.00    +0.078 A 
BRANCH  33  34
ATOM     34  C   UNL     1     -10.306   4.545   8.355  0.00  0.00    +0.245 C 
ATOM     35  O   UNL     1     -10.245   3.626   7.561  0.00  0.00    -0.270 OA
ATOM     36  N   UNL     1     -10.060   4.324   9.662  0.00  0.00    -0.325 N 
ATOM     37  H   UNL     1     -10.108   5.057  10.295  0.00  0.00    +0.145 HD
ATOM     38  H   UNL     1      -9.833   3.432   9.968  0.00  0.00    +0.145 HD
ENDBRANCH  33  34
ENDBRANCH  27  28
ENDBRANCH  26  27
ENDBRANCH  24  26
ENDBRANCH   2  20
TORSDOF 9
