REMARK  Name = ZINC63663752
REMARK  6 active torsions:
REMARK  status: ('A' for Active; 'I' for Inactive)
REMARK    1  A    between atoms: C_3  and  N_11
REMARK    2  A    between atoms: C_6  and  C_7
REMARK    3  A    between atoms: N_11  and  C_12
REMARK    4  A    between atoms: C_12  and  N_14
REMARK    5  A    between atoms: N_14  and  C_15
REMARK    6  A    between atoms: C_15  and  C_16
REMARK                            x       y       z     vdW  Elec       q    Type
REMARK                         _______ _______ _______ _____ _____    ______ ____
ROOT
ATOM      1  N   UNL     1       5.911   2.159   0.160  0.00  0.00    -0.322 N 
ATOM      2  H   UNL     1       5.896   3.128   0.164  0.00  0.00    +0.148 HD
ENDROOT
BRANCH   1   3
ATOM      3  C   UNL     1       4.758   1.467   0.066  0.00  0.00    +0.135 C 
ATOM      4  S   UNL     1       4.785  -0.245   0.057  0.00  0.00    -0.019 S 
BRANCH   3   5
ATOM      5  N   UNL     1       3.584   2.123  -0.021  0.00  0.00    -0.297 N 
ATOM      6  H   UNL     1       3.573   3.090  -0.097  0.00  0.00    +0.154 HD
BRANCH   5   9
ATOM      7  C   UNL     1       1.024  -0.351   0.898  0.00  0.00    +0.014 A 
ATOM      8  C   UNL     1       2.214   0.351   0.881  0.00  0.00    +0.024 A 
ATOM      9  C   UNL     1       2.381   1.410  -0.002  0.00  0.00    +0.033 A 
ATOM     10  C   UNL     1       1.350   1.759  -0.865  0.00  0.00    +0.024 A 
ATOM     11  C   UNL     1       0.164   1.053  -0.843  0.00  0.00    +0.014 A 
ATOM     12  C   UNL     1       0.001  -0.001   0.037  0.00  0.00    +0.055 A 
BRANCH  12  13
ATOM     13  C   UNL     1      -1.295  -0.770   0.058  0.00  0.00    +0.417 C 
ATOM     14  F   UNL     1      -2.175  -0.177   0.971  0.00  0.00    -0.166 F 
ATOM     15  F   UNL     1      -1.868  -0.754  -1.218  0.00  0.00    -0.166 F 
ATOM     16  F   UNL     1      -1.047  -2.092   0.441  0.00  0.00    -0.166 F 
ENDBRANCH  12  13
ENDBRANCH   5   9
ENDBRANCH   3   5
ENDBRANCH   1   3
BRANCH   1  17
ATOM     17  C   UNL     1       7.187   1.446   0.254  0.00  0.00    +0.138 C 
BRANCH  17  18
ATOM     18  C   UNL     1       8.314   2.442   0.348  0.00  0.00    -0.030 A 
ATOM     19  C   UNL     1       8.915   2.905  -0.831  0.00  0.00    +0.007 A 
ATOM     20  C   UNL     1       9.930   3.795  -0.829  0.00  0.00    +0.026 A 
ATOM     21  C   UNL     1      10.438   4.305   0.396  0.00  0.00    +0.043 A 
ATOM     22  N   UNL     1      11.387   5.178   0.651  0.00  0.00    -0.378 N 
ATOM     23  C   UNL     1      11.551   5.273   2.099  0.00  0.00    +0.106 C 
ATOM     24  C   UNL     1      11.382   6.707   2.609  0.00  0.00    +0.029 C 
ATOM     25  C   UNL     1      11.283   6.671   4.138  0.00  0.00    +0.003 C 
ATOM     26  C   UNL     1      10.018   5.944   4.591  0.00  0.00    +0.004 C 
ATOM     27  C   UNL     1      10.078   4.468   4.159  0.00  0.00    +0.033 C 
ATOM     28  C   UNL     1      10.424   4.442   2.688  0.00  0.00    -0.038 C 
ATOM     29  C   UNL     1       9.815   3.837   1.659  0.00  0.00    -0.001 A 
ATOM     30  C   UNL     1       8.714   2.870   1.566  0.00  0.00    +0.015 A 
ATOM     31  H   UNL     1      11.892   5.676  -0.010  0.00  0.00    +0.160 HD
ENDBRANCH  17  18
ENDBRANCH   1  17
TORSDOF 6
