REMARK  Name = ZINC62012446
REMARK  8 active torsions:
REMARK  status: ('A' for Active; 'I' for Inactive)
REMARK    1  A    between atoms: C_1  and  C_2
REMARK    2  A    between atoms: C_2  and  C_4
REMARK    3  A    between atoms: C_2  and  N_11
REMARK    4  A    between atoms: N_11  and  C_12
REMARK    5  A    between atoms: N_11  and  C_13
REMARK    6  A    between atoms: C_13  and  C_15
REMARK    7  A    between atoms: C_13  and  C_17
REMARK    8  A    between atoms: C_15  and  N_16
REMARK                            x       y       z     vdW  Elec       q    Type
REMARK                         _______ _______ _______ _____ _____    ______ ____
ROOT
ATOM      1  C   UNL     1       0.145  -0.713  -2.562  0.00  0.00    +0.070 C 
ENDROOT
BRANCH   1   2
ATOM      2  C   UNL     1       0.309  -2.023  -3.289  0.00  0.00    -0.032 A 
ATOM      3  C   UNL     1       1.465  -2.763  -3.128  0.00  0.00    +0.006 A 
ATOM      4  C   UNL     1       1.616  -3.964  -3.795  0.00  0.00    +0.015 A 
ATOM      5  C   UNL     1       0.610  -4.425  -4.625  0.00  0.00    +0.018 A 
ATOM      6  C   UNL     1      -0.547  -3.684  -4.786  0.00  0.00    +0.015 A 
ATOM      7  C   UNL     1      -0.699  -2.486  -4.114  0.00  0.00    +0.006 A 
ATOM      8 BR   UNL     1       0.815  -6.068  -5.538  0.00  0.00    -0.050 Br
ENDBRANCH   1   2
BRANCH   1   9
ATOM      9  N   UNL     1       1.052  -0.678  -1.406  0.00  0.00    -0.294 NA
ATOM     10  C   UNL     1       2.387  -0.210  -1.800  0.00  0.00    +0.106 C 
BRANCH   9  12
ATOM     11  C   UNL     1       1.533   0.288   0.792  0.00  0.00    +0.029 C 
ATOM     12  C   UNL     1       0.499   0.152  -0.328  0.00  0.00    +0.085 C 
BRANCH  12  13
ATOM     13  C   UNL     1      -0.749  -0.495   0.215  0.00  0.00    -0.012 A 
ATOM     14  C   UNL     1      -0.939  -1.857   0.074  0.00  0.00    +0.006 A 
ATOM     15  C   UNL     1      -2.083  -2.451   0.572  0.00  0.00    +0.000 A 
ATOM     16  C   UNL     1      -3.038  -1.684   1.213  0.00  0.00    +0.001 A 
ATOM     17  C   UNL     1      -2.849  -0.322   1.355  0.00  0.00    +0.020 A 
ATOM     18  C   UNL     1      -1.701   0.272   0.861  0.00  0.00    +0.046 A 
ATOM     19 CL   UNL     1      -1.460   1.981   1.046  0.00  0.00    -0.083 Cl
ENDBRANCH  12  13
ENDBRANCH   9  12
ENDBRANCH   1   9
BRANCH   1  20
ATOM     20  C   UNL     1       0.479   0.442  -3.508  0.00  0.00    -0.063 C 
BRANCH  20  21
ATOM     21  N   UNL     1       0.373   1.715  -2.783  0.00  0.00    +0.379 N 
ATOM     22  H   UNL     1       1.090   1.759  -2.074  0.00  0.00    -0.090 HD
ATOM     23  H   UNL     1       0.491   2.481  -3.429  0.00  0.00    -0.090 HD
ATOM     24  H   UNL     1      -0.535   1.779  -2.347  0.00  0.00    -0.090 HD
ENDBRANCH  20  21
ENDBRANCH   1  20
TORSDOF 6
