REMARK  Name = ZINC36798995
REMARK  7 active torsions:
REMARK  status: ('A' for Active; 'I' for Inactive)
REMARK    1  A    between atoms: C_1  and  C_2
REMARK    2  A    between atoms: C_4  and  O_5
REMARK    3  A    between atoms: C_14  and  C_16
REMARK    4  A    between atoms: C_16  and  S_17
REMARK    5  A    between atoms: S_17  and  C_18
REMARK    6  A    between atoms: C_21  and  C_27
REMARK    7  A    between atoms: C_23  and  N_24
REMARK                            x       y       z     vdW  Elec       q    Type
REMARK                         _______ _______ _______ _____ _____    ______ ____
ROOT
ATOM      1  C   UNL     1       0.308   1.444  -0.040  0.00  0.00    +0.045 C 
ATOM      2  C   UNL     1      -0.134   0.004   0.011  0.00  0.00    -0.033 A 
ATOM      3  C   UNL     1      -0.600  -0.632  -1.122  0.00  0.00    +0.091 A 
ATOM      4  C   UNL     1      -1.002  -1.958  -1.056  0.00  0.00    +0.285 A 
ATOM      5  O   UNL     1      -0.949  -2.646   0.091  0.00  0.00    -0.425 OA
ATOM      6  C   UNL     1      -0.501  -2.073   1.227  0.00  0.00    +0.141 A 
ATOM      7  C   UNL     1      -0.073  -0.726   1.217  0.00  0.00    +0.021 A 
ATOM      8  C   UNL     1       0.399  -0.128   2.398  0.00  0.00    +0.013 A 
ATOM      9  C   UNL     1       0.449  -0.847   3.550  0.00  0.00    +0.024 A 
ATOM     10  C   UNL     1       0.031  -2.190   3.568  0.00  0.00    +0.037 A 
ATOM     11  C   UNL     1      -0.451  -2.795   2.406  0.00  0.00    +0.070 A 
ATOM     12  N   UNL     1       0.086  -2.900   4.729  0.00  0.00    -0.285 N 
ATOM     13  C   UNL     1       0.004  -4.216   4.701  0.00  0.00    +0.227 C 
ATOM     14  O   UNL     1       0.002  -4.804   3.633  0.00  0.00    -0.275 OA
ATOM     15  H   UNL     1       0.185  -2.438   5.576  0.00  0.00    +0.155 HD
ENDROOT
BRANCH   4  16
ATOM     16  O   UNL     1      -1.456  -2.567  -2.168  0.00  0.00    -0.480 OA
ATOM     17  H   UNL     1      -1.714  -3.489  -2.035  0.00  0.00    +0.295 HD
ENDBRANCH   4  16
BRANCH  13  18
ATOM     18  C   UNL     1      -0.086  -4.993   5.989  0.00  0.00    +0.170 C 
BRANCH  18  19
ATOM     19  S   UNL     1      -0.185  -6.766   5.620  0.00  0.00    -0.114 S 
BRANCH  19  20
ATOM     20  C   UNL     1      -0.285  -7.527   7.206  0.00  0.00    +0.039 A 
ATOM     21  C   UNL     1      -0.279  -6.740   8.356  0.00  0.00    +0.018 A 
ATOM     22  C   UNL     1      -0.356  -7.324   9.588  0.00  0.00    +0.014 A 
ATOM     23  C   UNL     1      -0.441  -8.716   9.699  0.00  0.00    +0.039 A 
ATOM     24  C   UNL     1      -0.447  -9.508   8.547  0.00  0.00    +0.047 A 
ATOM     25  C   UNL     1      -0.375  -8.913   7.308  0.00  0.00    +0.140 A 
BRANCH  23  26
ATOM     26  C   UNL     1      -0.523  -9.347  11.030  0.00  0.00    +0.242 C 
ATOM     27  O   UNL     1      -0.596 -10.556  11.125  0.00  0.00    -0.270 OA
ATOM     28  N   UNL     1      -0.516  -8.582  12.139  0.00  0.00    -0.325 N 
ATOM     29  H   UNL     1      -0.458  -7.617  12.063  0.00  0.00    +0.145 HD
ATOM     30  H   UNL     1      -0.570  -8.997  13.015  0.00  0.00    +0.145 HD
ENDBRANCH  23  26
BRANCH  25  31
ATOM     31  N   UNL     1      -0.387  -9.746   6.084  0.00  0.00    +0.058 N 
ATOM     32  O   UNL     1      -0.466 -10.950   6.173  0.00  0.00    -0.126 OA
ATOM     33  O   UNL     1      -0.319  -9.224   4.996  0.00  0.00    -0.126 OA
ENDBRANCH  25  31
ENDBRANCH  19  20
ENDBRANCH  18  19
ENDBRANCH  13  18
TORSDOF 6
