REMARK  Name = ZINC52502421
REMARK  11 active torsions:
REMARK  status: ('A' for Active; 'I' for Inactive)
REMARK    1  A    between atoms: C_1  and  C_2
REMARK    2  A    between atoms: C_7  and  C_9
REMARK    3  A    between atoms: C_7  and  N_27
REMARK    4  A    between atoms: C_9  and  N_10
REMARK    5  A    between atoms: N_13  and  C_14
REMARK    6  A    between atoms: C_14  and  C_16
REMARK    7  A    between atoms: C_14  and  C_17
REMARK    8  A    between atoms: C_21  and  S_23
REMARK    9  A    between atoms: S_23  and  N_26
REMARK   10  A    between atoms: N_27  and  C_28
REMARK   11  A    between atoms: N_27  and  C_29
REMARK                            x       y       z     vdW  Elec       q    Type
REMARK                         _______ _______ _______ _____ _____    ______ ____
ROOT
ATOM      1  N   UNL     1       1.172  -3.642   1.825  0.00  0.00    -0.301 N 
ATOM      2  C   UNL     1       1.456  -4.336   2.945  0.00  0.00    +0.300 C 
ATOM      3  O   UNL     1       1.777  -3.747   3.959  0.00  0.00    -0.253 OA
ATOM      4  N   UNL     1       1.382  -5.681   2.942  0.00  0.00    -0.293 N 
ATOM      5  H   UNL     1       0.916  -4.112   1.016  0.00  0.00    +0.150 HD
ATOM      6  H   UNL     1       1.126  -6.151   2.133  0.00  0.00    +0.151 HD
ENDROOT
BRANCH   4   7
ATOM      7  C   UNL     1       1.690  -6.435   4.160  0.00  0.00    +0.102 C 
ATOM      8  C   UNL     1       0.441  -6.516   5.039  0.00  0.00    +0.033 C 
BRANCH   7   9
ATOM      9  C   UNL     1       2.135  -7.826   3.791  0.00  0.00    -0.026 A 
ATOM     10  C   UNL     1       1.505  -8.504   2.764  0.00  0.00    +0.005 A 
ATOM     11  C   UNL     1       1.913  -9.780   2.425  0.00  0.00    +0.002 A 
ATOM     12  C   UNL     1       2.953 -10.379   3.113  0.00  0.00    +0.028 A 
ATOM     13  C   UNL     1       3.583  -9.701   4.139  0.00  0.00    +0.105 A 
ATOM     14  C   UNL     1       3.178  -8.423   4.475  0.00  0.00    +0.034 A 
BRANCH  13  15
ATOM     15  S   UNL     1       4.907 -10.464   5.016  0.00  0.00    +0.056 S 
ATOM     16  O   UNL     1       4.968  -9.834   6.288  0.00  0.00    -0.153 OA
ATOM     17  O   UNL     1       4.736 -11.867   4.869  0.00  0.00    -0.153 OA
BRANCH  15  18
ATOM     18  N   UNL     1       6.308 -10.073   4.226  0.00  0.00    -0.204 NA
ATOM     19  H   UNL     1       7.140  -9.998   4.720  0.00  0.00    +0.144 HD
ATOM     20  H   UNL     1       6.298  -9.918   3.268  0.00  0.00    +0.144 HD
ENDBRANCH  15  18
ENDBRANCH  13  15
ENDBRANCH   7   9
ENDBRANCH   4   7
BRANCH   1  21
ATOM     21  C   UNL     1       1.252  -2.180   1.828  0.00  0.00    +0.094 C 
BRANCH  21  27
ATOM     22  C   UNL     1       0.741   1.929  -0.969  0.00  0.00    +0.007 C 
ATOM     23  C   UNL     1       0.793   0.400  -0.993  0.00  0.00    -0.015 C 
ATOM     24  C   UNL     1      -0.520  -0.147  -1.556  0.00  0.00    +0.003 C 
ATOM     25  C   UNL     1      -0.467  -1.675  -1.580  0.00  0.00    -0.001 C 
ATOM     26  C   UNL     1      -0.264  -2.201  -0.158  0.00  0.00    -0.010 C 
ATOM     27  C   UNL     1       1.049  -1.654   0.406  0.00  0.00    -0.050 C 
ATOM     28  C   UNL     1       0.996  -0.125   0.430  0.00  0.00    -0.007 C 
BRANCH  27  29
ATOM     29  N   UNL     1       2.166  -2.092  -0.442  0.00  0.00    +0.381 N 
ATOM     30  C   UNL     1       3.437  -1.693   0.177  0.00  0.00    -0.096 C 
ATOM     31  C   UNL     1       2.128  -3.554  -0.584  0.00  0.00    -0.096 C 
ATOM     32  H   UNL     1       2.085  -1.664  -1.352  0.00  0.00    -0.082 HD
ENDBRANCH  27  29
ENDBRANCH  21  27
ENDBRANCH   1  21
TORSDOF 7
