REMARK  Name = ZINC06052309
REMARK  13 active torsions:
REMARK  status: ('A' for Active; 'I' for Inactive)
REMARK    1  A    between atoms: C_1  and  C_2
REMARK    2  A    between atoms: C_4  and  O_12
REMARK    3  A    between atoms: C_5  and  C_9
REMARK    4  A    between atoms: C_9  and  C_10
REMARK    5  A    between atoms: C_9  and  C_11
REMARK    6  A    between atoms: O_12  and  C_13
REMARK    7  A    between atoms: C_13  and  C_14
REMARK    8  A    between atoms: C_14  and  C_16
REMARK    9  A    between atoms: C_14  and  O_28
REMARK   10  A    between atoms: C_16  and  N_58
REMARK   11  A    between atoms: C_17  and  N_58
REMARK   12  A    between atoms: C_22  and  C_27
REMARK   13  A    between atoms: C_24  and  C_26
REMARK                            x       y       z     vdW  Elec       q    Type
REMARK                         _______ _______ _______ _____ _____    ______ ____
ROOT
ATOM      1  C   UNL     1       3.734  -0.868  -0.037  0.00  0.00    +0.135 C 
ENDROOT
BRANCH   1   2
ATOM      2  O   UNL     1       4.375  -0.508  -1.262  0.00  0.00    -0.390 OA
ATOM      3  H   UNL     1       3.928  -0.840  -2.053  0.00  0.00    +0.210 HD
ENDBRANCH   1   2
BRANCH   1   4
ATOM      4  C   UNL     1       2.312  -0.304  -0.021  0.00  0.00    +0.258 C 
BRANCH   4   5
ATOM      5  O   UNL     1       2.366   1.124  -0.014  0.00  0.00    -0.489 OA
BRANCH   5   9
ATOM      6  C   UNL     1      -2.513   0.980   0.019  0.00  0.00    +0.045 C 
ATOM      7  C   UNL     1      -1.218   1.751   0.017  0.00  0.00    -0.029 A 
ATOM      8  C   UNL     1      -0.013   1.076   0.008  0.00  0.00    +0.050 A 
ATOM      9  C   UNL     1       1.179   1.786   0.000  0.00  0.00    +0.124 A 
ATOM     10  C   UNL     1       1.157   3.173   0.008  0.00  0.00    -0.002 A 
ATOM     11  C   UNL     1      -0.050   3.844   0.023  0.00  0.00    +0.027 A 
ATOM     12  C   UNL     1      -1.237   3.134   0.030  0.00  0.00    +0.044 A 
ATOM     13 CL   UNL     1      -2.753   3.980   0.049  0.00  0.00    -0.083 Cl
BRANCH  10  14
ATOM     14  C   UNL     1       2.450   3.947   0.000  0.00  0.00    +0.016 C 
ATOM     15  C   UNL     1       2.506   4.835  -1.245  0.00  0.00    +0.012 C 
ATOM     16  C   UNL     1       2.529   4.821   1.254  0.00  0.00    +0.012 C 
ENDBRANCH  10  14
ENDBRANCH   5   9
ENDBRANCH   4   5
ENDBRANCH   1   4
BRANCH   1  17
ATOM     17  C   UNL     1       3.680  -2.393   0.082  0.00  0.00    -0.047 C 
BRANCH  17  18
ATOM     18  N   UNL     1       5.054  -2.918   0.186  0.00  0.00    +0.383 N 
ATOM     19  H   UNL     1       5.506  -2.520   1.017  0.00  0.00    -0.085 HD
ATOM     20  H   UNL     1       5.583  -2.653  -0.652  0.00  0.00    -0.085 HD
BRANCH  18  21
ATOM     21  C   UNL     1       5.032  -4.389   0.302  0.00  0.00    -0.069 C 
ATOM     22  C   UNL     1       4.967  -5.010  -1.095  0.00  0.00    -0.015 C 
ATOM     23  C   UNL     1       4.954  -6.535  -0.974  0.00  0.00    -0.001 C 
ATOM     24  C   UNL     1       6.227  -7.003  -0.267  0.00  0.00    +0.003 C 
ATOM     25  C   UNL     1       6.292  -6.381   1.130  0.00  0.00    -0.013 C 
ATOM     26  C   UNL     1       6.305  -4.856   1.010  0.00  0.00    -0.025 C 
ATOM     27  C   UNL     1       6.370  -4.235   2.406  0.00  0.00    +0.006 C 
ATOM     28  C   UNL     1       5.069  -6.818   1.940  0.00  0.00    +0.008 C 
ENDBRANCH  18  21
ENDBRANCH  17  18
ENDBRANCH   1  17
TORSDOF 8
