REMARK  Name = ZINC39946374
REMARK  6 active torsions:
REMARK  status: ('A' for Active; 'I' for Inactive)
REMARK    1  A    between atoms: C_1  and  C_2
REMARK    2  A    between atoms: C_3  and  C_30
REMARK    3  A    between atoms: C_7  and  S_11
REMARK    4  A    between atoms: S_11  and  C_12
REMARK    5  A    between atoms: C_12  and  C_13
REMARK    6  A    between atoms: C_21  and  C_29
REMARK                            x       y       z     vdW  Elec       q    Type
REMARK                         _______ _______ _______ _____ _____    ______ ____
ROOT
ATOM      1  C   UNL     1       0.458   3.012   5.136  0.00  0.00    +0.134 C 
ATOM      2  N   UNL     1       0.350   3.932   4.207  0.00  0.00    -0.160 NA
ATOM      3  C   UNL     1       0.361   5.241   4.481  0.00  0.00    +0.271 C 
ATOM      4  O   UNL     1       0.254   6.070   3.593  0.00  0.00    -0.268 OA
ATOM      5  C   UNL     1       0.508   5.656   5.912  0.00  0.00    +0.071 C 
ATOM      6  C   UNL     1       0.608   6.904   6.406  0.00  0.00    -0.042 C 
ATOM      7  C   UNL     1       0.756   8.152   5.540  0.00  0.00    +0.033 C 
ATOM      8  C   UNL     1       2.020   8.877   6.023  0.00  0.00    +0.008 C 
ATOM      9  C   UNL     1       1.953   9.108   7.531  0.00  0.00    -0.012 C 
ATOM     10  C   UNL     1       1.927   7.776   8.286  0.00  0.00    +0.022 C 
ATOM     11  C   UNL     1       0.637   7.035   7.925  0.00  0.00    +0.080 C 
ATOM     12  S   UNL     1       0.750   5.285   8.456  0.00  0.00    -0.097 S 
ATOM     13  C   UNL     1       0.610   4.525   6.858  0.00  0.00    +0.111 C 
ATOM     14  N   UNL     1       0.578   3.287   6.425  0.00  0.00    -0.227 NA
ATOM     15  C   UNL     1       3.178   9.912   7.972  0.00  0.00    +0.007 C 
ENDROOT
BRANCH   1  16
ATOM     16  C   UNL     1       0.436   1.565   4.713  0.00  0.00    +0.149 C 
BRANCH  16  17
ATOM     17  S   UNL     1       0.264   1.464   2.910  0.00  0.00    -0.098 S 
BRANCH  17  24
ATOM     18  C   UNL     1      -0.018   1.503   0.010  0.00  0.00    +0.045 C 
ATOM     19  C   UNL     1       0.002  -0.004   0.002  0.00  0.00    -0.029 A 
ATOM     20  C   UNL     1      -0.095  -0.678  -1.154  0.00  0.00    -0.008 A 
ATOM     21  S   UNL     1      -0.024  -2.386  -0.648  0.00  0.00    -0.074 S 
ATOM     22  C   UNL     1       0.134  -2.149   1.102  0.00  0.00    +0.113 A 
ATOM     23  C   UNL     1       0.133  -0.744   1.245  0.00  0.00    +0.043 A 
ATOM     24  C   UNL     1       0.256  -0.266   2.579  0.00  0.00    +0.109 A 
ATOM     25  N   UNL     1       0.363  -1.139   3.570  0.00  0.00    -0.229 NA
ATOM     26  C   UNL     1       0.362  -2.443   3.361  0.00  0.00    +0.223 A 
ATOM     27  N   UNL     1       0.241  -2.946   2.147  0.00  0.00    -0.228 NA
ATOM     28  C   UNL     1      -0.232  -0.123  -2.548  0.00  0.00    +0.052 C 
ENDBRANCH  17  24
ENDBRANCH  16  17
ENDBRANCH   1  16
TORSDOF 3
