REMARK  Name = ZINC37934098
REMARK  7 active torsions:
REMARK  status: ('A' for Active; 'I' for Inactive)
REMARK    1  A    between atoms: C_1  and  S_2
REMARK    2  A    between atoms: S_2  and  C_3
REMARK    3  A    between atoms: C_6  and  N_9
REMARK    4  A    between atoms: N_9  and  C_10
REMARK    5  A    between atoms: C_12  and  N_20
REMARK    6  A    between atoms: C_14  and  S_16
REMARK    7  A    between atoms: S_16  and  N_19
REMARK                            x       y       z     vdW  Elec       q    Type
REMARK                         _______ _______ _______ _____ _____    ______ ____
ROOT
ATOM      1  C   UNL     1       3.114  -2.751   5.362  0.00  0.00    +0.035 A 
ATOM      2  C   UNL     1       2.674  -3.790   4.554  0.00  0.00    +0.046 A 
ATOM      3  C   UNL     1       2.842  -5.104   4.967  0.00  0.00    +0.028 A 
ATOM      4  C   UNL     1       3.449  -5.376   6.187  0.00  0.00    +0.051 A 
ATOM      5  C   UNL     1       3.885  -4.339   6.989  0.00  0.00    +0.108 A 
ATOM      6  C   UNL     1       3.725  -3.030   6.579  0.00  0.00    +0.052 A 
ENDROOT
BRANCH   5   7
ATOM      7  S   UNL     1       4.654  -4.688   8.536  0.00  0.00    +0.056 S 
ATOM      8  O   UNL     1       4.480  -3.533   9.345  0.00  0.00    -0.153 OA
ATOM      9  O   UNL     1       4.199  -5.973   8.935  0.00  0.00    -0.153 OA
BRANCH   7  10
ATOM     10  N   UNL     1       6.280  -4.828   8.254  0.00  0.00    -0.204 NA
ATOM     11  H   UNL     1       6.628  -4.717   7.355  0.00  0.00    +0.144 HD
ATOM     12  H   UNL     1       6.885  -5.021   8.988  0.00  0.00    +0.144 HD
ENDBRANCH   7  10
ENDBRANCH   5   7
BRANCH   3  13
ATOM     13  N   UNL     1       2.401  -6.153   4.157  0.00  0.00    -0.358 N 
ATOM     14  H   UNL     1       1.978  -5.963   3.305  0.00  0.00    +0.142 HD
ATOM     15  H   UNL     1       2.519  -7.072   4.446  0.00  0.00    +0.142 HD
ENDBRANCH   3  13
BRANCH   1  16
ATOM     16  N   UNL     1       2.947  -1.427   4.951  0.00  0.00    -0.314 N 
ATOM     17  H   UNL     1       3.600  -0.755   5.202  0.00  0.00    +0.152 HD
BRANCH  16  21
ATOM     18  C   UNL     1      -0.360  -0.361   2.646  0.00  0.00    +0.008 A 
ATOM     19  C   UNL     1       0.804   0.395   2.582  0.00  0.00    +0.016 A 
ATOM     20  C   UNL     1       1.899   0.042   3.345  0.00  0.00    +0.024 A 
ATOM     21  C   UNL     1       1.836  -1.069   4.177  0.00  0.00    +0.031 A 
ATOM     22  C   UNL     1       0.672  -1.824   4.241  0.00  0.00    +0.024 A 
ATOM     23  C   UNL     1      -0.425  -1.468   3.483  0.00  0.00    +0.016 A 
BRANCH  18  25
ATOM     24  C   UNL     1      -1.206   1.562   0.767  0.00  0.00    +0.090 C 
ATOM     25  S   UNL     1      -1.758   0.089   1.672  0.00  0.00    -0.129 S 
ENDBRANCH  18  25
ENDBRANCH  16  21
ENDBRANCH   1  16
TORSDOF 6
