REMARK  Name = ZINC16611185
REMARK  9 active torsions:
REMARK  status: ('A' for Active; 'I' for Inactive)
REMARK    1  A    between atoms: C_1  and  C_2
REMARK    2  A    between atoms: C_2  and  C_3
REMARK    3  A    between atoms: C_3  and  C_5
REMARK    4  A    between atoms: C_3  and  C_6
REMARK    5  A    between atoms: C_13  and  C_15
REMARK    6  A    between atoms: C_19  and  N_21
REMARK    7  A    between atoms: N_21  and  C_22
REMARK    8  A    between atoms: C_22  and  N_24
REMARK    9  A    between atoms: C_25  and  C_27
REMARK                            x       y       z     vdW  Elec       q    Type
REMARK                         _______ _______ _______ _____ _____    ______ ____
ROOT
ATOM      1  C   UNL     1       2.243   6.622  -0.238  0.00  0.00    +0.039 A 
ATOM      2  C   UNL     1       1.517   7.779   0.051  0.00  0.00    +0.013 A 
ATOM      3  C   UNL     1       2.179   8.960   0.315  0.00  0.00    +0.003 A 
ATOM      4  C   UNL     1       3.560   9.004   0.295  0.00  0.00    +0.023 A 
ATOM      5  C   UNL     1       4.292   7.857   0.009  0.00  0.00    +0.033 A 
ATOM      6  C   UNL     1       3.637   6.664  -0.253  0.00  0.00    +0.036 A 
ENDROOT
BRANCH   1  14
ATOM      7  C   UNL     1      -1.208   1.862  -1.291  0.00  0.00    -0.042 A 
ATOM      8  C   UNL     1       0.007   1.216  -1.465  0.00  0.00    +0.007 A 
ATOM      9  C   UNL     1       1.193   1.907  -1.328  0.00  0.00    +0.049 A 
ATOM     10  C   UNL     1       1.174   3.256  -1.009  0.00  0.00    +0.156 A 
ATOM     11  C   UNL     1      -0.054   3.913  -0.827  0.00  0.00    +0.110 A 
ATOM     12  C   UNL     1      -1.247   3.200  -0.968  0.00  0.00    +0.035 A 
ATOM     13  N   UNL     1       0.236   5.205  -0.528  0.00  0.00    -0.209 NA
ATOM     14  C   UNL     1       1.536   5.354  -0.522  0.00  0.00    +0.228 A 
ATOM     15  O   UNL     1       2.136   4.184  -0.811  0.00  0.00    -0.435 OA
BRANCH   7  16
ATOM     16  C   UNL     1      -2.494   1.093  -1.450  0.00  0.00    +0.016 C 
ATOM     17  C   UNL     1      -2.575   0.522  -2.867  0.00  0.00    +0.012 C 
BRANCH  16  19
ATOM     18  C   UNL     1      -3.889  -0.756  -0.512  0.00  0.00    +0.004 C 
ATOM     19  C   UNL     1      -2.533  -0.052  -0.436  0.00  0.00    +0.004 C 
ENDBRANCH  16  19
ENDBRANCH   7  16
ENDBRANCH   1  14
BRANCH   5  20
ATOM     20  N   UNL     1       5.690   7.906  -0.010  0.00  0.00    -0.297 N 
ATOM     21  H   UNL     1       6.167   8.405   0.672  0.00  0.00    +0.154 HD
BRANCH  20  22
ATOM     22  C   UNL     1       6.374   7.261  -0.975  0.00  0.00    +0.141 C 
ATOM     23  S   UNL     1       5.533   6.501  -2.258  0.00  0.00    -0.018 S 
BRANCH  22  24
ATOM     24  N   UNL     1       7.720   7.214  -0.930  0.00  0.00    -0.264 N 
ATOM     25  C   UNL     1       8.405   6.569  -1.896  0.00  0.00    +0.250 C 
ATOM     26  O   UNL     1       7.808   6.029  -2.806  0.00  0.00    -0.270 OA
ATOM     27  H   UNL     1       8.197   7.645  -0.203  0.00  0.00    +0.157 HD
BRANCH  25  28
ATOM     28  C   UNL     1       9.881   6.518  -1.847  0.00  0.00    +0.038 A 
ATOM     29  C   UNL     1      10.570   7.142  -0.805  0.00  0.00    +0.013 A 
ATOM     30  C   UNL     1      11.947   7.086  -0.762  0.00  0.00    +0.002 A 
ATOM     31  C   UNL     1      12.648   6.423  -1.754  0.00  0.00    +0.015 A 
ATOM     32  C   UNL     1      11.971   5.806  -2.793  0.00  0.00    +0.019 A 
ATOM     33  C   UNL     1      10.592   5.851  -2.845  0.00  0.00    +0.028 A 
ATOM     34 BR   UNL     1      12.938   4.904  -4.144  0.00  0.00    -0.050 Br
ENDBRANCH  25  28
ENDBRANCH  22  24
ENDBRANCH  20  22
ENDBRANCH   5  20
TORSDOF 7
