REMARK  Name = ZINC30910961
REMARK  9 active torsions:
REMARK  status: ('A' for Active; 'I' for Inactive)
REMARK    1  A    between atoms: C_4  and  C_8
REMARK    2  A    between atoms: C_8  and  C_10
REMARK    3  A    between atoms: C_8  and  N_24
REMARK    4  A    between atoms: C_10  and  N_11
REMARK    5  A    between atoms: N_11  and  C_12
REMARK    6  A    between atoms: C_12  and  C_13
REMARK    7  A    between atoms: C_16  and  O_19
REMARK    8  A    between atoms: O_19  and  C_20
REMARK    9  A    between atoms: C_20  and  C_21
REMARK                            x       y       z     vdW  Elec       q    Type
REMARK                         _______ _______ _______ _____ _____    ______ ____
ROOT
ATOM      1  C   UNL     1       3.934   2.758   1.372  0.00  0.00    +0.070 C 
ENDROOT
BRANCH   1   2
ATOM      2  N   UNL     1       5.131   3.609   1.336  0.00  0.00    -0.313 NA
ATOM      3  H   UNL     1       5.997   3.009   1.019  0.00  0.00    +0.122 HD
BRANCH   2   4
ATOM      4  C   UNL     1       5.412   4.179   2.660  0.00  0.00    +0.116 C 
BRANCH   4   5
ATOM      5  C   UNL     1       6.645   5.043   2.583  0.00  0.00    -0.033 A 
ATOM      6  C   UNL     1       7.891   4.491   2.817  0.00  0.00    +0.008 A 
ATOM      7  C   UNL     1       9.022   5.280   2.742  0.00  0.00    +0.046 A 
ATOM      8  C   UNL     1       8.907   6.629   2.443  0.00  0.00    +0.121 A 
ATOM      9  C   UNL     1       7.655   7.182   2.214  0.00  0.00    +0.046 A 
ATOM     10  C   UNL     1       6.527   6.388   2.285  0.00  0.00    +0.008 A 
BRANCH   8  11
ATOM     11  O   UNL     1      10.018   7.409   2.373  0.00  0.00    -0.483 OA
BRANCH  11  12
ATOM     12  C   UNL     1      11.273   6.772   2.620  0.00  0.00    +0.324 C 
BRANCH  12  13
ATOM     13  C   UNL     1      12.382   7.785   2.501  0.00  0.00    +0.248 C 
ATOM     14  O   UNL     1      12.123   8.939   2.230  0.00  0.00    -0.272 OA
ATOM     15  N   UNL     1      13.662   7.409   2.694  0.00  0.00    -0.327 N 
ATOM     16  H   UNL     1      14.472   8.149   2.607  0.00  0.00    +0.145 HD
ATOM     17  H   UNL     1      13.897   6.363   2.939  0.00  0.00    +0.145 HD
ENDBRANCH  12  13
ENDBRANCH  11  12
ENDBRANCH   8  11
ENDBRANCH   4   5
ENDBRANCH   2   4
ENDBRANCH   1   2
BRANCH   1  18
ATOM     18  C   UNL     1       3.674   2.184  -0.022  0.00  0.00    -0.019 C 
BRANCH  18  22
ATOM     19  C   UNL     1       0.002  -0.004   0.002  0.00  0.00    +0.004 A 
ATOM     20  C   UNL     1       1.208  -0.680  -0.013  0.00  0.00    +0.038 A 
ATOM     21  C   UNL     1       2.398   0.028  -0.021  0.00  0.00    +0.126 A 
ATOM     22  C   UNL     1       2.379   1.413  -0.014  0.00  0.00    -0.006 A 
ATOM     23  C   UNL     1       1.172   2.087   0.002  0.00  0.00    +0.045 A 
ATOM     24  C   UNL     1      -0.017   1.378   0.010  0.00  0.00    +0.020 A 
ATOM     25 CL   UNL     1       1.147   3.823   0.011  0.00  0.00    -0.083 Cl
ATOM     26  F   UNL     1       3.577  -0.632  -0.037  0.00  0.00    -0.205 F 
ENDBRANCH  18  22
BRANCH  18  27
ATOM     27  N   UNL     1       3.583   3.281  -0.995  0.00  0.00    +0.385 N 
ATOM     28  C   UNL     1       4.822   4.100  -0.989  0.00  0.00    -0.078 C 
ATOM     29  C   UNL     1       4.778   4.819  -2.361  0.00  0.00    -0.020 C 
ATOM     30  C   UNL     1       4.195   3.737  -3.299  0.00  0.00    -0.020 C 
ATOM     31  C   UNL     1       3.451   2.759  -2.372  0.00  0.00    -0.078 C 
ATOM     32  H   UNL     1       2.702   3.870  -0.700  0.00  0.00    -0.081 HD
ENDBRANCH  18  27
ENDBRANCH   1  18
TORSDOF 9
