REMARK  Name = ZINC36026911
REMARK  9 active torsions:
REMARK  status: ('A' for Active; 'I' for Inactive)
REMARK    1  A    between atoms: C_1  and  C_2
REMARK    2  A    between atoms: C_2  and  C_3
REMARK    3  A    between atoms: C_3  and  C_5
REMARK    4  A    between atoms: C_3  and  C_6
REMARK    5  A    between atoms: C_6  and  N_7
REMARK    6  A    between atoms: C_10  and  C_29
REMARK    7  A    between atoms: N_16  and  C_19
REMARK    8  A    between atoms: C_19  and  N_21
REMARK    9  A    between atoms: N_21  and  C_22
REMARK                            x       y       z     vdW  Elec       q    Type
REMARK                         _______ _______ _______ _____ _____    ______ ____
ROOT
ATOM      1  N   UNL     1       1.977  -2.394   2.196  0.00  0.00    -0.313 N 
ATOM      2  C   UNL     1       3.308  -2.583   2.319  0.00  0.00    +0.200 C 
ATOM      3  O   UNL     1       4.149  -2.246   1.513  0.00  0.00    -0.277 OA
ATOM      4  C   UNL     1       3.573  -3.287   3.632  0.00  0.00    +0.016 C 
ATOM      5  N   UNL     1       2.327  -3.108   4.415  0.00  0.00    +0.401 N 
ATOM      6  C   UNL     1       1.295  -2.938   3.373  0.00  0.00    +0.006 C 
ATOM      7  C   UNL     1       0.672  -4.294   3.044  0.00  0.00    +0.025 C 
ATOM      8  C   UNL     1      -0.371  -4.118   1.936  0.00  0.00    +0.107 C 
ATOM      9  N   UNL     1      -1.332  -3.087   2.351  0.00  0.00    -0.312 N 
ATOM     10  C   UNL     1      -0.824  -1.770   2.759  0.00  0.00    +0.107 C 
ATOM     11  C   UNL     1       0.223  -1.965   3.860  0.00  0.00    +0.025 C 
ATOM     12  C   UNL     1       3.848  -4.773   3.394  0.00  0.00    -0.004 C 
ATOM     13  H   UNL     1       2.139  -3.926   4.977  0.00  0.00    -0.082 HD
ATOM     14  H   UNL     1       2.384  -2.283   4.993  0.00  0.00    -0.082 HD
ENDROOT
BRANCH   9  15
ATOM     15  C   UNL     1      -2.655  -3.345   2.358  0.00  0.00    +0.137 C 
ATOM     16  S   UNL     1      -3.222  -4.922   2.008  0.00  0.00    -0.018 S 
BRANCH  15  17
ATOM     17  N   UNL     1      -3.532  -2.361   2.641  0.00  0.00    -0.297 N 
ATOM     18  H   UNL     1      -3.923  -2.300   3.527  0.00  0.00    +0.154 HD
BRANCH  17  19
ATOM     19  C   UNL     1      -3.877  -1.428   1.658  0.00  0.00    +0.034 A 
ATOM     20  C   UNL     1      -3.407  -1.578   0.360  0.00  0.00    +0.023 A 
ATOM     21  C   UNL     1      -3.749  -0.656  -0.609  0.00  0.00    +0.003 A 
ATOM     22  C   UNL     1      -4.560   0.417  -0.288  0.00  0.00    +0.020 A 
ATOM     23  C   UNL     1      -5.031   0.571   1.004  0.00  0.00    +0.043 A 
ATOM     24  C   UNL     1      -4.696  -0.353   1.976  0.00  0.00    +0.043 A 
ATOM     25 CL   UNL     1      -6.048   1.920   1.402  0.00  0.00    -0.083 Cl
ENDBRANCH  17  19
ENDBRANCH  15  17
ENDBRANCH   9  15
BRANCH   1  26
ATOM     26  C   UNL     1       1.317  -1.741   1.063  0.00  0.00    +0.109 C 
BRANCH  26  27
ATOM     27  C   UNL     1       1.540  -0.229   1.145  0.00  0.00    +0.003 C 
ATOM     28  C   UNL     1       1.137   0.271   2.534  0.00  0.00    +0.009 C 
BRANCH  27  30
ATOM     29  C   UNL     1       1.005   1.968   0.083  0.00  0.00    +0.004 C 
ATOM     30  C   UNL     1       0.689   0.471   0.085  0.00  0.00    +0.001 C 
ENDBRANCH  27  30
ENDBRANCH  26  27
ENDBRANCH   1  26
TORSDOF 6
