REMARK  Name = ZINC59170514
REMARK  9 active torsions:
REMARK  status: ('A' for Active; 'I' for Inactive)
REMARK    1  A    between atoms: C_1  and  O_2
REMARK    2  A    between atoms: O_2  and  C_3
REMARK    3  A    between atoms: C_7  and  N_9
REMARK    4  A    between atoms: C_10  and  C_12
REMARK    5  A    between atoms: C_17  and  O_33
REMARK    6  A    between atoms: N_22  and  C_23
REMARK    7  A    between atoms: C_26  and  S_29
REMARK    8  A    between atoms: S_29  and  N_32
REMARK    9  A    between atoms: O_33  and  C_34
REMARK                            x       y       z     vdW  Elec       q    Type
REMARK                         _______ _______ _______ _____ _____    ______ ____
ROOT
ATOM      1  C   UNL     1       2.295  -6.061   3.145  0.00  0.00    +0.098 A 
ATOM      2  C   UNL     1       2.920  -6.698   4.209  0.00  0.00    +0.030 A 
ATOM      3  C   UNL     1       3.022  -8.112   4.175  0.00  0.00    +0.018 A 
ATOM      4  C   UNL     1       3.459  -8.818   5.306  0.00  0.00    +0.015 A 
ATOM      5  C   UNL     1       3.514 -10.181   5.277  0.00  0.00    +0.046 A 
ATOM      6  C   UNL     1       3.147 -10.879   4.128  0.00  0.00    +0.124 A 
ATOM      7  C   UNL     1       2.731 -10.197   2.994  0.00  0.00    +0.092 A 
ATOM      8  C   UNL     1       2.677  -8.813   3.004  0.00  0.00    +0.141 A 
ATOM      9  O   UNL     1       2.314  -8.135   1.887  0.00  0.00    -0.438 OA
ATOM     10  C   UNL     1       1.747  -6.912   2.072  0.00  0.00    +0.212 A 
ATOM     11  N   UNL     1       0.749  -6.500   1.319  0.00  0.00    -0.325 N 
ATOM     12  H   UNL     1       0.286  -5.676   1.536  0.00  0.00    +0.169 HD
ENDROOT
BRANCH  11  13
ATOM     13  C   UNL     1       0.366  -7.234   0.230  0.00  0.00    +0.042 A 
ATOM     14  C   UNL     1       1.328  -7.751  -0.641  0.00  0.00    +0.027 A 
ATOM     15  C   UNL     1       0.934  -8.491  -1.737  0.00  0.00    +0.030 A 
ATOM     16  C   UNL     1      -0.410  -8.720  -1.975  0.00  0.00    +0.105 A 
ATOM     17  C   UNL     1      -1.368  -8.210  -1.116  0.00  0.00    +0.030 A 
ATOM     18  C   UNL     1      -0.988  -7.474  -0.013  0.00  0.00    +0.027 A 
BRANCH  16  19
ATOM     19  S   UNL     1      -0.903  -9.665  -3.377  0.00  0.00    +0.056 S 
ATOM     20  O   UNL     1      -2.236  -9.277  -3.680  0.00  0.00    -0.153 OA
ATOM     21  O   UNL     1       0.152  -9.568  -4.324  0.00  0.00    -0.153 OA
BRANCH  19  22
ATOM     22  N   UNL     1      -0.968 -11.250  -2.902  0.00  0.00    -0.204 NA
ATOM     23  H   UNL     1      -0.751 -11.491  -1.988  0.00  0.00    +0.144 HD
ATOM     24  H   UNL     1      -1.223 -11.937  -3.537  0.00  0.00    +0.144 HD
ENDBRANCH  19  22
ENDBRANCH  16  19
ENDBRANCH  11  13
BRANCH   1  26
ATOM     25  N   UNL     1       1.698  -3.996   1.986  0.00  0.00    -0.281 N 
ATOM     26  C   UNL     1       2.179  -4.595   3.094  0.00  0.00    +0.253 C 
ATOM     27  O   UNL     1       2.518  -3.924   4.050  0.00  0.00    -0.270 OA
ATOM     28  H   UNL     1       1.376  -4.533   1.245  0.00  0.00    +0.155 HD
BRANCH  25  33
ATOM     29  C   UNL     1       1.840  -0.585   0.613  0.00  0.00    +0.122 A 
ATOM     30  C   UNL     1       1.591   0.165   1.754  0.00  0.00    +0.046 A 
ATOM     31  C   UNL     1       1.379  -0.465   2.965  0.00  0.00    +0.005 A 
ATOM     32  C   UNL     1       1.413  -1.844   3.045  0.00  0.00    +0.023 A 
ATOM     33  C   UNL     1       1.662  -2.600   1.906  0.00  0.00    +0.037 A 
ATOM     34  C   UNL     1       1.870  -1.969   0.687  0.00  0.00    +0.069 A 
BRANCH  29  36
ATOM     35  C   UNL     1       2.003   1.465  -0.580  0.00  0.00    +0.277 C 
ATOM     36  O   UNL     1       2.048   0.036  -0.577  0.00  0.00    -0.495 OA
ENDBRANCH  29  36
ENDBRANCH  25  33
ENDBRANCH   1  26
BRANCH   6  37
ATOM     37  O   UNL     1       3.196 -12.235   4.118  0.00  0.00    -0.495 OA
ATOM     38  C   UNL     1       3.633 -12.876   5.318  0.00  0.00    +0.277 C 
ENDBRANCH   6  37
TORSDOF 7
