REMARK  Name = ZINC13557076
REMARK  7 active torsions:
REMARK  status: ('A' for Active; 'I' for Inactive)
REMARK    1  A    between atoms: C_1  and  C_2
REMARK    2  A    between atoms: C_2  and  C_4
REMARK    3  A    between atoms: C_7  and  N_10
REMARK    4  A    between atoms: C_11  and  C_13
REMARK    5  A    between atoms: C_14  and  N_32
REMARK    6  A    between atoms: C_28  and  C_30
REMARK    7  A    between atoms: C_28  and  C_31
REMARK                            x       y       z     vdW  Elec       q    Type
REMARK                         _______ _______ _______ _____ _____    ______ ____
ROOT
ATOM      1  C   UNL     1      -2.512   4.120   0.039  0.00  0.00    +0.097 A 
ATOM      2  C   UNL     1      -2.712   5.444   0.370  0.00  0.00    +0.054 A 
ATOM      3  C   UNL     1      -4.062   5.879   0.687  0.00  0.00    +0.031 A 
ATOM      4  C   UNL     1      -4.510   7.178   1.050  0.00  0.00    -0.025 A 
ATOM      5  C   UNL     1      -5.826   7.383   1.312  0.00  0.00    +0.020 A 
ATOM      6  C   UNL     1      -6.731   6.317   1.228  0.00  0.00    +0.105 A 
ATOM      7  C   UNL     1      -5.047   4.869   0.629  0.00  0.00    +0.089 A 
ATOM      8  S   UNL     1      -4.144   3.415   0.159  0.00  0.00    -0.064 S 
ATOM      9  N   UNL     1      -8.074   6.532   1.498  0.00  0.00    -0.316 N 
ATOM     10  C   UNL     1      -8.665   7.490   0.529  0.00  0.00    +0.106 C 
ATOM     11  C   UNL     1     -10.185   7.206   0.631  0.00  0.00    +0.020 C 
ATOM     12  C   UNL     1     -10.238   5.672   0.810  0.00  0.00    +0.020 C 
ATOM     13  C   UNL     1      -8.851   5.281   1.352  0.00  0.00    +0.106 C 
ATOM     14  C   UNL     1      -6.350   8.745   1.692  0.00  0.00    +0.199 C 
ATOM     15  O   UNL     1      -5.274   9.596   2.087  0.00  0.00    -0.369 OA
ATOM     16  C   UNL     1      -4.211   9.641   1.128  0.00  0.00    +0.068 C 
ATOM     17  C   UNL     1      -3.497   8.288   1.135  0.00  0.00    +0.070 C 
ATOM     18  C   UNL     1      -4.784   9.914  -0.264  0.00  0.00    +0.041 C 
ATOM     19  C   UNL     1      -3.223  10.747   1.505  0.00  0.00    +0.041 C 
ATOM     20  N   UNL     1      -6.365   5.049   0.890  0.00  0.00    -0.337 N 
ATOM     21  H   UNL     1      -7.043   4.280   0.835  0.00  0.00    +0.168 HD
ENDROOT
BRANCH   1  23
ATOM     22  N   UNL     1      -1.297   2.160  -0.597  0.00  0.00    -0.281 N 
ATOM     23  C   UNL     1      -1.300   3.476  -0.306  0.00  0.00    +0.257 C 
ATOM     24  O   UNL     1      -0.261   4.110  -0.341  0.00  0.00    -0.269 OA
ATOM     25  H   UNL     1      -2.133   1.669  -0.636  0.00  0.00    +0.155 HD
BRANCH  22  29
ATOM     26  C   UNL     1       2.291   0.200  -1.335  0.00  0.00    +0.017 A 
ATOM     27  C   UNL     1       1.256  -0.460  -0.660  0.00  0.00    +0.013 A 
ATOM     28  C   UNL     1       0.079   0.189  -0.418  0.00  0.00    +0.024 A 
ATOM     29  C   UNL     1      -0.093   1.504  -0.841  0.00  0.00    +0.034 A 
ATOM     30  C   UNL     1       0.933   2.164  -1.512  0.00  0.00    +0.024 A 
ATOM     31  C   UNL     1       2.113   1.523  -1.759  0.00  0.00    +0.013 A 
BRANCH  26  33
ATOM     32  C   UNL     1       4.670   0.219  -2.324  0.00  0.00    +0.091 C 
ATOM     33  C   UNL     1       3.558  -0.493  -1.598  0.00  0.00    +0.160 C 
ATOM     34  O   UNL     1       3.711  -1.639  -1.230  0.00  0.00    -0.292 OA
ENDBRANCH  26  33
ENDBRANCH  22  29
ENDBRANCH   1  23
BRANCH   2  35
ATOM     35  N   UNL     1      -1.651   6.339   0.396  0.00  0.00    -0.356 N 
ATOM     36  H   UNL     1      -0.861   6.170  -0.140  0.00  0.00    +0.142 HD
ATOM     37  H   UNL     1      -1.701   7.134   0.950  0.00  0.00    +0.142 HD
ENDBRANCH   2  35
TORSDOF 4
