REMARK  Name = ZINC22199411
REMARK  9 active torsions:
REMARK  status: ('A' for Active; 'I' for Inactive)
REMARK    1  A    between atoms: C_1  and  N_2
REMARK    2  A    between atoms: N_2  and  C_3
REMARK    3  A    between atoms: N_2  and  C_18
REMARK    4  A    between atoms: C_3  and  C_4
REMARK    5  A    between atoms: C_4  and  C_5
REMARK    6  A    between atoms: N_7  and  C_8
REMARK    7  A    between atoms: C_11  and  S_14
REMARK    8  A    between atoms: S_14  and  N_17
REMARK    9  A    between atoms: C_18  and  C_19
REMARK                            x       y       z     vdW  Elec       q    Type
REMARK                         _______ _______ _______ _____ _____    ______ ____
ROOT
ATOM      1  C   UNL     1       7.201  -2.266  -3.009  0.00  0.00    +0.215 C 
ATOM      2  O   UNL     1       7.838  -2.451  -1.993  0.00  0.00    -0.276 OA
ATOM      3  N   UNL     1       7.691  -2.675  -4.196  0.00  0.00    -0.286 N 
ATOM      4  H   UNL     1       7.081  -2.576  -5.106  0.00  0.00    +0.155 HD
ENDROOT
BRANCH   3   5
ATOM      5  C   UNL     1       8.975  -3.226  -4.270  0.00  0.00    +0.033 A 
ATOM      6  C   UNL     1       9.767  -2.997  -5.387  0.00  0.00    +0.025 A 
ATOM      7  C   UNL     1      11.036  -3.537  -5.455  0.00  0.00    +0.030 A 
ATOM      8  C   UNL     1      11.514  -4.316  -4.417  0.00  0.00    +0.105 A 
ATOM      9  C   UNL     1      10.725  -4.551  -3.305  0.00  0.00    +0.030 A 
ATOM     10  C   UNL     1       9.458  -4.008  -3.229  0.00  0.00    +0.025 A 
BRANCH   8  11
ATOM     11  S   UNL     1      13.131  -5.009  -4.510  0.00  0.00    +0.056 S 
ATOM     12  O   UNL     1      13.872  -4.193  -5.407  0.00  0.00    -0.153 OA
ATOM     13  O   UNL     1      13.549  -5.246  -3.173  0.00  0.00    -0.153 OA
BRANCH  11  14
ATOM     14  N   UNL     1      12.986  -6.493  -5.230  0.00  0.00    -0.204 NA
ATOM     15  H   UNL     1      13.979  -6.961  -5.308  0.00  0.00    +0.144 HD
ATOM     16  H   UNL     1      12.559  -6.372  -6.236  0.00  0.00    +0.144 HD
ENDBRANCH  11  14
ENDBRANCH   8  11
ENDBRANCH   3   5
BRANCH   1  17
ATOM     17  C   UNL     1       5.862  -1.578  -2.943  0.00  0.00    +0.077 C 
BRANCH  17  18
ATOM     18  C   UNL     1       5.543  -1.219  -1.490  0.00  0.00    -0.070 C 
BRANCH  18  20
ATOM     19  C   UNL     1       4.281   0.753  -2.106  0.00  0.00    -0.096 C 
ATOM     20  N   UNL     1       4.238  -0.548  -1.427  0.00  0.00    +0.381 N 
ATOM     21  H   UNL     1       3.507  -1.180  -1.952  0.00  0.00    -0.082 HD
BRANCH  20  22
ATOM     22  C   UNL     1       3.789  -0.401  -0.035  0.00  0.00    -0.036 C 
BRANCH  22  23
ATOM     23  C   UNL     1       2.355   0.061  -0.017  0.00  0.00    -0.025 A 
ATOM     24  C   UNL     1       1.220  -0.679  -0.004  0.00  0.00    +0.011 A 
ATOM     25  C   UNL     1      -0.003  -0.033   0.012  0.00  0.00    +0.028 A 
ATOM     26  C   UNL     1      -0.029   1.323   0.014  0.00  0.00    +0.078 A 
ATOM     27  S   UNL     1       1.710   1.726  -0.006  0.00  0.00    -0.084 S 
ATOM     28 CL   UNL     1      -1.398   2.390   0.026  0.00  0.00    -0.076 Cl
ENDBRANCH  22  23
ENDBRANCH  20  22
ENDBRANCH  18  20
ENDBRANCH  17  18
ENDBRANCH   1  17
TORSDOF 8
