REMARK  Name = ZINC63491480
REMARK  9 active torsions:
REMARK  status: ('A' for Active; 'I' for Inactive)
REMARK    1  A    between atoms: C_7  and  C_10
REMARK    2  A    between atoms: C_10  and  C_11
REMARK    3  A    between atoms: C_11  and  C_12
REMARK    4  A    between atoms: C_12  and  C_13
REMARK    5  A    between atoms: N_15  and  C_16
REMARK    6  A    between atoms: C_16  and  C_17
REMARK    7  A    between atoms: C_17  and  C_18
REMARK    8  A    between atoms: C_21  and  S_24
REMARK    9  A    between atoms: S_24  and  N_27
REMARK                            x       y       z     vdW  Elec       q    Type
REMARK                         _______ _______ _______ _____ _____    ______ ____
ROOT
ATOM      1  C   UNL     1      -0.729  -5.309  -2.876  0.00  0.00    +0.213 C 
ATOM      2  O   UNL     1      -0.183  -4.738  -3.796  0.00  0.00    -0.276 OA
ATOM      3  N   UNL     1      -1.542  -6.356  -3.120  0.00  0.00    -0.315 N 
ATOM      4  H   UNL     1      -1.979  -6.813  -2.385  0.00  0.00    +0.149 HD
ENDROOT
BRANCH   1   5
ATOM      5  C   UNL     1      -0.499  -4.848  -1.460  0.00  0.00    +0.096 C 
BRANCH   5   6
ATOM      6  C   UNL     1       0.457  -3.653  -1.462  0.00  0.00    +0.014 C 
BRANCH   6   7
ATOM      7  C   UNL     1       0.691  -3.186  -0.024  0.00  0.00    +0.033 C 
BRANCH   7  14
ATOM      8  C   UNL     1      -0.016   1.348   0.009  0.00  0.00    +0.001 A 
ATOM      9  C   UNL     1       1.166   2.101   0.002  0.00  0.00    +0.002 A 
ATOM     10  C   UNL     1       2.391   1.535  -0.013  0.00  0.00    +0.026 A 
ATOM     11  C   UNL     1       2.529   0.120  -0.022  0.00  0.00    +0.043 A 
ATOM     12  N   UNL     1       3.587  -0.654  -0.037  0.00  0.00    -0.380 N 
ATOM     13  C   UNL     1       3.143  -2.053  -0.041  0.00  0.00    +0.144 C 
ATOM     14  C   UNL     1       1.631  -2.008  -0.025  0.00  0.00    -0.042 C 
ATOM     15  C   UNL     1       1.295  -0.698  -0.014  0.00  0.00    -0.001 A 
ATOM     16  C   UNL     1       0.002  -0.004   0.002  0.00  0.00    +0.010 A 
ATOM     17  H   UNL     1       4.509  -0.353  -0.045  0.00  0.00    +0.160 HD
ENDBRANCH   7  14
ENDBRANCH   6   7
ENDBRANCH   5   6
ENDBRANCH   1   5
BRANCH   3  18
ATOM     18  C   UNL     1      -1.766  -6.804  -4.497  0.00  0.00    +0.109 C 
BRANCH  18  19
ATOM     19  C   UNL     1      -2.722  -7.999  -4.495  0.00  0.00    +0.054 C 
BRANCH  19  20
ATOM     20  C   UNL     1      -2.952  -8.460  -5.912  0.00  0.00    -0.046 A 
ATOM     21  C   UNL     1      -3.987  -7.922  -6.654  0.00  0.00    +0.005 A 
ATOM     22  C   UNL     1      -4.198  -8.345  -7.953  0.00  0.00    +0.029 A 
ATOM     23  C   UNL     1      -3.375  -9.305  -8.510  0.00  0.00    +0.105 A 
ATOM     24  C   UNL     1      -2.340  -9.842  -7.768  0.00  0.00    +0.029 A 
ATOM     25  C   UNL     1      -2.126  -9.417  -6.471  0.00  0.00    +0.005 A 
BRANCH  23  26
ATOM     26  S   UNL     1      -3.645  -9.845 -10.165  0.00  0.00    +0.056 S 
ATOM     27  O   UNL     1      -3.077 -11.143 -10.267  0.00  0.00    -0.153 OA
ATOM     28  O   UNL     1      -5.011  -9.585 -10.459  0.00  0.00    -0.153 OA
BRANCH  26  29
ATOM     29  N   UNL     1      -2.753  -8.859 -11.153  0.00  0.00    -0.204 NA
ATOM     30  H   UNL     1      -2.217  -8.147 -10.772  0.00  0.00    +0.144 HD
ATOM     31  H   UNL     1      -2.767  -8.995 -12.114  0.00  0.00    +0.144 HD
ENDBRANCH  26  29
ENDBRANCH  23  26
ENDBRANCH  19  20
ENDBRANCH  18  19
ENDBRANCH   3  18
TORSDOF 9
