REMARK  Name = ZINC01889695
REMARK  11 active torsions:
REMARK  status: ('A' for Active; 'I' for Inactive)
REMARK    1  A    between atoms: C_1  and  C_2
REMARK    2  A    between atoms: C_3  and  C_4
REMARK    3  A    between atoms: C_3  and  N_11
REMARK    4  A    between atoms: C_7  and  O_10
REMARK    5  A    between atoms: N_11  and  N_12
REMARK    6  A    between atoms: C_13  and  C_15
REMARK    7  A    between atoms: C_15  and  S_16
REMARK    8  A    between atoms: S_16  and  C_17
REMARK    9  A    between atoms: N_27  and  C_28
REMARK   10  A    between atoms: C_31  and  O_34
REMARK   11  A    between atoms: O_34  and  C_35
REMARK                            x       y       z     vdW  Elec       q    Type
REMARK                         _______ _______ _______ _____ _____    ______ ____
ROOT
ATOM      1  S   UNL     1      -1.398  -4.064   3.554  0.00  0.00    -0.078 S 
ENDROOT
BRANCH   1   2
ATOM      2  C   UNL     1      -2.326  -3.830   2.075  0.00  0.00    +0.177 A 
ATOM      3  N   UNL     1      -2.844  -2.649   1.843  0.00  0.00    -0.223 NA
ATOM      4  C   UNL     1      -3.561  -2.399   0.729  0.00  0.00    +0.079 A 
ATOM      5  C   UNL     1      -4.110  -1.137   0.480  0.00  0.00    +0.028 A 
ATOM      6  C   UNL     1      -4.834  -0.928  -0.660  0.00  0.00    +0.002 A 
ATOM      7  C   UNL     1      -5.034  -1.952  -1.578  0.00  0.00    +0.001 A 
ATOM      8  C   UNL     1      -4.509  -3.196  -1.362  0.00  0.00    +0.015 A 
ATOM      9  C   UNL     1      -3.766  -3.438  -0.208  0.00  0.00    +0.065 A 
ATOM     10  C   UNL     1      -3.180  -4.754   0.076  0.00  0.00    +0.267 A 
ATOM     11  O   UNL     1      -3.322  -5.688  -0.692  0.00  0.00    -0.267 OA
ATOM     12  N   UNL     1      -2.475  -4.890   1.224  0.00  0.00    -0.255 N 
BRANCH  12  13
ATOM     13  C   UNL     1      -1.895  -6.126   1.543  0.00  0.00    +0.052 A 
ATOM     14  C   UNL     1      -0.688  -6.496   0.965  0.00  0.00    +0.030 A 
ATOM     15  C   UNL     1      -0.114  -7.710   1.284  0.00  0.00    +0.047 A 
ATOM     16  C   UNL     1      -0.749  -8.566   2.172  0.00  0.00    +0.120 A 
ATOM     17  C   UNL     1      -1.958  -8.200   2.745  0.00  0.00    +0.047 A 
ATOM     18  C   UNL     1      -2.530  -6.983   2.431  0.00  0.00    +0.030 A 
BRANCH  16  19
ATOM     19  O   UNL     1      -0.186  -9.765   2.480  0.00  0.00    -0.495 OA
ATOM     20  C   UNL     1       1.059 -10.078   1.854  0.00  0.00    +0.277 C 
ENDBRANCH  16  19
ENDBRANCH  12  13
ENDBRANCH   1   2
BRANCH   1  21
ATOM     21  C   UNL     1      -1.520  -2.405   4.268  0.00  0.00    +0.174 C 
BRANCH  21  23
ATOM     22  N   UNL     1      -0.732  -1.225   6.294  0.00  0.00    -0.236 N 
ATOM     23  C   UNL     1      -0.777  -2.367   5.579  0.00  0.00    +0.239 C 
ATOM     24  O   UNL     1      -0.221  -3.363   5.990  0.00  0.00    -0.273 OA
ATOM     25  H   UNL     1      -1.173  -0.427   5.963  0.00  0.00    +0.173 HD
BRANCH  22  26
ATOM     26  N   UNL     1      -0.042  -1.189   7.513  0.00  0.00    -0.264 N 
ATOM     27  H   UNL     1       0.335  -2.004   7.881  0.00  0.00    +0.170 HD
BRANCH  26  30
ATOM     28  C   UNL     1      -1.798   0.912   6.914  0.00  0.00    +0.037 C 
ATOM     29  C   UNL     1      -0.802   0.985   8.043  0.00  0.00    -0.005 C 
ATOM     30  C   UNL     1       0.104   0.018   8.196  0.00  0.00    +0.047 C 
BRANCH  30  31
ATOM     31  C   UNL     1       1.264   0.226   9.093  0.00  0.00    -0.003 A 
ATOM     32  C   UNL     1       2.209  -0.786   9.259  0.00  0.00    +0.013 A 
ATOM     33  C   UNL     1       3.291  -0.587  10.091  0.00  0.00    +0.046 A 
ATOM     34  C   UNL     1       3.434   0.615  10.770  0.00  0.00    +0.117 A 
ATOM     35  C   UNL     1       2.492   1.623  10.611  0.00  0.00    +0.046 A 
ATOM     36  C   UNL     1       1.411   1.433   9.777  0.00  0.00    +0.013 A 
BRANCH  34  37
ATOM     37  O   UNL     1       4.499   0.806  11.593  0.00  0.00    -0.507 OA
ATOM     38  H   UNL     1       4.343   0.534  12.508  0.00  0.00    +0.292 HD
ENDBRANCH  34  37
ENDBRANCH  30  31
ENDBRANCH  26  30
ENDBRANCH  22  26
ENDBRANCH  21  23
ENDBRANCH   1  21
TORSDOF 9
