REMARK  Name = ZINC63502486
REMARK  16 active torsions:
REMARK  status: ('A' for Active; 'I' for Inactive)
REMARK    1  A    between atoms: C_1  and  C_2
REMARK    2  A    between atoms: C_2  and  C_3
REMARK    3  A    between atoms: C_3  and  C_4
REMARK    4  A    between atoms: C_4  and  N_5
REMARK    5  A    between atoms: N_5  and  C_6
REMARK    6  A    between atoms: N_5  and  C_10
REMARK    7  A    between atoms: C_6  and  C_7
REMARK    8  A    between atoms: C_7  and  C_8
REMARK    9  A    between atoms: C_8  and  C_9
REMARK   10  A    between atoms: C_10  and  C_11
REMARK   11  A    between atoms: C_11  and  C_12
REMARK   12  A    between atoms: C_12  and  N_13
REMARK   13  A    between atoms: C_14  and  C_16
REMARK   14  A    between atoms: C_21  and  C_28
REMARK   15  A    between atoms: C_33  and  N_34
REMARK   16  A    between atoms: C_35  and  C_37
REMARK                            x       y       z     vdW  Elec       q    Type
REMARK                         _______ _______ _______ _____ _____    ______ ____
ROOT
ATOM      1  C   UNL     1      -7.043  -9.166   1.179  0.00  0.00    +0.039 A 
ATOM      2  C   UNL     1      -8.117  -8.189   1.047  0.00  0.00    +0.015 A 
ATOM      3  C   UNL     1      -9.403  -8.580   0.938  0.00  0.00    +0.028 A 
ATOM      4  C   UNL     1      -9.726 -10.015   0.951  0.00  0.00    +0.058 A 
ATOM      5  N   UNL     1     -10.965 -10.408   0.846  0.00  0.00    -0.369 N 
ATOM      6  C   UNL     1     -11.251 -11.850   0.863  0.00  0.00    +0.198 C 
ATOM      7  C   UNL     1     -10.083 -12.800   1.002  0.00  0.00    +0.244 C 
ATOM      8  O   UNL     1     -10.264 -14.001   1.021  0.00  0.00    -0.273 OA
ATOM      9  N   UNL     1      -8.848 -12.299   1.104  0.00  0.00    -0.282 N 
ATOM     10  C   UNL     1      -8.622 -10.997   1.085  0.00  0.00    +0.057 A 
ATOM     11  C   UNL     1      -7.294 -10.516   1.190  0.00  0.00    +0.038 A 
ATOM     12  H   UNL     1     -11.684  -9.762   0.759  0.00  0.00    +0.161 HD
ATOM     13  H   UNL     1      -8.098 -12.907   1.193  0.00  0.00    +0.155 HD
ENDROOT
BRANCH   6  14
ATOM     14  C   UNL     1     -12.199 -12.118   2.003  0.00  0.00    +0.005 A 
ATOM     15  C   UNL     1     -12.317 -11.205   3.033  0.00  0.00    +0.008 A 
ATOM     16  C   UNL     1     -13.187 -11.450   4.080  0.00  0.00    +0.000 A 
ATOM     17  C   UNL     1     -13.941 -12.609   4.099  0.00  0.00    +0.002 A 
ATOM     18  C   UNL     1     -13.827 -13.526   3.073  0.00  0.00    +0.023 A 
ATOM     19  C   UNL     1     -12.958 -13.280   2.018  0.00  0.00    +0.039 A 
BRANCH  19  20
ATOM     20  N   UNL     1     -12.845 -14.205   0.974  0.00  0.00    -0.285 N 
ATOM     21  C   UNL     1     -13.119 -15.506   1.193  0.00  0.00    +0.214 C 
ATOM     22  O   UNL     1     -13.545 -15.863   2.271  0.00  0.00    -0.276 OA
ATOM     23  C   UNL     1     -12.895 -16.518   0.099  0.00  0.00    +0.109 C 
ATOM     24  H   UNL     1     -12.569 -13.909   0.092  0.00  0.00    +0.155 HD
ENDBRANCH  19  20
ENDBRANCH   6  14
BRANCH   1  26
ATOM     25  N   UNL     1      -5.378  -7.369   1.287  0.00  0.00    -0.311 N 
ATOM     26  C   UNL     1      -5.644  -8.690   1.296  0.00  0.00    +0.244 C 
ATOM     27  O   UNL     1      -4.737  -9.491   1.402  0.00  0.00    -0.270 OA
ATOM     28  H   UNL     1      -6.103  -6.729   1.203  0.00  0.00    +0.149 HD
BRANCH  25  29
ATOM     29  C   UNL     1      -3.996  -6.898   1.403  0.00  0.00    +0.102 C 
BRANCH  29  30
ATOM     30  C   UNL     1      -3.972  -5.369   1.366  0.00  0.00    +0.000 C 
BRANCH  30  31
ATOM     31  C   UNL     1      -2.529  -4.878   1.487  0.00  0.00    -0.077 C 
BRANCH  31  32
ATOM     32  N   UNL     1      -2.492  -3.418   1.324  0.00  0.00    +0.380 N 
ATOM     33  H   UNL     1      -2.922  -3.167   0.446  0.00  0.00    -0.082 HD
BRANCH  32  34
ATOM     34  C   UNL     1      -3.226  -2.784   2.427  0.00  0.00    -0.079 C 
BRANCH  34  35
ATOM     35  C   UNL     1      -3.295  -1.274   2.192  0.00  0.00    -0.019 C 
BRANCH  35  37
ATOM     36  C   UNL     1      -4.128   0.897   3.105  0.00  0.00    +0.004 C 
ATOM     37  C   UNL     1      -4.059  -0.613   3.341  0.00  0.00    -0.005 C 
ENDBRANCH  35  37
ENDBRANCH  34  35
ENDBRANCH  32  34
BRANCH  32  38
ATOM     38  C   UNL     1      -1.097  -2.959   1.335  0.00  0.00    -0.079 C 
BRANCH  38  39
ATOM     39  C   UNL     1      -0.366  -3.517   0.112  0.00  0.00    -0.019 C 
BRANCH  39  40
ATOM     40  C   UNL     1       1.110  -3.120   0.175  0.00  0.00    -0.005 C 
ATOM     41  C   UNL     1       1.841  -3.679  -1.048  0.00  0.00    +0.004 C 
ENDBRANCH  39  40
ENDBRANCH  38  39
ENDBRANCH  32  38
ENDBRANCH  31  32
ENDBRANCH  30  31
ENDBRANCH  29  30
ENDBRANCH  25  29
ENDBRANCH   1  26
TORSDOF 13
