REMARK  Name = ZINC10156517
REMARK  6 active torsions:
REMARK  status: ('A' for Active; 'I' for Inactive)
REMARK    1  A    between atoms: C_1  and  C_2
REMARK    2  A    between atoms: C_5  and  N_9
REMARK    3  A    between atoms: C_6  and  C_8
REMARK    4  A    between atoms: C_18  and  C_20
REMARK    5  A    between atoms: C_20  and  S_21
REMARK    6  A    between atoms: S_21  and  C_22
REMARK                            x       y       z     vdW  Elec       q    Type
REMARK                         _______ _______ _______ _____ _____    ______ ____
ROOT
ATOM      1  N   UNL     1      -2.981  -0.990   0.255  0.00  0.00    -0.327 N 
ATOM      2  C   UNL     1      -2.168   0.027   0.702  0.00  0.00    +0.180 C 
ATOM      3  N   UNL     1      -1.044  -0.265   1.447  0.00  0.00    -0.298 N 
ATOM      4  C   UNL     1      -0.171   0.737   1.794  0.00  0.00    +0.211 A 
ATOM      5  N   UNL     1       0.934   0.436   2.529  0.00  0.00    -0.293 N 
ATOM      6  H   UNL     1       1.101  -0.479   2.803  0.00  0.00    +0.172 HD
ATOM      7  C   UNL     1       1.797   1.415   2.874  0.00  0.00    +0.253 A 
ATOM      8  O   UNL     1       2.793   1.163   3.532  0.00  0.00    -0.268 OA
ATOM      9  C   UNL     1       1.526   2.732   2.460  0.00  0.00    +0.094 A 
ATOM     10  C   UNL     1       0.403   2.973   1.724  0.00  0.00    +0.060 A 
ATOM     11  N   UNL     1      -0.417   1.972   1.410  0.00  0.00    -0.218 NA
ATOM     12  H   UNL     1      -3.819  -0.782  -0.187  0.00  0.00    +0.169 HD
ATOM     13  H   UNL     1      -3.265   1.577  -0.032  0.00  0.00    +0.159 HD
ATOM     14  H   UNL     1      -0.870  -1.178   1.726  0.00  0.00    +0.172 HD
ATOM     15  N   UNL     1      -2.405   1.304   0.445  0.00  0.00    -0.371 N 
ATOM     16  H   UNL     1      -1.724   2.019   0.725  0.00  0.00    +0.159 HD
ENDROOT
BRANCH   1  21
ATOM     17  C   UNL     1      -1.432  -6.395   1.006  0.00  0.00    +0.044 C 
ATOM     18  C   UNL     1      -1.844  -4.959   0.806  0.00  0.00    -0.050 A 
ATOM     19  C   UNL     1      -0.879  -3.979   0.655  0.00  0.00    +0.005 A 
ATOM     20  C   UNL     1      -1.253  -2.663   0.472  0.00  0.00    +0.026 A 
ATOM     21  C   UNL     1      -2.599  -2.322   0.440  0.00  0.00    +0.045 A 
ATOM     22  C   UNL     1      -3.565  -3.308   0.596  0.00  0.00    -0.027 A 
ATOM     23  C   UNL     1      -3.185  -4.624   0.774  0.00  0.00    +0.008 A 
ATOM     24  C   UNL     1      -5.027  -2.942   0.568  0.00  0.00    +0.046 C 
ENDBRANCH   1  21
BRANCH  10  25
ATOM     25  C   UNL     1       0.089   4.375   1.268  0.00  0.00    +0.132 C 
BRANCH  25  26
ATOM     26  S   UNL     1       0.449   4.527  -0.500  0.00  0.00    -0.093 S 
BRANCH  26  27
ATOM     27  C   UNL     1       0.005   6.213  -0.757  0.00  0.00    +0.136 A 
ATOM     28  N   UNL     1       0.049   6.917  -1.867  0.00  0.00    -0.233 NA
ATOM     29  C   UNL     1      -0.327   8.214  -1.918  0.00  0.00    +0.079 A 
ATOM     30  C   UNL     1      -0.329   9.078  -3.037  0.00  0.00    +0.029 A 
ATOM     31  C   UNL     1      -0.746  10.378  -2.917  0.00  0.00    +0.002 A 
ATOM     32  C   UNL     1      -1.177  10.892  -1.703  0.00  0.00    +0.001 A 
ATOM     33  C   UNL     1      -1.188  10.074  -0.587  0.00  0.00    +0.017 A 
ATOM     34  C   UNL     1      -0.773   8.771  -0.698  0.00  0.00    +0.040 A 
ATOM     35  S   UNL     1      -0.627   7.399   0.421  0.00  0.00    -0.061 S 
ENDBRANCH  26  27
ENDBRANCH  25  26
ENDBRANCH  10  25
TORSDOF 4
