REMARK  Name = ZINC39946650
REMARK  7 active torsions:
REMARK  status: ('A' for Active; 'I' for Inactive)
REMARK    1  A    between atoms: C_4  and  C_7
REMARK    2  A    between atoms: C_9  and  C_17
REMARK    3  A    between atoms: N_18  and  N_19
REMARK    4  A    between atoms: C_20  and  C_22
REMARK    5  A    between atoms: C_25  and  C_28
REMARK    6  A    between atoms: C_28  and  S_29
REMARK    7  A    between atoms: S_29  and  C_30
REMARK                            x       y       z     vdW  Elec       q    Type
REMARK                         _______ _______ _______ _____ _____    ______ ____
ROOT
ATOM      1  N   UNL     1       4.629  -0.191  -4.883  0.00  0.00    -0.203 N 
ATOM      2  C   UNL     1       4.901  -0.777  -6.066  0.00  0.00    +0.263 C 
ATOM      3  O   UNL     1       4.997  -1.987  -6.136  0.00  0.00    -0.268 OA
ATOM      4  H   UNL     1       4.552   0.775  -4.827  0.00  0.00    +0.178 HD
ENDROOT
BRANCH   2   5
ATOM      5  C   UNL     1       5.083   0.050  -7.276  0.00  0.00    +0.038 A 
ATOM      6  C   UNL     1       4.979   1.441  -7.197  0.00  0.00    +0.013 A 
ATOM      7  C   UNL     1       5.150   2.207  -8.331  0.00  0.00    +0.005 A 
ATOM      8  C   UNL     1       5.424   1.601  -9.545  0.00  0.00    -0.037 A 
ATOM      9  C   UNL     1       5.527   0.224  -9.630  0.00  0.00    +0.005 A 
ATOM     10  C   UNL     1       5.365  -0.554  -8.503  0.00  0.00    +0.013 A 
BRANCH   8  11
ATOM     11  C   UNL     1       5.609   2.445 -10.780  0.00  0.00    +0.111 C 
BRANCH  11  12
ATOM     12  S   UNL     1       7.359   2.891 -10.951  0.00  0.00    -0.094 S 
BRANCH  12  13
ATOM     13  C   UNL     1       7.409   3.862 -12.420  0.00  0.00    +0.136 A 
ATOM     14  N   UNL     1       6.422   4.204 -13.217  0.00  0.00    -0.233 NA
ATOM     15  C   UNL     1       6.609   4.961 -14.320  0.00  0.00    +0.079 A 
ATOM     16  C   UNL     1       5.641   5.395 -15.255  0.00  0.00    +0.029 A 
ATOM     17  C   UNL     1       6.002   6.166 -16.330  0.00  0.00    +0.002 A 
ATOM     18  C   UNL     1       7.319   6.545 -16.540  0.00  0.00    +0.001 A 
ATOM     19  C   UNL     1       8.292   6.138 -15.645  0.00  0.00    +0.017 A 
ATOM     20  C   UNL     1       7.940   5.367 -14.566  0.00  0.00    +0.040 A 
ATOM     21  S   UNL     1       8.816   4.642 -13.200  0.00  0.00    -0.061 S 
ENDBRANCH  12  13
ENDBRANCH  11  12
ENDBRANCH   8  11
ENDBRANCH   2   5
BRANCH   1  23
ATOM     22  C   UNL     1       4.192  -0.405  -2.586  0.00  0.00    +0.137 C 
ATOM     23  N   UNL     1       4.457  -0.975  -3.735  0.00  0.00    -0.188 NA
BRANCH  22  25
ATOM     24  C   UNL     1       3.711  -0.707  -0.038  0.00  0.00    +0.142 C 
ATOM     25  C   UNL     1       4.019  -1.190  -1.438  0.00  0.00    +0.008 C 
ATOM     26  C   UNL     1       4.095  -2.578  -1.347  0.00  0.00    +0.005 A 
ATOM     27  C   UNL     1       4.351  -3.585  -2.304  0.00  0.00    +0.010 A 
ATOM     28  C   UNL     1       4.363  -4.887  -1.925  0.00  0.00    +0.001 A 
ATOM     29  C   UNL     1       4.127  -5.266  -0.600  0.00  0.00    +0.002 A 
ATOM     30  C   UNL     1       3.875  -4.356   0.371  0.00  0.00    +0.026 A 
ATOM     31  C   UNL     1       3.846  -2.972   0.051  0.00  0.00    +0.044 A 
ATOM     32  N   UNL     1       3.628  -1.909   0.798  0.00  0.00    -0.373 N 
ATOM     33  H   UNL     1       3.442  -1.919   1.750  0.00  0.00    +0.161 HD
BRANCH  24  37
ATOM     34  C   UNL     1      -0.017   1.378   0.010  0.00  0.00    +0.000 A 
ATOM     35  C   UNL     1       1.171   2.086   0.002  0.00  0.00    +0.000 A 
ATOM     36  C   UNL     1       2.377   1.411  -0.013  0.00  0.00    +0.006 A 
ATOM     37  C   UNL     1       2.396   0.029  -0.020  0.00  0.00    -0.021 A 
ATOM     38  C   UNL     1       1.208  -0.679  -0.012  0.00  0.00    +0.006 A 
ATOM     39  C   UNL     1       0.002  -0.004   0.002  0.00  0.00    +0.000 A 
ENDBRANCH  24  37
ENDBRANCH  22  25
ENDBRANCH   1  23
TORSDOF 7
