REMARK  Name = ZINC22198579
REMARK  7 active torsions:
REMARK  status: ('A' for Active; 'I' for Inactive)
REMARK    1  A    between atoms: C_3  and  S_23
REMARK    2  A    between atoms: C_6  and  N_7
REMARK    3  A    between atoms: C_8  and  C_10
REMARK    4  A    between atoms: C_10  and  C_11
REMARK    5  A    between atoms: C_11  and  N_12
REMARK    6  A    between atoms: C_16  and  C_19
REMARK    7  A    between atoms: S_23  and  N_26
REMARK                            x       y       z     vdW  Elec       q    Type
REMARK                         _______ _______ _______ _____ _____    ______ ____
ROOT
ATOM      1  N   UNL     1      -0.404   1.543   6.118  0.00  0.00    -0.286 N 
ATOM      2  C   UNL     1      -0.052   1.080   4.902  0.00  0.00    +0.215 C 
ATOM      3  O   UNL     1       0.755   0.179   4.806  0.00  0.00    -0.276 OA
ATOM      4  H   UNL     1      -1.077   2.409   6.204  0.00  0.00    +0.155 HD
ENDROOT
BRANCH   1  10
ATOM      5  C   UNL     1      -0.707   0.835   8.408  0.00  0.00    +0.025 A 
ATOM      6  C   UNL     1      -0.221   0.217   9.543  0.00  0.00    +0.030 A 
ATOM      7  C   UNL     1       1.059  -0.307   9.553  0.00  0.00    +0.105 A 
ATOM      8  C   UNL     1       1.855  -0.217   8.425  0.00  0.00    +0.030 A 
ATOM      9  C   UNL     1       1.373   0.395   7.285  0.00  0.00    +0.025 A 
ATOM     10  C   UNL     1       0.088   0.921   7.272  0.00  0.00    +0.033 A 
BRANCH   7  11
ATOM     11  S   UNL     1       1.678  -1.089  11.005  0.00  0.00    +0.056 S 
ATOM     12  O   UNL     1       0.546  -1.527  11.744  0.00  0.00    -0.153 OA
ATOM     13  O   UNL     1       2.702  -1.979  10.582  0.00  0.00    -0.153 OA
BRANCH  11  14
ATOM     14  N   UNL     1       2.414   0.081  11.917  0.00  0.00    -0.204 NA
ATOM     15  H   UNL     1       2.815  -0.369  12.837  0.00  0.00    +0.144 HD
ATOM     16  H   UNL     1       1.680   0.858  12.178  0.00  0.00    +0.144 HD
ENDBRANCH  11  14
ENDBRANCH   7  11
ENDBRANCH   1  10
BRANCH   2  17
ATOM     17  C   UNL     1      -0.662   1.681   3.662  0.00  0.00    +0.077 C 
BRANCH  17  18
ATOM     18  C   UNL     1      -0.097   0.981   2.425  0.00  0.00    -0.070 C 
BRANCH  18  19
ATOM     19  N   UNL     1      -0.692   1.567   1.216  0.00  0.00    +0.380 N 
ATOM     20  C   UNL     1      -0.686   3.034   1.286  0.00  0.00    -0.079 C 
ATOM     21  C   UNL     1      -1.441   3.605   0.083  0.00  0.00    -0.018 C 
ATOM     22  C   UNL     1      -0.765   3.135  -1.208  0.00  0.00    +0.008 C 
ATOM     23  C   UNL     1      -0.740   1.604  -1.233  0.00  0.00    +0.077 C 
ATOM     24  C   UNL     1      -0.006   1.090   0.008  0.00  0.00    -0.067 C 
ATOM     25  H   UNL     1      -1.740   1.238   1.159  0.00  0.00    -0.082 HD
BRANCH  23  26
ATOM     26  C   UNL     1      -0.014   1.125  -2.491  0.00  0.00    +0.391 C 
ATOM     27  F   UNL     1       0.013  -0.274  -2.511  0.00  0.00    -0.171 F 
ATOM     28  F   UNL     1      -0.685   1.595  -3.625  0.00  0.00    -0.171 F 
ATOM     29  F   UNL     1       1.296   1.616  -2.488  0.00  0.00    -0.171 F 
ENDBRANCH  23  26
ENDBRANCH  18  19
ENDBRANCH  17  18
ENDBRANCH   2  17
TORSDOF 7
