REMARK  Name = ZINC35426836
REMARK  4 active torsions:
REMARK  status: ('A' for Active; 'I' for Inactive)
REMARK    1  A    between atoms: C_6  and  S_7
REMARK    2  A    between atoms: S_7  and  N_10
REMARK    3  A    between atoms: N_10  and  C_11
REMARK    4  A    between atoms: C_14  and  C_16
REMARK                            x       y       z     vdW  Elec       q    Type
REMARK                         _______ _______ _______ _____ _____    ______ ____
ROOT
ATOM      1  S   UNL     1      -1.510  -0.909   0.018  0.00  0.00    +0.073 S 
ATOM      2  O   UNL     1      -1.212  -2.189   0.558  0.00  0.00    -0.150 OA
ATOM      3  O   UNL     1      -2.490  -0.052   0.586  0.00  0.00    -0.150 OA
ENDROOT
BRANCH   1   9
ATOM      4  C   UNL     1      -0.017   1.378   0.010  0.00  0.00    +0.032 A 
ATOM      5  C   UNL     1       1.164   2.091   0.002  0.00  0.00    +0.048 A 
ATOM      6  C   UNL     1       2.386   1.424  -0.015  0.00  0.00    +0.124 A 
ATOM      7  C   UNL     1       2.392   0.035  -0.030  0.00  0.00    -0.001 A 
ATOM      8  C   UNL     1       1.212  -0.675  -0.018  0.00  0.00    +0.036 A 
ATOM      9  C   UNL     1       0.002  -0.004   0.002  0.00  0.00    +0.109 A 
ATOM     10  C   UNL     1       3.844  -0.403  -0.071  0.00  0.00    +0.080 C 
ATOM     11  C   UNL     1       4.562   0.907  -0.473  0.00  0.00    +0.234 C 
ATOM     12  O   UNL     1       3.653   1.923  -0.013  0.00  0.00    -0.491 OA
ENDBRANCH   1   9
BRANCH   1  13
ATOM     13  N   UNL     1      -1.951  -1.152  -1.560  0.00  0.00    -0.210 N 
ATOM     14  H   UNL     1      -2.761  -0.744  -1.905  0.00  0.00    +0.174 HD
BRANCH  13  15
ATOM     15  C   UNL     1      -1.165  -1.936  -2.385  0.00  0.00    +0.086 A 
ATOM     16  C   UNL     1      -1.575  -2.913  -3.268  0.00  0.00    +0.033 A 
ATOM     17  C   UNL     1      -0.627  -3.577  -3.996  0.00  0.00    +0.025 A 
ATOM     18  C   UNL     1       0.693  -3.194  -3.772  0.00  0.00    +0.102 A 
ATOM     19  S   UNL     1       0.507  -1.911  -2.548  0.00  0.00    -0.066 S 
BRANCH  18  20
ATOM     20  C   UNL     1       1.872  -3.688  -4.364  0.00  0.00    +0.393 C 
ATOM     21  O   UNL     1       1.804  -4.658  -5.276  0.00  0.00    -0.240 OA
ATOM     22  O   UNL     1       3.056  -3.186  -4.013  0.00  0.00    -0.240 OA
ENDBRANCH  18  20
ENDBRANCH  13  15
ENDBRANCH   1  13
TORSDOF 4
