REMARK  Name = ZINC08153121
REMARK  9 active torsions:
REMARK  status: ('A' for Active; 'I' for Inactive)
REMARK    1  A    between atoms: C_1  and  C_2
REMARK    2  A    between atoms: C_6  and  N_9
REMARK    3  A    between atoms: C_7  and  C_8
REMARK    4  A    between atoms: C_10  and  C_12
REMARK    5  A    between atoms: C_12  and  N_57
REMARK    6  A    between atoms: C_13  and  N_57
REMARK    7  A    between atoms: C_14  and  C_15
REMARK    8  A    between atoms: C_14  and  N_57
REMARK    9  A    between atoms: N_17  and  C_18
REMARK                            x       y       z     vdW  Elec       q    Type
REMARK                         _______ _______ _______ _____ _____    ______ ____
ROOT
ATOM      1  C   UNL     1       2.438   0.292  -1.262  0.00  0.00    -0.095 C 
ATOM      2  N   UNL     1       2.403   1.023   0.022  0.00  0.00    +0.389 N 
ATOM      3  H   UNL     1       2.272   0.349   0.786  0.00  0.00    -0.081 HD
ENDROOT
BRANCH   2   4
ATOM      4  C   UNL     1       3.678   1.742   0.229  0.00  0.00    +0.019 C 
BRANCH   4   6
ATOM      5  N   UNL     1       6.038   1.147   0.668  0.00  0.00    -0.287 N 
ATOM      6  C   UNL     1       4.777   0.732   0.439  0.00  0.00    +0.201 C 
ATOM      7  O   UNL     1       4.526  -0.454   0.402  0.00  0.00    -0.278 OA
ATOM      8  H   UNL     1       6.255   2.091   0.618  0.00  0.00    +0.155 HD
BRANCH   5  14
ATOM      9  C   UNL     1      10.795  -0.093   0.735  0.00  0.00    +0.044 C 
ATOM     10  C   UNL     1       9.350  -0.411   1.020  0.00  0.00    -0.046 A 
ATOM     11  C   UNL     1       9.009  -1.625   1.588  0.00  0.00    +0.004 A 
ATOM     12  C   UNL     1       7.684  -1.921   1.851  0.00  0.00    +0.002 A 
ATOM     13  C   UNL     1       6.697  -1.004   1.547  0.00  0.00    +0.023 A 
ATOM     14  C   UNL     1       7.036   0.216   0.977  0.00  0.00    +0.036 A 
ATOM     15  C   UNL     1       8.367   0.508   0.709  0.00  0.00    -0.026 A 
ATOM     16  C   UNL     1       8.739   1.828   0.084  0.00  0.00    +0.046 C 
ENDBRANCH   5  14
ENDBRANCH   4   6
ENDBRANCH   2   4
BRANCH   2  17
ATOM     17  C   UNL     1       1.276   1.980   0.028  0.00  0.00    +0.019 C 
BRANCH  17  18
ATOM     18  C   UNL     1      -0.017   1.207   0.037  0.00  0.00    +0.197 C 
ATOM     19  O   UNL     1       0.000  -0.005   0.022  0.00  0.00    -0.278 OA
ATOM     20  N   UNL     1      -1.194   1.864   0.056  0.00  0.00    -0.310 N 
ATOM     21  H   UNL     1      -1.208   2.834   0.068  0.00  0.00    +0.149 HD
BRANCH  20  22
ATOM     22  C   UNL     1      -2.452   1.113   0.059  0.00  0.00    +0.103 C 
ATOM     23  C   UNL     1      -3.542   1.959   0.714  0.00  0.00    +0.027 C 
ATOM     24  C   UNL     1      -4.888   1.253   0.514  0.00  0.00    +0.007 C 
ATOM     25  C   UNL     1      -5.261   1.338  -0.965  0.00  0.00    +0.035 C 
ATOM     26  C   UNL     1      -4.120   0.865  -1.827  0.00  0.00    -0.042 A 
ATOM     27  C   UNL     1      -2.828   0.769  -1.359  0.00  0.00    -0.024 A 
ATOM     28  C   UNL     1      -1.819   0.339  -2.210  0.00  0.00    +0.006 A 
ATOM     29  C   UNL     1      -2.100   0.004  -3.518  0.00  0.00    +0.000 A 
ATOM     30  C   UNL     1      -3.397   0.096  -3.987  0.00  0.00    +0.000 A 
ATOM     31  C   UNL     1      -4.401   0.525  -3.143  0.00  0.00    +0.004 A 
ENDBRANCH  20  22
ENDBRANCH  17  18
ENDBRANCH   2  17
TORSDOF 6
