REMARK  Name = ZINC44971280
REMARK  5 active torsions:
REMARK  status: ('A' for Active; 'I' for Inactive)
REMARK    1  A    between atoms: C_6  and  C_7
REMARK    2  A    between atoms: C_7  and  N_8
REMARK    3  A    between atoms: N_11  and  C_12
REMARK    4  A    between atoms: C_12  and  C_13
REMARK    5  A    between atoms: C_13  and  N_18
REMARK                            x       y       z     vdW  Elec       q    Type
REMARK                         _______ _______ _______ _____ _____    ______ ____
ROOT
ATOM      1  N   UNL     1      -1.390  -1.417  -1.409  0.00  0.00    -0.294 N 
ATOM      2  C   UNL     1      -2.497  -2.151  -1.633  0.00  0.00    +0.300 C 
ATOM      3  O   UNL     1      -3.199  -2.495  -0.701  0.00  0.00    -0.253 OA
ATOM      4  N   UNL     1      -2.828  -2.504  -2.891  0.00  0.00    -0.301 N 
ATOM      5  H   UNL     1      -0.831  -1.143  -2.152  0.00  0.00    +0.151 HD
ATOM      6  H   UNL     1      -2.268  -2.230  -3.635  0.00  0.00    +0.150 HD
ENDROOT
BRANCH   1   7
ATOM      7  C   UNL     1      -1.031  -1.032  -0.041  0.00  0.00    +0.163 C 
BRANCH   7  13
ATOM      8  C   UNL     1       0.321   1.174  -0.086  0.00  0.00    +0.045 A 
ATOM      9  C   UNL     1       1.631   1.514  -0.103  0.00  0.00    +0.105 A 
ATOM     10  N   UNL     1       2.352   0.374  -0.093  0.00  0.00    -0.284 N 
ATOM     11  H   UNL     1       3.320   0.311  -0.101  0.00  0.00    +0.188 HD
ATOM     12  N   UNL     1       1.456  -0.703  -0.069  0.00  0.00    -0.177 NA
ATOM     13  C   UNL     1       0.240  -0.222  -0.065  0.00  0.00    +0.080 A 
ENDBRANCH   7  13
ENDBRANCH   1   7
BRANCH   4  14
ATOM     14  C   UNL     1      -4.032  -3.303  -3.136  0.00  0.00    +0.094 C 
BRANCH  14  15
ATOM     15  C   UNL     1      -4.242  -3.460  -4.643  0.00  0.00    -0.050 C 
ATOM     16  C   UNL     1      -4.452  -2.077  -5.294  0.00  0.00    -0.010 C 
ATOM     17  C   UNL     1      -5.513  -2.332  -6.394  0.00  0.00    -0.001 C 
ATOM     18  C   UNL     1      -6.462  -3.355  -5.722  0.00  0.00    -0.001 C 
ATOM     19  C   UNL     1      -5.521  -4.272  -4.915  0.00  0.00    -0.010 C 
BRANCH  15  20
ATOM     20  N   UNL     1      -3.082  -4.130  -5.245  0.00  0.00    +0.386 N 
ATOM     21  C   UNL     1      -3.220  -4.110  -6.703  0.00  0.00    -0.067 C 
ATOM     22  C   UNL     1      -1.878  -4.457  -7.358  0.00  0.00    +0.050 C 
ATOM     23  S   UNL     1      -1.418  -6.146  -6.856  0.00  0.00    -0.164 S 
ATOM     24  C   UNL     1      -1.624  -6.094  -5.049  0.00  0.00    +0.050 C 
ATOM     25  C   UNL     1      -3.005  -5.502  -4.739  0.00  0.00    -0.067 C 
ATOM     26  H   UNL     1      -2.243  -3.634  -4.987  0.00  0.00    -0.081 HD
ENDBRANCH  15  20
ENDBRANCH  14  15
ENDBRANCH   4  14
TORSDOF 5
