REMARK  Name = ZINC62617536
REMARK  2 active torsions:
REMARK  status: ('A' for Active; 'I' for Inactive)
REMARK    1  A    between atoms: C_3  and  S_8
REMARK    2  A    between atoms: S_8  and  N_11
REMARK                            x       y       z     vdW  Elec       q    Type
REMARK                         _______ _______ _______ _____ _____    ______ ____
ROOT
ATOM      1  N   UNL     1       4.326   2.557   1.557  0.00  0.00    -0.172 NA
ATOM      2  C   UNL     1       3.878   3.746   2.301  0.00  0.00    +0.114 C 
ATOM      3  C   UNL     1       2.980   3.274   3.443  0.00  0.00    +0.052 C 
ATOM      4  C   UNL     1       3.616   2.131   4.189  0.00  0.00    -0.038 A 
ATOM      5  C   UNL     1       3.161   1.870   5.476  0.00  0.00    +0.053 A 
ATOM      6  C   UNL     1       3.692   0.829   6.216  0.00  0.00    +0.162 A 
ATOM      7  C   UNL     1       4.690   0.034   5.664  0.00  0.00    +0.162 A 
ATOM      8  C   UNL     1       5.145   0.299   4.385  0.00  0.00    +0.054 A 
ATOM      9  C   UNL     1       4.613   1.349   3.649  0.00  0.00    -0.025 A 
ATOM     10  C   UNL     1       5.169   1.593   2.272  0.00  0.00    +0.145 C 
ATOM     11  O   UNL     1       5.221  -1.004   6.366  0.00  0.00    -0.485 OA
ATOM     12  C   UNL     1       5.003  -1.004   7.781  0.00  0.00    +0.270 C 
ATOM     13  C   UNL     1       3.523  -0.688   8.038  0.00  0.00    +0.270 C 
ATOM     14  O   UNL     1       3.233   0.596   7.476  0.00  0.00    -0.485 OA
ENDROOT
BRANCH   1  15
ATOM     15  S   UNL     1       3.891   2.314  -0.023  0.00  0.00    +0.061 S 
ATOM     16  O   UNL     1       4.872   1.456  -0.587  0.00  0.00    -0.153 OA
ATOM     17  O   UNL     1       3.596   3.595  -0.564  0.00  0.00    -0.153 OA
BRANCH  15  20
ATOM     18  C   UNL     1      -0.017   1.378   0.010  0.00  0.00    +0.003 A 
ATOM     19  C   UNL     1       1.171   2.086   0.002  0.00  0.00    +0.028 A 
ATOM     20  C   UNL     1       2.378   1.412  -0.013  0.00  0.00    +0.107 A 
ATOM     21  C   UNL     1       2.398   0.029  -0.021  0.00  0.00    +0.048 A 
ATOM     22  C   UNL     1       1.210  -0.679  -0.013  0.00  0.00    +0.043 A 
ATOM     23  C   UNL     1       0.002  -0.004   0.002  0.00  0.00    +0.020 A 
ATOM     24 CL   UNL     1       1.234  -2.415  -0.024  0.00  0.00    -0.083 Cl
ENDBRANCH  15  20
ENDBRANCH   1  15
TORSDOF 2
