REMARK  Name = ZINC08705604
REMARK  13 active torsions:
REMARK  status: ('A' for Active; 'I' for Inactive)
REMARK    1  A    between atoms: C_1  and  C_2
REMARK    2  A    between atoms: C_6  and  C_32
REMARK    3  A    between atoms: C_7  and  N_8
REMARK    4  A    between atoms: C_9  and  C_11
REMARK    5  A    between atoms: C_11  and  N_64
REMARK    6  A    between atoms: C_12  and  C_13
REMARK    7  A    between atoms: C_12  and  N_64
REMARK    8  A    between atoms: N_15  and  C_16
REMARK    9  A    between atoms: C_17  and  C_23
REMARK   10  A    between atoms: C_21  and  C_22
REMARK   11  A    between atoms: C_24  and  C_25
REMARK   12  A    between atoms: C_24  and  N_64
REMARK   13  A    between atoms: N_30  and  C_31
REMARK                            x       y       z     vdW  Elec       q    Type
REMARK                         _______ _______ _______ _____ _____    ______ ____
ROOT
ATOM      1  N   UNL     1      -3.356  -2.959  -3.218  0.00  0.00    +0.397 N 
ATOM      2  H   UNL     1      -4.013  -3.426  -3.853  0.00  0.00    -0.080 HD
ENDROOT
BRANCH   1   3
ATOM      3  C   UNL     1      -2.173  -2.521  -3.988  0.00  0.00    +0.020 C 
BRANCH   3   5
ATOM      4  N   UNL     1      -0.569  -3.549  -5.566  0.00  0.00    -0.287 N 
ATOM      5  C   UNL     1      -1.706  -3.664  -4.852  0.00  0.00    +0.201 C 
ATOM      6  O   UNL     1      -2.353  -4.689  -4.904  0.00  0.00    -0.278 OA
ATOM      7  H   UNL     1      -0.018  -2.756  -5.476  0.00  0.00    +0.155 HD
BRANCH   4  14
ATOM      8  C   UNL     1      -0.265  -6.173  -4.508  0.00  0.00    +0.045 C 
ATOM      9  C   UNL     1      -0.024  -5.868  -5.964  0.00  0.00    -0.029 A 
ATOM     10  C   UNL     1       0.352  -6.877  -6.829  0.00  0.00    +0.005 A 
ATOM     11  C   UNL     1       0.578  -6.597  -8.164  0.00  0.00    +0.001 A 
ATOM     12  C   UNL     1       0.425  -5.308  -8.638  0.00  0.00    +0.005 A 
ATOM     13  C   UNL     1       0.045  -4.295  -7.780  0.00  0.00    -0.029 A 
ATOM     14  C   UNL     1      -0.184  -4.573  -6.439  0.00  0.00    +0.039 A 
ATOM     15  C   UNL     1      -0.123  -2.890  -8.298  0.00  0.00    +0.045 C 
ENDBRANCH   4  14
ENDBRANCH   3   5
ENDBRANCH   1   3
BRANCH   1  16
ATOM     16  C   UNL     1      -2.948  -3.912  -2.164  0.00  0.00    +0.020 C 
BRANCH  16  17
ATOM     17  C   UNL     1      -4.184  -4.509  -1.543  0.00  0.00    +0.201 C 
ATOM     18  O   UNL     1      -5.282  -4.163  -1.925  0.00  0.00    -0.278 OA
ATOM     19  N   UNL     1      -4.071  -5.426  -0.562  0.00  0.00    -0.287 N 
ATOM     20  H   UNL     1      -3.195  -5.657  -0.214  0.00  0.00    +0.155 HD
BRANCH  19  21
ATOM     21  C   UNL     1      -5.215  -6.045  -0.047  0.00  0.00    +0.039 A 
ATOM     22  C   UNL     1      -5.638  -7.264  -0.560  0.00  0.00    -0.029 A 
ATOM     23  C   UNL     1      -6.765  -7.875  -0.046  0.00  0.00    +0.005 A 
ATOM     24  C   UNL     1      -7.478  -7.269   0.972  0.00  0.00    +0.001 A 
ATOM     25  C   UNL     1      -7.062  -6.052   1.482  0.00  0.00    +0.005 A 
ATOM     26  C   UNL     1      -5.933  -5.439   0.976  0.00  0.00    -0.029 A 
ATOM     27  C   UNL     1      -5.480  -4.114   1.532  0.00  0.00    +0.045 C 
ATOM     28  C   UNL     1      -4.865  -7.923  -1.674  0.00  0.00    +0.045 C 
ENDBRANCH  19  21
ENDBRANCH  16  17
ENDBRANCH   1  16
BRANCH   1  29
ATOM     29  C   UNL     1      -4.024  -1.790  -2.610  0.00  0.00    +0.020 C 
BRANCH  29  30
ATOM     30  C   UNL     1      -4.840  -1.095  -3.669  0.00  0.00    +0.204 C 
ATOM     31  O   UNL     1      -4.930  -1.577  -4.778  0.00  0.00    -0.277 OA
ATOM     32  N   UNL     1      -5.470   0.062  -3.385  0.00  0.00    -0.242 N 
ATOM     33  C   UNL     1      -6.281   0.631  -4.298  0.00  0.00    +0.306 C 
ATOM     34  O   UNL     1      -6.373   0.150  -5.411  0.00  0.00    -0.252 OA
ATOM     35  N   UNL     1      -6.989   1.732  -3.979  0.00  0.00    -0.302 N 
ATOM     36  C   UNL     1      -7.870   2.350  -4.972  0.00  0.00    +0.129 C 
ATOM     37  H   UNL     1      -5.339   0.486  -2.522  0.00  0.00    +0.159 HD
ATOM     38  H   UNL     1      -6.915   2.115  -3.091  0.00  0.00    +0.150 HD
ENDBRANCH  29  30
ENDBRANCH   1  29
TORSDOF 8
