REMARK  Name = ZINC35717541
REMARK  8 active torsions:
REMARK  status: ('A' for Active; 'I' for Inactive)
REMARK    1  A    between atoms: C_1  and  N_2
REMARK    2  A    between atoms: N_2  and  C_3
REMARK    3  A    between atoms: N_2  and  C_9
REMARK    4  A    between atoms: C_3  and  C_4
REMARK    5  A    between atoms: C_9  and  C_10
REMARK    6  A    between atoms: N_12  and  C_13
REMARK    7  A    between atoms: C_18  and  C_19
REMARK    8  A    between atoms: C_19  and  N_21
REMARK                            x       y       z     vdW  Elec       q    Type
REMARK                         _______ _______ _______ _____ _____    ______ ____
ROOT
ATOM      1  C   UNL     1      -2.068  -0.319   1.304  0.00  0.00    +0.201 C 
ATOM      2  O   UNL     1      -1.359   0.082   2.202  0.00  0.00    -0.278 OA
ATOM      3  N   UNL     1      -3.396  -0.443   1.498  0.00  0.00    -0.286 N 
ATOM      4  H   UNL     1      -3.973  -0.698   0.760  0.00  0.00    +0.155 HD
ENDROOT
BRANCH   3   5
ATOM      5  C   UNL     1      -3.941  -0.206   2.758  0.00  0.00    +0.043 A 
ATOM      6  C   UNL     1      -3.611   0.949   3.455  0.00  0.00    +0.024 A 
ATOM      7  C   UNL     1      -4.152   1.182   4.703  0.00  0.00    +0.002 A 
ATOM      8  C   UNL     1      -5.027   0.269   5.270  0.00  0.00    +0.001 A 
ATOM      9  C   UNL     1      -5.366  -0.882   4.594  0.00  0.00    +0.012 A 
ATOM     10  C   UNL     1      -4.832  -1.129   3.327  0.00  0.00    +0.024 A 
BRANCH  10  11
ATOM     11  C   UNL     1      -5.196  -2.355   2.595  0.00  0.00    +0.079 C 
ATOM     12  S   UNL     1      -4.392  -2.751   1.136  0.00  0.00    -0.035 S 
BRANCH  11  13
ATOM     13  N   UNL     1      -6.161  -3.165   3.074  0.00  0.00    -0.352 N 
ATOM     14  H   UNL     1      -6.616  -2.940   3.901  0.00  0.00    +0.143 HD
ATOM     15  H   UNL     1      -6.400  -3.972   2.592  0.00  0.00    +0.143 HD
ENDBRANCH  11  13
ENDBRANCH  10  11
ENDBRANCH   3   5
BRANCH   1  16
ATOM     16  C   UNL     1      -1.465  -0.679  -0.029  0.00  0.00    +0.019 C 
BRANCH  16  18
ATOM     17  C   UNL     1       0.259   0.975   0.190  0.00  0.00    -0.095 C 
ATOM     18  N   UNL     1      -0.013  -0.458   0.015  0.00  0.00    +0.387 N 
ATOM     19  H   UNL     1       0.382  -0.973   0.788  0.00  0.00    -0.081 HD
BRANCH  18  20
ATOM     20  C   UNL     1       0.591  -0.921  -1.242  0.00  0.00    -0.035 C 
BRANCH  20  21
ATOM     21  C   UNL     1       2.091  -0.809  -1.149  0.00  0.00    -0.027 A 
ATOM     22  C   UNL     1       2.991  -1.726  -0.718  0.00  0.00    +0.009 A 
ATOM     23  C   UNL     1       4.334  -1.400  -0.722  0.00  0.00    +0.008 A 
ATOM     24  C   UNL     1       4.712  -0.173  -1.157  0.00  0.00    +0.045 A 
ATOM     25  S   UNL     1       3.144   0.564  -1.588  0.00  0.00    -0.103 S 
ENDBRANCH  20  21
ENDBRANCH  18  20
ENDBRANCH  16  18
ENDBRANCH   1  16
TORSDOF 7
