REMARK  Name = ZINC49650973
REMARK  6 active torsions:
REMARK  status: ('A' for Active; 'I' for Inactive)
REMARK    1  A    between atoms: C_1  and  C_2
REMARK    2  A    between atoms: C_2  and  C_4
REMARK    3  A    between atoms: C_2  and  N_20
REMARK    4  A    between atoms: C_4  and  N_6
REMARK    5  A    between atoms: C_9  and  C_12
REMARK    6  A    between atoms: C_23  and  C_26
REMARK                            x       y       z     vdW  Elec       q    Type
REMARK                         _______ _______ _______ _____ _____    ______ ____
ROOT
ATOM      1  C   UNL     1       0.433   1.456  -1.031  0.00  0.00    -0.004 C 
ATOM      2  C   UNL     1       0.105   0.021  -0.613  0.00  0.00    +0.018 C 
ENDROOT
BRANCH   2   3
ATOM      3  N   UNL     1      -0.034  -0.819  -1.810  0.00  0.00    +0.387 N 
ATOM      4  C   UNL     1      -1.103  -0.283  -2.660  0.00  0.00    -0.077 C 
ATOM      5  C   UNL     1      -1.198  -1.106  -3.946  0.00  0.00    -0.006 C 
ATOM      6  C   UNL     1      -1.508  -2.563  -3.592  0.00  0.00    +0.072 C 
ATOM      7  C   UNL     1      -0.425  -3.089  -2.645  0.00  0.00    -0.006 C 
ATOM      8  C   UNL     1      -0.359  -2.192  -1.407  0.00  0.00    -0.077 C 
ATOM      9  H   UNL     1       0.835  -0.817  -2.324  0.00  0.00    -0.081 HD
BRANCH   6  10
ATOM     10  C   UNL     1      -1.526  -3.395  -4.848  0.00  0.00    +0.219 C 
ATOM     11  O   UNL     1      -0.962  -2.998  -5.846  0.00  0.00    -0.275 OA
ATOM     12  N   UNL     1      -2.168  -4.579  -4.863  0.00  0.00    -0.301 N 
ATOM     13  C   UNL     1      -2.248  -5.309  -6.109  0.00  0.00    +0.108 C 
ATOM     14  C   UNL     1      -3.517  -4.875  -6.884  0.00  0.00    +0.019 C 
ATOM     15  C   UNL     1      -4.723  -5.391  -6.219  0.00  0.00    +0.002 C 
ATOM     16  C   UNL     1      -4.941  -4.855  -4.808  0.00  0.00    +0.002 C 
ATOM     17  C   UNL     1      -4.156  -5.691  -3.828  0.00  0.00    +0.019 C 
ATOM     18  C   UNL     1      -2.756  -5.082  -3.606  0.00  0.00    +0.108 C 
ENDBRANCH   6  10
ENDBRANCH   2   3
BRANCH   2  19
ATOM     19  C   UNL     1       1.217  -0.516   0.252  0.00  0.00    +0.225 C 
ATOM     20  O   UNL     1       2.154  -1.101  -0.257  0.00  0.00    -0.275 OA
BRANCH  19  21
ATOM     21  N   UNL     1       1.173  -0.351   1.568  0.00  0.00    -0.158 NA
ATOM     22  C   UNL     1       2.157  -0.827   2.333  0.00  0.00    +0.163 A 
ATOM     23  N   UNL     1       2.280  -0.758   3.685  0.00  0.00    -0.335 N 
ATOM     24  C   UNL     1       3.379  -1.316   4.276  0.00  0.00    +0.055 A 
ATOM     25  C   UNL     1       4.279  -1.905   3.458  0.00  0.00    +0.074 A 
ATOM     26  S   UNL     1       3.537  -1.660   1.855  0.00  0.00    -0.060 S 
ATOM     27  H   UNL     1       1.600  -0.321   4.221  0.00  0.00    +0.168 HD
BRANCH  24  28
ATOM     28  C   UNL     1       3.574  -1.276   5.742  0.00  0.00    +0.002 A 
ATOM     29  C   UNL     1       2.623  -0.664   6.559  0.00  0.00    +0.013 A 
ATOM     30  C   UNL     1       2.808  -0.629   7.925  0.00  0.00    +0.042 A 
ATOM     31  C   UNL     1       3.938  -1.200   8.489  0.00  0.00    +0.158 A 
ATOM     32  C   UNL     1       4.888  -1.810   7.682  0.00  0.00    +0.159 A 
ATOM     33  C   UNL     1       4.708  -1.856   6.313  0.00  0.00    +0.051 A 
ATOM     34  F   UNL     1       5.988  -2.365   8.237  0.00  0.00    -0.202 F 
ATOM     35  F   UNL     1       4.115  -1.163   9.828  0.00  0.00    -0.202 F 
ENDBRANCH  24  28
ENDBRANCH  19  21
ENDBRANCH   2  19
TORSDOF 5
