REMARK  Name = ZINC63406488
REMARK  6 active torsions:
REMARK  status: ('A' for Active; 'I' for Inactive)
REMARK    1  A    between atoms: C_1  and  N_2
REMARK    2  A    between atoms: C_3  and  C_5
REMARK    3  A    between atoms: C_8  and  N_11
REMARK    4  A    between atoms: N_14  and  C_15
REMARK    5  A    between atoms: C_15  and  C_16
REMARK    6  A    between atoms: C_16  and  N_21
REMARK                            x       y       z     vdW  Elec       q    Type
REMARK                         _______ _______ _______ _____ _____    ______ ____
ROOT
ATOM      1  N   UNL     1       3.472  -4.638  -1.026  0.00  0.00    -0.297 N 
ATOM      2  C   UNL     1       4.479  -5.196  -1.728  0.00  0.00    +0.300 C 
ATOM      3  O   UNL     1       4.289  -6.223  -2.351  0.00  0.00    -0.253 OA
ATOM      4  N   UNL     1       5.695  -4.616  -1.738  0.00  0.00    -0.301 N 
ATOM      5  H   UNL     1       3.623  -3.819  -0.529  0.00  0.00    +0.151 HD
ATOM      6  H   UNL     1       5.846  -3.796  -1.241  0.00  0.00    +0.150 HD
ENDROOT
BRANCH   1  10
ATOM      7  C   UNL     1       0.448  -2.886  -0.929  0.00  0.00    +0.075 C 
ATOM      8  C   UNL     1       1.243  -3.345   0.295  0.00  0.00    +0.014 C 
ATOM      9  C   UNL     1       1.403  -4.866   0.258  0.00  0.00    +0.023 C 
ATOM     10  C   UNL     1       2.150  -5.269  -1.015  0.00  0.00    +0.074 C 
ATOM     11  C   UNL     1       1.355  -4.810  -2.239  0.00  0.00    +0.023 C 
ATOM     12  C   UNL     1       1.195  -3.289  -2.202  0.00  0.00    +0.014 C 
BRANCH   7  15
ATOM     13  C   UNL     1      -0.495   0.655   0.179  0.00  0.00    +0.128 C 
ATOM     14  N   UNL     1      -0.341  -0.801   0.144  0.00  0.00    -0.318 N 
ATOM     15  C   UNL     1       0.290  -1.387  -0.893  0.00  0.00    +0.216 C 
ATOM     16  O   UNL     1       0.732  -0.709  -1.796  0.00  0.00    -0.276 OA
ATOM     17  H   UNL     1      -0.694  -1.344   0.866  0.00  0.00    +0.148 HD
ENDBRANCH   7  15
ENDBRANCH   1  10
BRANCH   4  18
ATOM     18  C   UNL     1       6.789  -5.222  -2.501  0.00  0.00    +0.094 C 
BRANCH  18  19
ATOM     19  C   UNL     1       8.051  -4.371  -2.346  0.00  0.00    -0.050 C 
ATOM     20  C   UNL     1       9.230  -5.033  -3.090  0.00  0.00    -0.010 C 
ATOM     21  C   UNL     1       9.252  -4.330  -4.469  0.00  0.00    -0.001 C 
ATOM     22  C   UNL     1       8.898  -2.865  -4.112  0.00  0.00    -0.001 C 
ATOM     23  C   UNL     1       7.841  -2.992  -2.996  0.00  0.00    -0.010 C 
BRANCH  19  24
ATOM     24  N   UNL     1       8.379  -4.212  -0.923  0.00  0.00    +0.386 N 
ATOM     25  C   UNL     1       9.570  -3.370  -0.796  0.00  0.00    -0.067 C 
ATOM     26  C   UNL     1       9.713  -2.885   0.652  0.00  0.00    +0.050 C 
ATOM     27  S   UNL     1       9.933  -4.341   1.722  0.00  0.00    -0.164 S 
ATOM     28  C   UNL     1       8.569  -5.428   1.199  0.00  0.00    +0.050 C 
ATOM     29  C   UNL     1       8.597  -5.533  -0.330  0.00  0.00    -0.067 C 
ATOM     30  H   UNL     1       7.606  -3.763  -0.454  0.00  0.00    -0.081 HD
ENDBRANCH  19  24
ENDBRANCH  18  19
ENDBRANCH   4  18
TORSDOF 5
