REMARK  Name = ZINC13740431
REMARK  8 active torsions:
REMARK  status: ('A' for Active; 'I' for Inactive)
REMARK    1  A    between atoms: C_1  and  C_2
REMARK    2  A    between atoms: N_11  and  C_14
REMARK    3  A    between atoms: C_14  and  C_15
REMARK    4  A    between atoms: C_15  and  C_16
REMARK    5  A    between atoms: C_17  and  C_38
REMARK    6  A    between atoms: C_22  and  C_28
REMARK    7  A    between atoms: C_28  and  C_30
REMARK    8  A    between atoms: C_31  and  C_32
REMARK                            x       y       z     vdW  Elec       q    Type
REMARK                         _______ _______ _______ _____ _____    ______ ____
ROOT
ATOM      1  C   UNL     1      -1.389  -2.042   0.255  0.00  0.00    -0.018 A 
ATOM      2  C   UNL     1      -1.583  -2.840  -0.820  0.00  0.00    +0.020 A 
ATOM      3  N   UNL     1      -1.492  -4.144  -0.458  0.00  0.00    -0.344 N 
ATOM      4  C   UNL     1      -1.234  -4.207   0.898  0.00  0.00    +0.053 A 
ATOM      5  C   UNL     1      -1.161  -2.912   1.410  0.00  0.00    +0.004 A 
ATOM      6  C   UNL     1      -0.911  -2.767   2.772  0.00  0.00    +0.022 A 
ATOM      7  C   UNL     1      -0.747  -3.909   3.558  0.00  0.00    +0.023 A 
ATOM      8  C   UNL     1      -0.825  -5.202   3.006  0.00  0.00    +0.017 A 
ATOM      9  C   UNL     1      -1.067  -5.349   1.682  0.00  0.00    -0.023 A 
ATOM     10  C   UNL     1      -1.175  -6.661   0.950  0.00  0.00    +0.039 C 
ATOM     11  C   UNL     1      -2.099  -6.495  -0.261  0.00  0.00    +0.026 C 
ATOM     12  C   UNL     1      -1.623  -5.395  -1.216  0.00  0.00    +0.122 C 
ATOM     13  C   UNL     1      -1.857  -2.350  -2.218  0.00  0.00    +0.064 C 
ENDROOT
BRANCH   7  14
ATOM     14  C   UNL     1      -0.484  -3.757   5.004  0.00  0.00    +0.186 C 
ATOM     15  O   UNL     1      -0.413  -2.646   5.496  0.00  0.00    -0.287 OA
BRANCH  14  16
ATOM     16  C   UNL     1      -0.308  -4.942   5.843  0.00  0.00    +0.052 C 
ATOM     17  C   UNL     1      -0.068  -4.803   7.165  0.00  0.00    +0.011 C 
BRANCH  17  18
ATOM     18  C   UNL     1       0.109  -5.995   8.010  0.00  0.00    -0.025 A 
ATOM     19  C   UNL     1       0.023  -7.273   7.449  0.00  0.00    +0.008 A 
ATOM     20  C   UNL     1       0.196  -8.385   8.246  0.00  0.00    +0.001 A 
ATOM     21  C   UNL     1       0.442  -8.238   9.600  0.00  0.00    +0.000 A 
ATOM     22  C   UNL     1       0.523  -6.977  10.164  0.00  0.00    +0.001 A 
ATOM     23  C   UNL     1       0.358  -5.855   9.379  0.00  0.00    +0.008 A 
ENDBRANCH  17  18
ENDBRANCH  14  16
ENDBRANCH   7  14
BRANCH   1  24
ATOM     24  C   UNL     1      -1.409  -0.535   0.263  0.00  0.00    +0.053 C 
BRANCH  24  25
ATOM     25  C   UNL     1       0.002  -0.004   0.002  0.00  0.00    +0.089 C 
BRANCH  25  36
ATOM     26  C   UNL     1      -0.955   8.297  -3.065  0.00  0.00    +0.044 C 
ATOM     27  C   UNL     1      -0.218   7.517  -2.007  0.00  0.00    -0.046 A 
ATOM     28  C   UNL     1       0.466   8.171  -0.990  0.00  0.00    +0.021 A 
ATOM     29  C   UNL     1       1.131   7.427  -0.036  0.00  0.00    +0.084 A 
ATOM     30  N   UNL     1       1.124   6.108  -0.080  0.00  0.00    -0.350 N 
ATOM     31  C   UNL     1       0.484   5.449  -1.033  0.00  0.00    +0.099 A 
ATOM     32  C   UNL     1      -0.202   6.135  -2.030  0.00  0.00    +0.045 A 
ATOM     33  N   UNL     1       0.503   4.059  -1.041  0.00  0.00    -0.314 N 
ATOM     34  C   UNL     1       1.284   3.537   0.089  0.00  0.00    +0.122 C 
ATOM     35  C   UNL     1       1.347   2.010   0.000  0.00  0.00    +0.103 C 
ATOM     36  N   UNL     1      -0.018   1.465   0.010  0.00  0.00    -0.299 NA
ATOM     37  C   UNL     1      -0.799   1.987  -1.120  0.00  0.00    +0.103 C 
ATOM     38  C   UNL     1      -0.862   3.514  -1.031  0.00  0.00    +0.122 C 
ATOM     39  H   UNL     1       1.658   5.530   0.688  0.00  0.00    +0.166 HD
ENDBRANCH  25  36
ENDBRANCH  24  25
ENDBRANCH   1  24
TORSDOF 6
