REMARK  Name = ZINC36969915
REMARK  9 active torsions:
REMARK  status: ('A' for Active; 'I' for Inactive)
REMARK    1  A    between atoms: C_1  and  C_2
REMARK    2  A    between atoms: C_2  and  N_3
REMARK    3  A    between atoms: N_3  and  C_4
REMARK    4  A    between atoms: N_3  and  C_6
REMARK    5  A    between atoms: C_4  and  C_5
REMARK    6  A    between atoms: C_6  and  C_7
REMARK    7  A    between atoms: C_7  and  O_8
REMARK    8  A    between atoms: O_8  and  C_9
REMARK    9  A    between atoms: C_12  and  N_16
REMARK                            x       y       z     vdW  Elec       q    Type
REMARK                         _______ _______ _______ _____ _____    ______ ____
ROOT
ATOM      1  C   UNL     1       4.136  -1.550  -1.128  0.00  0.00    +0.148 A 
ATOM      2  C   UNL     1       5.050  -2.594  -1.159  0.00  0.00    +0.062 A 
ATOM      3  C   UNL     1       5.942  -2.699  -2.209  0.00  0.00    +0.041 A 
ATOM      4  C   UNL     1       5.925  -1.761  -3.232  0.00  0.00    +0.027 A 
ATOM      5  C   UNL     1       5.010  -0.717  -3.201  0.00  0.00    +0.041 A 
ATOM      6  C   UNL     1       4.114  -0.616  -2.153  0.00  0.00    +0.062 A 
ATOM      7 BR   UNL     1       2.862   0.802  -2.114  0.00  0.00    -0.046 Br
ATOM      8 BR   UNL     1       5.074  -3.871   0.235  0.00  0.00    -0.046 Br
ENDROOT
BRANCH   4   9
ATOM      9  N   UNL     1       6.829  -1.868  -4.295  0.00  0.00    -0.358 N 
ATOM     10  H   UNL     1       7.468  -2.597  -4.317  0.00  0.00    +0.142 HD
ATOM     11  H   UNL     1       6.816  -1.212  -5.010  0.00  0.00    +0.142 HD
ENDBRANCH   4   9
BRANCH   1  12
ATOM     12  O   UNL     1       3.257  -1.446  -0.095  0.00  0.00    -0.492 OA
BRANCH  12  13
ATOM     13  C   UNL     1       2.003  -2.116  -0.239  0.00  0.00    +0.211 C 
BRANCH  13  14
ATOM     14  C   UNL     1       1.155  -1.887   1.013  0.00  0.00    -0.037 C 
BRANCH  14  15
ATOM     15  N   UNL     1       0.823  -0.461   1.126  0.00  0.00    +0.382 N 
ATOM     16  H   UNL     1       1.671   0.084   1.109  0.00  0.00    -0.082 HD
BRANCH  15  18
ATOM     17  C   UNL     1      -0.265   1.444   0.038  0.00  0.00    -0.017 C 
ATOM     18  C   UNL     1      -0.034  -0.068  -0.001  0.00  0.00    -0.082 C 
ENDBRANCH  15  18
BRANCH  15  19
ATOM     19  C   UNL     1       0.111  -0.222   2.389  0.00  0.00    -0.082 C 
ATOM     20  C   UNL     1       1.053  -0.495   3.563  0.00  0.00    -0.017 C 
ENDBRANCH  15  19
ENDBRANCH  14  15
ENDBRANCH  13  14
ENDBRANCH  12  13
ENDBRANCH   1  12
TORSDOF 7
