REMARK  Name = ZINC32793438
REMARK  11 active torsions:
REMARK  status: ('A' for Active; 'I' for Inactive)
REMARK    1  A    between atoms: C_1  and  C_2
REMARK    2  A    between atoms: C_2  and  C_4
REMARK    3  A    between atoms: C_2  and  N_12
REMARK    4  A    between atoms: C_9  and  O_10
REMARK    5  A    between atoms: O_10  and  C_11
REMARK    6  A    between atoms: N_12  and  C_13
REMARK    7  A    between atoms: C_13  and  C_15
REMARK    8  A    between atoms: C_13  and  C_16
REMARK    9  A    between atoms: N_18  and  C_19
REMARK   10  A    between atoms: C_22  and  S_25
REMARK   11  A    between atoms: S_25  and  N_28
REMARK                            x       y       z     vdW  Elec       q    Type
REMARK                         _______ _______ _______ _____ _____    ______ ____
ROOT
ATOM      1  C   UNL     1      -1.255   3.412   0.128  0.00  0.00    +0.203 C 
ATOM      2  O   UNL     1      -0.215   4.035   0.127  0.00  0.00    -0.277 OA
ATOM      3  N   UNL     1      -1.237   2.069   0.019  0.00  0.00    -0.287 N 
ATOM      4  H   UNL     1      -2.181   1.511  -0.067  0.00  0.00    +0.155 HD
ENDROOT
BRANCH   3   5
ATOM      5  C   UNL     1      -0.017   1.384   0.015  0.00  0.00    +0.033 A 
ATOM      6  C   UNL     1       0.126   0.222  -0.732  0.00  0.00    +0.025 A 
ATOM      7  C   UNL     1       1.331  -0.454  -0.730  0.00  0.00    +0.030 A 
ATOM      8  C   UNL     1       2.392   0.023   0.017  0.00  0.00    +0.105 A 
ATOM      9  C   UNL     1       2.252   1.180   0.762  0.00  0.00    +0.030 A 
ATOM     10  C   UNL     1       1.051   1.861   0.763  0.00  0.00    +0.025 A 
BRANCH   8  11
ATOM     11  S   UNL     1       3.927  -0.843   0.017  0.00  0.00    +0.056 S 
ATOM     12  O   UNL     1       3.970  -1.593  -1.189  0.00  0.00    -0.153 OA
ATOM     13  O   UNL     1       4.928   0.105   0.361  0.00  0.00    -0.153 OA
BRANCH  11  14
ATOM     14  N   UNL     1       3.869  -1.941   1.256  0.00  0.00    -0.204 NA
ATOM     15  H   UNL     1       4.812  -2.505   1.290  0.00  0.00    +0.144 HD
ATOM     16  H   UNL     1       3.032  -2.636   1.091  0.00  0.00    +0.144 HD
ENDBRANCH  11  14
ENDBRANCH   8  11
ENDBRANCH   3   5
BRANCH   1  17
ATOM     17  C   UNL     1      -2.569   4.140   0.252  0.00  0.00    +0.014 C 
ATOM     18  C   UNL     1      -3.427   3.858  -0.983  0.00  0.00    -0.004 C 
BRANCH  17  19
ATOM     19  N   UNL     1      -2.321   5.585   0.356  0.00  0.00    +0.391 N 
ATOM     20  H   UNL     1      -2.215   5.998  -0.658  0.00  0.00    -0.084 HD
ATOM     21  H   UNL     1      -1.387   5.742   0.916  0.00  0.00    -0.084 HD
BRANCH  19  23
ATOM     22  C   UNL     1      -3.208   6.180   2.559  0.00  0.00    -0.009 C 
ATOM     23  C   UNL     1      -3.426   6.261   1.047  0.00  0.00    -0.039 C 
BRANCH  23  24
ATOM     24  C   UNL     1      -3.476   7.706   0.623  0.00  0.00    -0.020 A 
ATOM     25  C   UNL     1      -2.360   8.301   0.067  0.00  0.00    +0.005 A 
ATOM     26  C   UNL     1      -2.406   9.626  -0.327  0.00  0.00    +0.000 A 
ATOM     27  C   UNL     1      -3.565  10.360  -0.157  0.00  0.00    +0.004 A 
ATOM     28  C   UNL     1      -4.682   9.771   0.404  0.00  0.00    +0.046 A 
ATOM     29  C   UNL     1      -4.640   8.440   0.795  0.00  0.00    +0.122 A 
BRANCH  29  30
ATOM     30  O   UNL     1      -5.737   7.858   1.346  0.00  0.00    -0.495 OA
ATOM     31  C   UNL     1      -6.900   8.675   1.493  0.00  0.00    +0.277 C 
ENDBRANCH  29  30
ENDBRANCH  23  24
ENDBRANCH  19  23
ENDBRANCH  17  19
ENDBRANCH   1  17
TORSDOF 8
