REMARK  Name = ZINC42561631
REMARK  11 active torsions:
REMARK  status: ('A' for Active; 'I' for Inactive)
REMARK    1  A    between atoms: C_1  and  C_2
REMARK    2  A    between atoms: C_2  and  C_4
REMARK    3  A    between atoms: C_2  and  N_8
REMARK    4  A    between atoms: C_4  and  C_5
REMARK    5  A    between atoms: C_5  and  C_6
REMARK    6  A    between atoms: C_5  and  C_7
REMARK    7  A    between atoms: N_8  and  C_9
REMARK    8  A    between atoms: N_8  and  C_10
REMARK    9  A    between atoms: C_10  and  C_11
REMARK   10  A    between atoms: N_13  and  C_14
REMARK   11  A    between atoms: C_15  and  N_22
REMARK                            x       y       z     vdW  Elec       q    Type
REMARK                         _______ _______ _______ _____ _____    ______ ____
ROOT
ATOM      1  C   UNL     1      -2.789  -2.015  -0.322  0.00  0.00    +0.201 C 
ATOM      2  O   UNL     1      -3.520  -1.355  -1.030  0.00  0.00    -0.278 OA
ATOM      3  N   UNL     1      -3.314  -2.888   0.561  0.00  0.00    -0.284 N 
ATOM      4  H   UNL     1      -2.734  -3.365   1.174  0.00  0.00    +0.155 HD
ENDROOT
BRANCH   3   5
ATOM      5  C   UNL     1      -4.699  -3.106   0.592  0.00  0.00    +0.073 A 
ATOM      6  C   UNL     1      -5.202  -4.407   0.582  0.00  0.00    +0.049 A 
ATOM      7  C   UNL     1      -6.573  -4.617   0.614  0.00  0.00    +0.044 A 
ATOM      8  C   UNL     1      -7.437  -3.537   0.653  0.00  0.00    +0.044 A 
ATOM      9  C   UNL     1      -6.938  -2.247   0.662  0.00  0.00    +0.042 A 
ATOM     10  C   UNL     1      -5.572  -2.029   0.637  0.00  0.00    +0.065 A 
ATOM     11 CL   UNL     1      -4.951  -0.408   0.656  0.00  0.00    -0.082 Cl
ATOM     12 CL   UNL     1      -9.152  -3.803   0.692  0.00  0.00    -0.083 Cl
BRANCH   6  13
ATOM     13  N   UNL     1      -4.326  -5.497   0.542  0.00  0.00    -0.356 N 
ATOM     14  H   UNL     1      -3.368  -5.349   0.520  0.00  0.00    +0.142 HD
ATOM     15  H   UNL     1      -4.678  -6.401   0.535  0.00  0.00    +0.142 HD
ENDBRANCH   6  13
ENDBRANCH   3   5
BRANCH   1  16
ATOM     16  C   UNL     1      -1.294  -1.858  -0.428  0.00  0.00    +0.019 C 
BRANCH  16  17
ATOM     17  N   UNL     1      -0.978  -0.854  -1.453  0.00  0.00    +0.385 N 
ATOM     18  C   UNL     1      -1.394  -1.353  -2.771  0.00  0.00    -0.095 C 
ATOM     19  H   UNL     1      -1.470   0.003  -1.247  0.00  0.00    -0.081 HD
BRANCH  17  21
ATOM     20  C   UNL     1       0.790   0.488  -2.487  0.00  0.00    -0.013 C 
ATOM     21  C   UNL     1       0.469  -0.600  -1.460  0.00  0.00    -0.071 C 
BRANCH  21  22
ATOM     22  C   UNL     1       0.912  -0.137  -0.071  0.00  0.00    -0.013 C 
BRANCH  22  23
ATOM     23  C   UNL     1       2.430   0.051  -0.056  0.00  0.00    -0.019 C 
ATOM     24  C   UNL     1       2.857   0.646   1.287  0.00  0.00    +0.007 C 
ATOM     25  C   UNL     1       3.113  -1.304  -0.253  0.00  0.00    +0.007 C 
ENDBRANCH  22  23
ENDBRANCH  21  22
ENDBRANCH  17  21
ENDBRANCH  16  17
ENDBRANCH   1  16
TORSDOF 7
