REMARK  Name = ZINC44584927
REMARK  4 active torsions:
REMARK  status: ('A' for Active; 'I' for Inactive)
REMARK    1  A    between atoms: C_1  and  C_2
REMARK    2  A    between atoms: C_4  and  C_7
REMARK    3  A    between atoms: C_12  and  C_15
REMARK    4  A    between atoms: C_19  and  N_21
REMARK                            x       y       z     vdW  Elec       q    Type
REMARK                         _______ _______ _______ _____ _____    ______ ____
ROOT
ATOM      1  C   UNL     1       0.040  -3.307  -1.602  0.00  0.00    +0.288 C 
ATOM      2  O   UNL     1       0.033  -3.175  -2.810  0.00  0.00    -0.266 OA
ATOM      3  N   UNL     1       0.060  -4.540  -1.059  0.00  0.00    -0.258 N 
ATOM      4  C   UNL     1       0.072  -5.660  -1.879  0.00  0.00    +0.165 A 
ATOM      5  N   UNL     1       0.086  -6.938  -1.548  0.00  0.00    -0.225 NA
ATOM      6  C   UNL     1       0.095  -7.887  -2.472  0.00  0.00    +0.080 A 
ATOM      7  C   UNL     1       0.090  -7.537  -3.794  0.00  0.00    +0.076 A 
ATOM      8  S   UNL     1       0.064  -5.754  -3.664  0.00  0.00    -0.060 S 
ATOM      9  H   UNL     1       0.066  -4.646  -0.094  0.00  0.00    +0.157 HD
ENDROOT
BRANCH   1  13
ATOM     10  C   UNL     1      -0.018   1.503   0.010  0.00  0.00    +0.069 C 
ATOM     11  C   UNL     1       0.002  -0.004   0.002  0.00  0.00    +0.081 A 
ATOM     12  C   UNL     1       0.008  -0.821  -1.141  0.00  0.00    +0.080 A 
ATOM     13  C   UNL     1       0.028  -2.118  -0.730  0.00  0.00    +0.222 A 
ATOM     14  O   UNL     1       0.034  -2.120   0.618  0.00  0.00    -0.350 OA
ATOM     15  N   UNL     1       0.023  -0.772   1.054  0.00  0.00    -0.083 NA
ENDBRANCH   1  13
BRANCH   6  16
ATOM     16  C   UNL     1       0.111  -9.316  -2.076  0.00  0.00    +0.003 A 
ATOM     17  C   UNL     1       0.127 -10.312  -3.053  0.00  0.00    +0.010 A 
ATOM     18  C   UNL     1       0.142 -11.642  -2.683  0.00  0.00    +0.002 A 
ATOM     19  C   UNL     1       0.141 -11.992  -1.346  0.00  0.00    +0.023 A 
ATOM     20  C   UNL     1       0.125 -11.006  -0.366  0.00  0.00    +0.025 A 
ATOM     21  C   UNL     1       0.116  -9.668  -0.729  0.00  0.00    +0.032 A 
BRANCH  20  22
ATOM     22  N   UNL     1       0.123 -11.364   0.984  0.00  0.00    -0.358 N 
ATOM     23  H   UNL     1       0.133 -12.300   1.238  0.00  0.00    +0.142 HD
ATOM     24  H   UNL     1       0.112 -10.676   1.668  0.00  0.00    +0.142 HD
ENDBRANCH  20  22
ENDBRANCH   6  16
TORSDOF 3
