REMARK  Name = ZINC39655252
REMARK  6 active torsions:
REMARK  status: ('A' for Active; 'I' for Inactive)
REMARK    1  A    between atoms: C_4  and  N_7
REMARK    2  A    between atoms: N_7  and  C_8
REMARK    3  A    between atoms: C_8  and  C_9
REMARK    4  A    between atoms: C_9  and  N_10
REMARK    5  A    between atoms: C_11  and  C_13
REMARK    6  A    between atoms: C_24  and  C_26
REMARK                            x       y       z     vdW  Elec       q    Type
REMARK                         _______ _______ _______ _____ _____    ______ ____
ROOT
ATOM      1  C   UNL     1       6.446  -5.901   0.465  0.00  0.00    +0.100 C 
ATOM      2  C   UNL     1       5.781  -6.694   1.611  0.00  0.00    +0.121 C 
ATOM      3  N   UNL     1       6.641  -7.888   1.788  0.00  0.00    -0.296 N 
ATOM      4  C   UNL     1       8.022  -7.376   1.621  0.00  0.00    +0.115 C 
ATOM      5  C   UNL     1       7.917  -6.350   0.475  0.00  0.00    -0.004 C 
ATOM      6  C   UNL     1       8.831  -5.159   0.749  0.00  0.00    -0.010 C 
ATOM      7  C   UNL     1      10.291  -5.620   0.696  0.00  0.00    -0.082 C 
ATOM      8  N   UNL     1      10.579  -6.190  -0.625  0.00  0.00    +0.379 N 
ATOM      9  C   UNL     1       9.761  -7.390  -0.842  0.00  0.00    -0.082 C 
ATOM     10  C   UNL     1       8.279  -7.004  -0.854  0.00  0.00    -0.010 C 
ATOM     11  C   UNL     1       6.255  -9.154   2.043  0.00  0.00    +0.247 C 
ATOM     12  O   UNL     1       5.074  -9.444   2.027  0.00  0.00    -0.270 OA
ATOM     13  H   UNL     1      10.368  -5.508  -1.338  0.00  0.00    -0.086 HD
ATOM     14  H   UNL     1      11.556  -6.437  -0.678  0.00  0.00    -0.086 HD
ENDROOT
BRANCH  11  15
ATOM     15  C   UNL     1       7.266 -10.189   2.342  0.00  0.00    +0.037 A 
ATOM     16  C   UNL     1       8.538  -9.808   2.805  0.00  0.00    +0.013 A 
ATOM     17  C   UNL     1       9.484 -10.740   3.087  0.00  0.00    +0.009 A 
ATOM     18  C   UNL     1       9.198 -12.107   2.917  0.00  0.00    -0.018 A 
ATOM     19  C   UNL     1      10.160 -13.090   3.202  0.00  0.00    +0.008 A 
ATOM     20  C   UNL     1       9.854 -14.405   3.028  0.00  0.00    +0.001 A 
ATOM     21  C   UNL     1       8.598 -14.795   2.569  0.00  0.00    +0.001 A 
ATOM     22  C   UNL     1       7.639 -13.872   2.283  0.00  0.00    +0.008 A 
ATOM     23  C   UNL     1       7.919 -12.504   2.451  0.00  0.00    -0.017 A 
ATOM     24  C   UNL     1       6.952 -11.527   2.170  0.00  0.00    +0.021 A 
ENDBRANCH  11  15
BRANCH   1  26
ATOM     25  N   UNL     1       6.286  -3.556  -0.306  0.00  0.00    -0.314 N 
ATOM     26  C   UNL     1       6.348  -4.420   0.727  0.00  0.00    +0.218 C 
ATOM     27  O   UNL     1       6.325  -4.005   1.866  0.00  0.00    -0.275 OA
ATOM     28  H   UNL     1       6.305  -3.887  -1.218  0.00  0.00    +0.149 HD
BRANCH  25  29
ATOM     29  C   UNL     1       6.191  -2.116  -0.052  0.00  0.00    +0.123 C 
BRANCH  29  30
ATOM     30  C   UNL     1       6.135  -1.365  -1.384  0.00  0.00    +0.120 C 
BRANCH  30  31
ATOM     31  N   UNL     1       6.040   0.074  -1.130  0.00  0.00    -0.342 N 
ATOM     32  H   UNL     1       6.021   0.406  -0.218  0.00  0.00    +0.146 HD
BRANCH  31  36
ATOM     33  C   UNL     1       5.848   2.744  -4.319  0.00  0.00    +0.000 A 
ATOM     34  C   UNL     1       5.822   3.218  -3.021  0.00  0.00    +0.002 A 
ATOM     35  C   UNL     1       5.885   2.335  -1.960  0.00  0.00    +0.023 A 
ATOM     36  C   UNL     1       5.975   0.970  -2.200  0.00  0.00    +0.027 A 
ATOM     37  C   UNL     1       6.002   0.497  -3.506  0.00  0.00    +0.023 A 
ATOM     38  C   UNL     1       5.939   1.385  -4.561  0.00  0.00    +0.002 A 
ENDBRANCH  31  36
ENDBRANCH  30  31
ENDBRANCH  29  30
ENDBRANCH  25  29
ENDBRANCH   1  26
TORSDOF 6
