REMARK  Name = ZINC29335865
REMARK  11 active torsions:
REMARK  status: ('A' for Active; 'I' for Inactive)
REMARK    1  A    between atoms: C_1  and  C_2
REMARK    2  A    between atoms: C_2  and  C_4
REMARK    3  A    between atoms: C_2  and  N_10
REMARK    4  A    between atoms: C_4  and  C_5
REMARK    5  A    between atoms: N_10  and  C_11
REMARK    6  A    between atoms: C_11  and  C_12
REMARK    7  A    between atoms: C_15  and  O_18
REMARK    8  A    between atoms: O_18  and  C_19
REMARK    9  A    between atoms: C_20  and  C_22
REMARK   10  A    between atoms: C_22  and  S_23
REMARK   11  A    between atoms: S_23  and  C_24
REMARK                            x       y       z     vdW  Elec       q    Type
REMARK                         _______ _______ _______ _____ _____    ______ ____
ROOT
ATOM      1  N   UNL     1      -1.567   2.168   0.067  0.00  0.00    -0.293 N 
ATOM      2  C   UNL     1      -0.489   1.395  -0.171  0.00  0.00    +0.226 C 
ATOM      3  O   UNL     1       0.615   1.895  -0.228  0.00  0.00    -0.275 OA
ENDROOT
BRANCH   1   5
ATOM      4  C   UNL     1      -0.476   3.974   1.304  0.00  0.00    +0.028 C 
ATOM      5  C   UNL     1      -1.421   3.623   0.153  0.00  0.00    +0.078 C 
BRANCH   5   6
ATOM      6  C   UNL     1      -0.843   4.157  -1.160  0.00  0.00    +0.064 C 
BRANCH   6   7
ATOM      7  C   UNL     1      -1.835   3.934  -2.272  0.00  0.00    -0.008 A 
ATOM      8  C   UNL     1      -2.826   4.750  -2.708  0.00  0.00    +0.011 A 
ATOM      9  C   UNL     1      -3.624   4.334  -3.758  0.00  0.00    +0.008 A 
ATOM     10  C   UNL     1      -3.392   3.123  -4.320  0.00  0.00    +0.045 A 
ATOM     11  S   UNL     1      -2.006   2.531  -3.363  0.00  0.00    -0.102 S 
ENDBRANCH   6   7
ENDBRANCH   5   6
ENDBRANCH   1   5
BRANCH   1  12
ATOM     12  C   UNL     1      -2.885   1.553   0.238  0.00  0.00    +0.143 C 
BRANCH  12  13
ATOM     13  C   UNL     1      -3.153   1.342   1.706  0.00  0.00    -0.030 A 
ATOM     14  C   UNL     1      -2.816   0.141   2.303  0.00  0.00    +0.009 A 
ATOM     15  C   UNL     1      -3.055  -0.053   3.650  0.00  0.00    +0.046 A 
ATOM     16  C   UNL     1      -3.645   0.953   4.401  0.00  0.00    +0.120 A 
ATOM     17  C   UNL     1      -3.988   2.155   3.798  0.00  0.00    +0.046 A 
ATOM     18  C   UNL     1      -3.741   2.346   2.452  0.00  0.00    +0.009 A 
BRANCH  16  19
ATOM     19  O   UNL     1      -3.886   0.762   5.725  0.00  0.00    -0.495 OA
ATOM     20  C   UNL     1      -3.507  -0.499   6.278  0.00  0.00    +0.277 C 
ENDBRANCH  16  19
ENDBRANCH  12  13
ENDBRANCH   1  12
BRANCH   2  21
ATOM     21  C   UNL     1      -0.653  -0.091  -0.359  0.00  0.00    +0.173 C 
BRANCH  21  22
ATOM     22  S   UNL     1       0.956  -0.835  -0.725  0.00  0.00    -0.084 S 
BRANCH  22  23
ATOM     23  C   UNL     1       0.481  -2.523  -0.893  0.00  0.00    +0.123 C 
ATOM     24  N   UNL     1      -0.768  -2.867  -0.743  0.00  0.00    -0.382 N 
ATOM     25  N   UNL     1       1.428  -3.478  -1.183  0.00  0.00    -0.340 N 
ATOM     26  H   UNL     1      -1.064  -3.921  -0.847  0.00  0.00    +0.158 HD
ATOM     27  H   UNL     1       1.131  -4.532  -1.288  0.00  0.00    +0.144 HD
ATOM     28  H   UNL     1       2.481  -3.188  -1.310  0.00  0.00    +0.144 HD
ATOM     29  H   UNL     1      -1.525  -2.104  -0.511  0.00  0.00    +0.158 HD
ENDBRANCH  22  23
ENDBRANCH  21  22
ENDBRANCH   2  21
TORSDOF 9
