REMARK  Name = ZINC43553253
REMARK  10 active torsions:
REMARK  status: ('A' for Active; 'I' for Inactive)
REMARK    1  A    between atoms: C_1  and  C_2
REMARK    2  A    between atoms: C_5  and  O_39
REMARK    3  A    between atoms: C_7  and  C_36
REMARK    4  A    between atoms: C_7  and  C_37
REMARK    5  A    between atoms: N_16  and  C_17
REMARK    6  A    between atoms: C_17  and  C_18
REMARK    7  A    between atoms: C_24  and  C_26
REMARK    8  A    between atoms: C_26  and  C_27
REMARK    9  A    between atoms: N_29  and  C_30
REMARK   10  A    between atoms: C_37  and  O_38
REMARK                            x       y       z     vdW  Elec       q    Type
REMARK                         _______ _______ _______ _____ _____    ______ ____
ROOT
ATOM      1  C   UNL     1       0.371   1.304   0.048  0.00  0.00    +0.012 C 
ATOM      2  C   UNL     1      -0.059  -0.168  -0.046  0.00  0.00    -0.020 C 
ATOM      3  C   UNL     1      -1.582  -0.230  -0.044  0.00  0.00    +0.010 C 
ATOM      4  C   UNL     1      -2.109   0.421   1.235  0.00  0.00    +0.032 C 
ATOM      5  C   UNL     1      -1.571  -0.258   2.481  0.00  0.00    +0.123 C 
ATOM      6  C   UNL     1      -0.072  -0.507   2.480  0.00  0.00    +0.021 C 
ATOM      7  C   UNL     1       0.473  -0.976   1.132  0.00  0.00    +0.011 C 
ATOM      8  C   UNL     1       0.079  -2.459   0.983  0.00  0.00    +0.049 C 
ATOM      9  C   UNL     1       0.103  -2.899  -0.436  0.00  0.00    +0.013 A 
ATOM     10  C   UNL     1       0.282  -2.138  -1.544  0.00  0.00    +0.032 A 
ATOM     11  N   UNL     1       0.243  -2.800  -2.695  0.00  0.00    -0.340 N 
ATOM     12  C   UNL     1       0.048  -4.102  -2.740  0.00  0.00    +0.137 A 
ATOM     13  S   UNL     1      -0.096  -4.524  -1.116  0.00  0.00    -0.059 S 
ATOM     14  N   UNL     1      -0.021  -4.923  -3.854  0.00  0.00    -0.321 N 
ATOM     15  C   UNL     1       0.533  -0.654  -1.372  0.00  0.00    +0.051 C 
ATOM     16  C   UNL     1       0.671   0.730   3.003  0.00  0.00    +0.016 C 
ATOM     17  H   UNL     1       0.081  -4.546  -4.742  0.00  0.00    +0.148 HD
ATOM     18  H   UNL     1       0.371  -2.330  -3.533  0.00  0.00    +0.167 HD
ENDROOT
BRANCH   5  19
ATOM     19  O   UNL     1      -2.273  -1.486   2.704  0.00  0.00    -0.391 OA
ATOM     20  H   UNL     1      -3.226  -1.377   2.830  0.00  0.00    +0.210 HD
ENDBRANCH   5  19
BRANCH  14  21
ATOM     21  C   UNL     1      -0.247  -6.362  -3.692  0.00  0.00    +0.138 C 
BRANCH  21  22
ATOM     22  C   UNL     1      -0.279  -7.022  -5.046  0.00  0.00    -0.030 A 
ATOM     23  C   UNL     1      -1.475  -7.140  -5.729  0.00  0.00    +0.005 A 
ATOM     24  C   UNL     1      -1.505  -7.745  -6.971  0.00  0.00    +0.000 A 
ATOM     25  C   UNL     1      -0.338  -8.232  -7.531  0.00  0.00    +0.000 A 
ATOM     26  C   UNL     1       0.858  -8.113  -6.849  0.00  0.00    +0.000 A 
ATOM     27  C   UNL     1       0.888  -7.503  -5.608  0.00  0.00    +0.005 A 
ENDBRANCH  21  22
ENDBRANCH  14  21
BRANCH  15  28
ATOM     28  C   UNL     1      -0.048   0.139  -2.538  0.00  0.00    +0.106 C 
BRANCH  28  29
ATOM     29  C   UNL     1       0.704  -0.198  -3.800  0.00  0.00    +0.218 C 
ATOM     30  O   UNL     1       1.705  -0.880  -3.745  0.00  0.00    -0.275 OA
ATOM     31  N   UNL     1       0.263   0.258  -4.989  0.00  0.00    -0.285 N 
ATOM     32  H   UNL     1      -0.499   0.857  -5.027  0.00  0.00    +0.155 HD
BRANCH  31  33
ATOM     33  C   UNL     1       0.905  -0.132  -6.169  0.00  0.00    +0.033 A 
ATOM     34  C   UNL     1       0.168  -0.335  -7.328  0.00  0.00    +0.023 A 
ATOM     35  C   UNL     1       0.804  -0.720  -8.492  0.00  0.00    +0.002 A 
ATOM     36  C   UNL     1       2.175  -0.904  -8.503  0.00  0.00    +0.000 A 
ATOM     37  C   UNL     1       2.912  -0.703  -7.351  0.00  0.00    +0.002 A 
ATOM     38  C   UNL     1       2.282  -0.312  -6.186  0.00  0.00    +0.023 A 
ENDBRANCH  31  33
ENDBRANCH  28  29
ENDBRANCH  15  28
BRANCH   6  39
ATOM     39  C   UNL     1       0.202  -1.618   3.528  0.00  0.00    +0.165 C 
BRANCH  39  40
ATOM     40  O   UNL     1      -0.238  -1.179   4.815  0.00  0.00    -0.394 OA
ATOM     41  H   UNL     1      -0.097  -1.825   5.520  0.00  0.00    +0.209 HD
ENDBRANCH  39  40
ENDBRANCH   6  39
TORSDOF 8
