REMARK  Name = ZINC48971562
REMARK  6 active torsions:
REMARK  status: ('A' for Active; 'I' for Inactive)
REMARK    1  A    between atoms: C_1  and  N_2
REMARK    2  A    between atoms: C_4  and  C_7
REMARK    3  A    between atoms: C_7  and  N_8
REMARK    4  A    between atoms: N_8  and  C_9
REMARK    5  A    between atoms: N_8  and  C_10
REMARK    6  A    between atoms: C_13  and  N_20
REMARK                            x       y       z     vdW  Elec       q    Type
REMARK                         _______ _______ _______ _____ _____    ______ ____
ROOT
ATOM      1  C   UNL     1       2.070  -3.143  -2.975  0.00  0.00    +0.038 A 
ATOM      2  C   UNL     1       2.784  -1.968  -2.872  0.00  0.00    +0.025 A 
ATOM      3  C   UNL     1       3.433  -1.427  -3.978  0.00  0.00    +0.025 A 
ATOM      4  C   UNL     1       3.378  -2.050  -5.207  0.00  0.00    +0.034 A 
ATOM      5  C   UNL     1       2.657  -3.253  -5.345  0.00  0.00    +0.020 A 
ATOM      6  C   UNL     1       2.002  -3.807  -4.214  0.00  0.00    +0.008 A 
ATOM      7  C   UNL     1       1.294  -5.010  -4.379  0.00  0.00    +0.028 A 
ATOM      8  C   UNL     1       1.273  -5.593  -5.610  0.00  0.00    +0.083 A 
ATOM      9  N   UNL     1       1.899  -5.056  -6.649  0.00  0.00    -0.366 N 
ATOM     10  C   UNL     1       2.569  -3.929  -6.570  0.00  0.00    +0.093 A 
ATOM     11  H   UNL     1       1.854  -5.511  -7.505  0.00  0.00    +0.165 HD
ENDROOT
BRANCH   4  12
ATOM     12  N   UNL     1       4.034  -1.494  -6.307  0.00  0.00    -0.357 N 
ATOM     13  H   UNL     1       4.529  -0.666  -6.208  0.00  0.00    +0.142 HD
ATOM     14  H   UNL     1       3.994  -1.935  -7.170  0.00  0.00    +0.142 HD
ENDBRANCH   4  12
BRANCH   1  15
ATOM     15  N   UNL     1       1.424  -3.675  -1.855  0.00  0.00    -0.328 N 
ATOM     16  C   UNL     1       2.132  -4.609  -0.976  0.00  0.00    +0.129 C 
BRANCH  15  17
ATOM     17  C   UNL     1       0.039  -3.298  -1.561  0.00  0.00    +0.143 C 
BRANCH  17  21
ATOM     18  C   UNL     1      -0.018   1.461   0.010  0.00  0.00    +0.172 C 
ATOM     19  N   UNL     1       0.002  -0.004   0.002  0.00  0.00    -0.274 N 
ATOM     20  C   UNL     1       0.008  -0.792  -1.094  0.00  0.00    +0.113 A 
ATOM     21  C   UNL     1       0.027  -2.079  -0.676  0.00  0.00    +0.007 A 
ATOM     22  C   UNL     1       0.034  -2.078   0.723  0.00  0.00    +0.139 A 
ATOM     23  N   UNL     1       0.025  -0.834   1.130  0.00  0.00    -0.180 NA
ENDBRANCH  17  21
ENDBRANCH  15  17
ENDBRANCH   1  15
TORSDOF 4
