REMARK  Name = ZINC20838721
REMARK  10 active torsions:
REMARK  status: ('A' for Active; 'I' for Inactive)
REMARK    1  A    between atoms: C_1  and  C_2
REMARK    2  A    between atoms: C_2  and  C_3
REMARK    3  A    between atoms: C_2  and  C_4
REMARK    4  A    between atoms: C_2  and  C_5
REMARK    5  A    between atoms: C_8  and  S_16
REMARK    6  A    between atoms: N_9  and  C_10
REMARK    7  A    between atoms: S_16  and  C_17
REMARK    8  A    between atoms: C_17  and  C_18
REMARK    9  A    between atoms: C_18  and  C_19
REMARK   10  A    between atoms: N_21  and  C_22
REMARK                            x       y       z     vdW  Elec       q    Type
REMARK                         _______ _______ _______ _____ _____    ______ ____
ROOT
ATOM      1  C   UNL     1      -6.354  -0.231  -3.498  0.00  0.00    +0.144 A 
ATOM      2  N   UNL     1      -5.177  -0.603  -3.917  0.00  0.00    -0.133 NA
ATOM      3  N   UNL     1      -4.278  -0.282  -3.057  0.00  0.00    -0.122 NA
ATOM      4  C   UNL     1      -4.836   0.310  -2.026  0.00  0.00    +0.196 A 
ATOM      5  N   UNL     1      -6.180   0.366  -2.276  0.00  0.00    -0.274 N 
ENDROOT
BRANCH   5   6
ATOM      6  C   UNL     1      -7.173   0.918  -1.454  0.00  0.00    +0.050 A 
ATOM      7  C   UNL     1      -7.991   0.089  -0.698  0.00  0.00    +0.026 A 
ATOM      8  C   UNL     1      -8.964   0.636   0.114  0.00  0.00    +0.002 A 
ATOM      9  C   UNL     1      -9.133   2.008   0.166  0.00  0.00    +0.000 A 
ATOM     10  C   UNL     1      -8.323   2.836  -0.590  0.00  0.00    +0.002 A 
ATOM     11  C   UNL     1      -7.344   2.295  -1.400  0.00  0.00    +0.026 A 
ENDBRANCH   5   6
BRANCH   1  13
ATOM     12  C   UNL     1      -8.340   0.938  -4.413  0.00  0.00    +0.019 C 
ATOM     13  C   UNL     1      -7.662  -0.420  -4.221  0.00  0.00    +0.023 C 
ATOM     14  C   UNL     1      -7.401  -1.056  -5.588  0.00  0.00    +0.019 C 
ATOM     15  C   UNL     1      -8.572  -1.334  -3.399  0.00  0.00    +0.019 C 
ENDBRANCH   1  13
BRANCH   4  16
ATOM     16  S   UNL     1      -4.010   0.924  -0.596  0.00  0.00    -0.085 S 
BRANCH  16  17
ATOM     17  C   UNL     1      -2.303   0.484  -1.006  0.00  0.00    +0.086 C 
BRANCH  17  18
ATOM     18  C   UNL     1      -1.375   0.932   0.125  0.00  0.00    +0.107 C 
BRANCH  18  19
ATOM     19  C   UNL     1       0.046   0.566  -0.217  0.00  0.00    +0.218 C 
ATOM     20  O   UNL     1       0.293   0.003  -1.262  0.00  0.00    -0.275 OA
ATOM     21  N   UNL     1       1.044   0.870   0.636  0.00  0.00    -0.283 N 
ATOM     22  H   UNL     1       0.830   1.440   1.553  0.00  0.00    +0.155 HD
BRANCH  21  23
ATOM     23  C   UNL     1       2.354   0.461   0.357  0.00  0.00    +0.070 A 
ATOM     24  C   UNL     1       2.594  -0.814  -0.140  0.00  0.00    +0.064 A 
ATOM     25  C   UNL     1       3.888  -1.213  -0.419  0.00  0.00    +0.022 A 
ATOM     26  C   UNL     1       4.943  -0.348  -0.196  0.00  0.00    +0.003 A 
ATOM     27  C   UNL     1       4.708   0.920   0.303  0.00  0.00    +0.022 A 
ATOM     28  C   UNL     1       3.417   1.327   0.580  0.00  0.00    +0.064 A 
ATOM     29 CL   UNL     1       3.123   2.919   1.208  0.00  0.00    -0.082 Cl
ATOM     30 CL   UNL     1       1.270  -1.903  -0.415  0.00  0.00    -0.082 Cl
ENDBRANCH  21  23
ENDBRANCH  18  19
ENDBRANCH  17  18
ENDBRANCH  16  17
ENDBRANCH   4  16
TORSDOF 7
