REMARK  Name = ZINC08872803
REMARK  7 active torsions:
REMARK  status: ('A' for Active; 'I' for Inactive)
REMARK    1  A    between atoms: C_1  and  C_2
REMARK    2  A    between atoms: C_5  and  N_9
REMARK    3  A    between atoms: C_7  and  C_8
REMARK    4  A    between atoms: N_16  and  N_17
REMARK    5  A    between atoms: C_18  and  C_19
REMARK    6  A    between atoms: N_26  and  C_27
REMARK    7  A    between atoms: C_30  and  N_33
REMARK                            x       y       z     vdW  Elec       q    Type
REMARK                         _______ _______ _______ _____ _____    ______ ____
ROOT
ATOM      1  N   UNL     1       4.012   7.090  -2.582  0.00  0.00    -0.283 N 
ATOM      2  C   UNL     1       3.836   5.839  -2.022  0.00  0.00    +0.225 A 
ATOM      3  N   UNL     1       2.674   5.518  -1.463  0.00  0.00    -0.181 NA
ATOM      4  C   UNL     1       2.506   4.317  -0.920  0.00  0.00    +0.225 A 
ATOM      5  N   UNL     1       3.498   3.432  -0.945  0.00  0.00    -0.179 NA
ATOM      6  C   UNL     1       4.660   3.751  -1.509  0.00  0.00    +0.241 A 
ATOM      7  N   UNL     1       4.828   4.955  -2.047  0.00  0.00    -0.179 NA
ATOM      8  N   UNL     1       5.690   2.832  -1.536  0.00  0.00    -0.205 N 
ATOM      9  N   UNL     1       1.300   3.985  -0.334  0.00  0.00    -0.283 N 
ATOM     10  H   UNL     1       3.265   7.707  -2.635  0.00  0.00    +0.155 HD
ATOM     11  H   UNL     1       6.537   3.064  -1.947  0.00  0.00    +0.177 HD
ATOM     12  H   UNL     1       0.566   4.619  -0.344  0.00  0.00    +0.155 HD
ENDROOT
BRANCH   1  17
ATOM     13  C   UNL     1       9.098   8.621  -4.571  0.00  0.00    +0.044 C 
ATOM     14  C   UNL     1       7.747   8.214  -4.043  0.00  0.00    -0.047 A 
ATOM     15  C   UNL     1       7.659   7.375  -2.947  0.00  0.00    +0.005 A 
ATOM     16  C   UNL     1       6.422   7.004  -2.457  0.00  0.00    +0.023 A 
ATOM     17  C   UNL     1       5.266   7.467  -3.072  0.00  0.00    +0.034 A 
ATOM     18  C   UNL     1       5.358   8.310  -4.173  0.00  0.00    +0.027 A 
ATOM     19  C   UNL     1       6.598   8.681  -4.654  0.00  0.00    -0.046 A 
ATOM     20  C   UNL     1       6.699   9.594  -5.849  0.00  0.00    +0.044 C 
ENDBRANCH   1  17
BRANCH   9  21
ATOM     21  C   UNL     1       1.137   2.736   0.273  0.00  0.00    +0.034 A 
ATOM     22  C   UNL     1       2.201   2.143   0.940  0.00  0.00    +0.025 A 
ATOM     23  C   UNL     1       2.038   0.909   1.539  0.00  0.00    +0.034 A 
ATOM     24  C   UNL     1       0.815   0.265   1.476  0.00  0.00    +0.126 A 
ATOM     25  C   UNL     1      -0.246   0.853   0.812  0.00  0.00    +0.034 A 
ATOM     26  C   UNL     1      -0.088   2.086   0.211  0.00  0.00    +0.025 A 
BRANCH  24  27
ATOM     27  N   UNL     1       0.643  -1.057   2.119  0.00  0.00    +0.056 N 
ATOM     28  O   UNL     1       1.577  -1.576   2.704  0.00  0.00    -0.126 OA
ATOM     29  O   UNL     1      -0.433  -1.625   2.064  0.00  0.00    -0.126 OA
ENDBRANCH  24  27
ENDBRANCH   9  21
BRANCH   8  30
ATOM     30  N   UNL     1       5.512   1.563  -0.969  0.00  0.00    -0.188 NA
ATOM     31  C   UNL     1       6.519   0.751  -0.865  0.00  0.00    +0.138 C 
BRANCH  31  32
ATOM     32  C   UNL     1       7.895   1.263  -1.004  0.00  0.00    -0.005 A 
ATOM     33  C   UNL     1       8.938   0.391  -1.326  0.00  0.00    +0.011 A 
ATOM     34  C   UNL     1      10.223   0.877  -1.458  0.00  0.00    +0.020 A 
ATOM     35  C   UNL     1      10.481   2.223  -1.262  0.00  0.00    +0.041 A 
ATOM     36  C   UNL     1       9.452   3.091  -0.938  0.00  0.00    +0.020 A 
ATOM     37  C   UNL     1       8.163   2.620  -0.807  0.00  0.00    +0.011 A 
ATOM     38 CL   UNL     1      12.101   2.825  -1.425  0.00  0.00    -0.084 Cl
ENDBRANCH  31  32
ENDBRANCH   8  30
TORSDOF 5
