REMARK  Name = ZINC28884841
REMARK  5 active torsions:
REMARK  status: ('A' for Active; 'I' for Inactive)
REMARK    1  A    between atoms: C_3  and  C_11
REMARK    2  A    between atoms: C_5  and  S_7
REMARK    3  A    between atoms: S_7  and  N_10
REMARK    4  A    between atoms: C_14  and  N_28
REMARK    5  A    between atoms: C_19  and  C_20
REMARK                            x       y       z     vdW  Elec       q    Type
REMARK                         _______ _______ _______ _____ _____    ______ ____
ROOT
ATOM      1  C   UNL     1       3.553   2.239   0.765  0.00  0.00    +0.013 A 
ATOM      2  C   UNL     1       4.229   2.391   1.971  0.00  0.00    +0.093 A 
ATOM      3  N   UNL     1       5.380   3.041   2.008  0.00  0.00    -0.349 N 
ATOM      4  C   UNL     1       5.947   3.572   0.945  0.00  0.00    +0.103 A 
ATOM      5  C   UNL     1       5.342   3.477  -0.336  0.00  0.00    +0.035 A 
ATOM      6  C   UNL     1       4.119   2.780  -0.388  0.00  0.00    +0.032 A 
ATOM      7  S   UNL     1       3.664   2.844  -2.099  0.00  0.00    -0.095 S 
ATOM      8  C   UNL     1       5.060   3.759  -2.726  0.00  0.00    +0.055 A 
ATOM      9  C   UNL     1       5.806   3.993  -1.621  0.00  0.00    +0.000 A 
ATOM     10  H   UNL     1       5.830   3.131   2.863  0.00  0.00    +0.167 HD
ENDROOT
BRANCH   9  11
ATOM     11  C   UNL     1       7.081   4.742  -1.716  0.00  0.00    -0.015 A 
ATOM     12  C   UNL     1       8.270   4.157  -1.281  0.00  0.00    +0.011 A 
ATOM     13  C   UNL     1       9.455   4.857  -1.372  0.00  0.00    +0.040 A 
ATOM     14  C   UNL     1       9.466   6.141  -1.894  0.00  0.00    +0.142 A 
ATOM     15  C   UNL     1       8.287   6.727  -2.328  0.00  0.00    +0.077 A 
ATOM     16  C   UNL     1       7.097   6.031  -2.247  0.00  0.00    +0.031 A 
ATOM     17 CL   UNL     1       8.308   8.335  -2.981  0.00  0.00    -0.081 Cl
ATOM     18  F   UNL     1      10.629   6.823  -1.980  0.00  0.00    -0.204 F 
ENDBRANCH   9  11
BRANCH   1  21
ATOM     19  C   UNL     1      -0.034   1.405   0.012  0.00  0.00    +0.002 A 
ATOM     20  C   UNL     1       1.165   2.086   0.064  0.00  0.00    +0.009 A 
ATOM     21  C   UNL     1       2.262   1.513   0.706  0.00  0.00    -0.014 A 
ATOM     22  C   UNL     1       2.139   0.254   1.293  0.00  0.00    +0.037 A 
ATOM     23  C   UNL     1       0.935  -0.418   1.234  0.00  0.00    +0.106 A 
ATOM     24  C   UNL     1      -0.149   0.156   0.596  0.00  0.00    +0.028 A 
BRANCH  23  25
ATOM     25  S   UNL     1       0.779  -2.009   1.975  0.00  0.00    +0.056 S 
ATOM     26  O   UNL     1      -0.293  -2.663   1.310  0.00  0.00    -0.153 OA
ATOM     27  O   UNL     1       2.088  -2.560   2.034  0.00  0.00    -0.153 OA
BRANCH  25  28
ATOM     28  N   UNL     1       0.293  -1.775   3.540  0.00  0.00    -0.204 NA
ATOM     29  H   UNL     1       0.152  -0.876   3.875  0.00  0.00    +0.144 HD
ATOM     30  H   UNL     1       0.149  -2.537   4.123  0.00  0.00    +0.144 HD
ENDBRANCH  25  28
ENDBRANCH  23  25
ENDBRANCH   1  21
BRANCH   4  31
ATOM     31  N   UNL     1       7.156   4.238   1.079  0.00  0.00    -0.344 N 
ATOM     32  H   UNL     1       7.774   3.985   1.783  0.00  0.00    +0.144 HD
ATOM     33  H   UNL     1       7.385   4.956   0.468  0.00  0.00    +0.144 HD
ENDBRANCH   4  31
TORSDOF 5
