REMARK  Name = ZINC38685672
REMARK  9 active torsions:
REMARK  status: ('A' for Active; 'I' for Inactive)
REMARK    1  A    between atoms: C_1  and  O_2
REMARK    2  A    between atoms: O_2  and  C_3
REMARK    3  A    between atoms: C_3  and  C_5
REMARK    4  A    between atoms: C_7  and  N_15
REMARK    5  A    between atoms: C_16  and  C_18
REMARK    6  A    between atoms: C_18  and  N_19
REMARK    7  A    between atoms: N_22  and  C_25
REMARK    8  A    between atoms: C_25  and  C_27
REMARK    9  A    between atoms: C_25  and  C_33
REMARK                            x       y       z     vdW  Elec       q    Type
REMARK                         _______ _______ _______ _____ _____    ______ ____
ROOT
ATOM      1  N   UNL     1       4.074  -3.380   3.732  0.00  0.00    -0.292 NA
ATOM      2  C   UNL     1       5.184  -2.491   3.360  0.00  0.00    +0.100 C 
ATOM      3  C   UNL     1       6.503  -3.094   3.847  0.00  0.00    +0.100 C 
ATOM      4  N   UNL     1       6.447  -3.279   5.304  0.00  0.00    -0.289 NA
ATOM      5  C   UNL     1       5.337  -4.168   5.676  0.00  0.00    +0.100 C 
ATOM      6  C   UNL     1       4.018  -3.564   5.189  0.00  0.00    +0.100 C 
ENDROOT
BRANCH   1   7
ATOM      7  C   UNL     1       2.797  -2.872   3.216  0.00  0.00    +0.180 C 
BRANCH   7   9
ATOM      8  N   UNL     1       1.730  -2.509   1.014  0.00  0.00    -0.285 N 
ATOM      9  C   UNL     1       2.806  -2.927   1.710  0.00  0.00    +0.231 C 
ATOM     10  O   UNL     1       3.781  -3.348   1.125  0.00  0.00    -0.274 OA
ATOM     11  H   UNL     1       0.985  -2.094   1.475  0.00  0.00    +0.155 HD
BRANCH   8  13
ATOM     12  C   UNL     1       2.666  -3.443  -1.196  0.00  0.00    +0.234 C 
ATOM     13  C   UNL     1       1.690  -2.668  -0.339  0.00  0.00    +0.053 C 
ATOM     14  C   UNL     1       0.748  -2.154  -1.213  0.00  0.00    +0.018 A 
ATOM     15  C   UNL     1      -0.402  -1.353  -1.015  0.00  0.00    +0.011 A 
ATOM     16  C   UNL     1      -1.159  -0.990  -2.080  0.00  0.00    +0.001 A 
ATOM     17  C   UNL     1      -0.835  -1.388  -3.380  0.00  0.00    +0.002 A 
ATOM     18  C   UNL     1       0.250  -2.155  -3.644  0.00  0.00    +0.026 A 
ATOM     19  C   UNL     1       1.093  -2.575  -2.582  0.00  0.00    +0.045 A 
ATOM     20  N   UNL     1       2.188  -3.311  -2.576  0.00  0.00    -0.367 N 
ATOM     21  H   UNL     1       2.610  -3.701  -3.357  0.00  0.00    +0.161 HD
BRANCH  12  22
ATOM     22  C   UNL     1       2.677  -4.894  -0.788  0.00  0.00    +0.335 C 
ATOM     23  O   UNL     1       1.955  -5.684  -1.347  0.00  0.00    -0.248 OA
BRANCH  22  25
ATOM     24  C   UNL     1       3.448  -6.696   0.533  0.00  0.00    +0.280 C 
ATOM     25  O   UNL     1       3.489  -5.308   0.198  0.00  0.00    -0.466 OA
ENDBRANCH  22  25
ENDBRANCH  12  22
ENDBRANCH   8  13
ENDBRANCH   7   9
ENDBRANCH   1   7
BRANCH   4  26
ATOM     26  C   UNL     1       7.724  -3.787   5.820  0.00  0.00    +0.117 C 
BRANCH  26  27
ATOM     27  C   UNL     1       8.822  -2.805   5.500  0.00  0.00    -0.026 A 
ATOM     28  C   UNL     1       8.589  -1.447   5.616  0.00  0.00    +0.007 A 
ATOM     29  C   UNL     1       9.595  -0.546   5.322  0.00  0.00    +0.020 A 
ATOM     30  C   UNL     1      10.835  -1.003   4.912  0.00  0.00    +0.041 A 
ATOM     31  C   UNL     1      11.067  -2.362   4.796  0.00  0.00    +0.020 A 
ATOM     32  C   UNL     1      10.062  -3.262   5.096  0.00  0.00    +0.007 A 
ATOM     33 CL   UNL     1      12.099   0.129   4.543  0.00  0.00    -0.084 Cl
ENDBRANCH  26  27
BRANCH  26  34
ATOM     34  C   UNL     1       7.628  -3.963   7.314  0.00  0.00    -0.026 A 
ATOM     35  C   UNL     1       6.958  -3.026   8.078  0.00  0.00    +0.005 A 
ATOM     36  C   UNL     1       6.870  -3.188   9.448  0.00  0.00    +0.000 A 
ATOM     37  C   UNL     1       7.451  -4.287  10.054  0.00  0.00    +0.000 A 
ATOM     38  C   UNL     1       8.120  -5.224   9.289  0.00  0.00    +0.000 A 
ATOM     39  C   UNL     1       8.205  -5.064   7.918  0.00  0.00    +0.005 A 
ENDBRANCH  26  34
ENDBRANCH   4  26
TORSDOF 8
