REMARK  Name = ZINC22265267
REMARK  7 active torsions:
REMARK  status: ('A' for Active; 'I' for Inactive)
REMARK    1  A    between atoms: C_3  and  O_28
REMARK    2  A    between atoms: C_8  and  C_10
REMARK    3  A    between atoms: C_10  and  C_11
REMARK    4  A    between atoms: C_11  and  N_12
REMARK    5  A    between atoms: N_12  and  S_13
REMARK    6  A    between atoms: S_13  and  C_16
REMARK    7  A    between atoms: C_19  and  C_22
REMARK                            x       y       z     vdW  Elec       q    Type
REMARK                         _______ _______ _______ _____ _____    ______ ____
ROOT
ATOM      1  N   UNL     1       3.985  -6.145  -0.068  0.00  0.00    -0.189 NA
ATOM      2  H   UNL     1       3.141  -6.720   0.340  0.00  0.00    +0.148 HD
ENDROOT
BRANCH   1   3
ATOM      3  S   UNL     1       5.388  -6.934  -0.457  0.00  0.00    +0.058 S 
ATOM      4  O   UNL     1       5.115  -8.325  -0.349  0.00  0.00    -0.153 OA
ATOM      5  O   UNL     1       5.868  -6.343  -1.656  0.00  0.00    -0.153 OA
BRANCH   3   6
ATOM      6  C   UNL     1       6.565  -6.555   0.799  0.00  0.00    +0.105 A 
ATOM      7  C   UNL     1       7.392  -5.456   0.661  0.00  0.00    +0.029 A 
ATOM      8  C   UNL     1       8.312  -5.155   1.648  0.00  0.00    +0.006 A 
ATOM      9  C   UNL     1       8.412  -5.959   2.768  0.00  0.00    -0.044 A 
ATOM     10  C   UNL     1       7.588  -7.061   2.904  0.00  0.00    +0.006 A 
ATOM     11  C   UNL     1       6.664  -7.358   1.919  0.00  0.00    +0.029 A 
BRANCH   9  12
ATOM     12  C   UNL     1       9.418  -5.634   3.841  0.00  0.00    +0.019 C 
ATOM     13  C   UNL     1       9.128  -4.244   4.409  0.00  0.00    +0.008 C 
ATOM     14  C   UNL     1      10.150  -3.914   5.499  0.00  0.00    +0.001 C 
ATOM     15  C   UNL     1      11.559  -3.937   4.901  0.00  0.00    +0.000 C 
ATOM     16  C   UNL     1      11.849  -5.328   4.333  0.00  0.00    +0.001 C 
ATOM     17  C   UNL     1      10.827  -5.658   3.244  0.00  0.00    +0.008 C 
ENDBRANCH   9  12
ENDBRANCH   3   6
ENDBRANCH   1   3
BRANCH   1  18
ATOM     18  C   UNL     1       3.947  -4.681  -0.060  0.00  0.00    +0.115 C 
BRANCH  18  19
ATOM     19  C   UNL     1       2.492  -4.209  -0.043  0.00  0.00    +0.113 C 
BRANCH  19  27
ATOM     20  C   UNL     1       1.195   2.061   0.001  0.00  0.00    +0.021 A 
ATOM     21  C   UNL     1      -0.017   1.383   0.009  0.00  0.00    +0.050 A 
ATOM     22  C   UNL     1       0.002  -0.004   0.002  0.00  0.00    +0.155 A 
ATOM     23  C   UNL     1       1.231  -0.664  -0.013  0.00  0.00    +0.145 A 
ATOM     24  N   UNL     1       2.362   0.022  -0.021  0.00  0.00    -0.347 N 
ATOM     25  C   UNL     1       2.373   1.342  -0.014  0.00  0.00    +0.084 A 
ATOM     26  N   UNL     1       1.268  -2.059  -0.021  0.00  0.00    -0.269 N 
ATOM     27  C   UNL     1       2.452  -2.702  -0.035  0.00  0.00    +0.220 C 
ATOM     28  O   UNL     1       3.486  -2.068  -0.042  0.00  0.00    -0.275 OA
ATOM     29  H   UNL     1       0.330  -2.634  -0.014  0.00  0.00    +0.156 HD
ATOM     30  H   UNL     1       3.326  -0.508  -0.033  0.00  0.00    +0.167 HD
BRANCH  22  31
ATOM     31  O   UNL     1      -1.160  -0.710   0.010  0.00  0.00    -0.503 OA
ATOM     32  H   UNL     1      -2.125  -0.181   0.022  0.00  0.00    +0.292 HD
ENDBRANCH  22  31
ENDBRANCH  19  27
ENDBRANCH  18  19
ENDBRANCH   1  18
TORSDOF 7
