REMARK  Name = ZINC35427135
REMARK  7 active torsions:
REMARK  status: ('A' for Active; 'I' for Inactive)
REMARK    1  A    between atoms: C_1  and  C_2
REMARK    2  A    between atoms: C_6  and  N_9
REMARK    3  A    between atoms: C_7  and  C_8
REMARK    4  A    between atoms: C_24  and  C_26
REMARK    5  A    between atoms: C_29  and  O_32
REMARK    6  A    between atoms: O_32  and  C_33
REMARK    7  A    between atoms: N_35  and  C_38
REMARK                            x       y       z     vdW  Elec       q    Type
REMARK                         _______ _______ _______ _____ _____    ______ ____
ROOT
ATOM      1  N   UNL     1       0.063  -3.280   1.448  0.00  0.00    -0.269 N 
ATOM      2  C   UNL     1       0.015  -4.573   1.827  0.00  0.00    +0.308 C 
ATOM      3  O   UNL     1       0.123  -5.454   0.996  0.00  0.00    -0.252 OA
ATOM      4  N   UNL     1      -0.154  -4.888   3.126  0.00  0.00    -0.268 N 
ATOM      5  C   UNL     1      -0.295  -3.849   4.161  0.00  0.00    +0.148 C 
ATOM      6  C   UNL     1      -1.328  -4.202   5.209  0.00  0.00    +0.004 A 
ATOM      7  C   UNL     1      -2.558  -3.530   5.335  0.00  0.00    -0.034 A 
ATOM      8  C   UNL     1      -3.397  -3.923   6.331  0.00  0.00    -0.021 A 
ATOM      9  S   UNL     1      -2.521  -5.245   7.125  0.00  0.00    -0.077 S 
ATOM     10  C   UNL     1      -1.091  -5.214   6.088  0.00  0.00    +0.090 A 
ATOM     11  N   UNL     1       0.050  -6.007   6.074  0.00  0.00    -0.312 N 
ATOM     12  C   UNL     1       0.868  -6.416   7.071  0.00  0.00    +0.092 A 
ATOM     13  C   UNL     1       1.882  -7.120   6.517  0.00  0.00    +0.020 A 
ATOM     14  C   UNL     1       1.662  -7.157   5.123  0.00  0.00    +0.025 A 
ATOM     15  C   UNL     1       0.523  -6.492   4.878  0.00  0.00    +0.049 A 
ATOM     16  C   UNL     1      -0.212  -6.298   3.582  0.00  0.00    +0.155 C 
ATOM     17  C   UNL     1      -4.737  -3.350   6.654  0.00  0.00    -0.036 C 
ATOM     18  N   UNL     1      -4.866  -2.054   5.961  0.00  0.00    +0.381 N 
ATOM     19  C   UNL     1      -4.500  -2.217   4.548  0.00  0.00    -0.074 C 
ATOM     20  C   UNL     1      -2.985  -2.394   4.408  0.00  0.00    +0.018 C 
ATOM     21  C   UNL     1      -6.254  -1.583   6.056  0.00  0.00    -0.096 C 
ATOM     22  H   UNL     1       0.052  -2.578   2.117  0.00  0.00    +0.156 HD
ATOM     23  H   UNL     1      -4.251  -1.380   6.392  0.00  0.00    -0.082 HD
ENDROOT
BRANCH   1  29
ATOM     24  C   UNL     1       1.181  -0.032  -2.070  0.00  0.00    +0.044 C 
ATOM     25  C   UNL     1       0.668  -1.384  -1.644  0.00  0.00    -0.046 A 
ATOM     26  C   UNL     1       0.262  -2.300  -2.597  0.00  0.00    +0.004 A 
ATOM     27  C   UNL     1      -0.209  -3.541  -2.210  0.00  0.00    +0.002 A 
ATOM     28  C   UNL     1      -0.277  -3.869  -0.870  0.00  0.00    +0.023 A 
ATOM     29  C   UNL     1       0.130  -2.951   0.089  0.00  0.00    +0.038 A 
ATOM     30  C   UNL     1       0.609  -1.708  -0.303  0.00  0.00    -0.026 A 
ATOM     31  C   UNL     1       1.057  -0.711   0.735  0.00  0.00    +0.046 C 
ENDBRANCH   1  29
BRANCH  16  32
ATOM     32  C   UNL     1      -1.655  -6.695   3.766  0.00  0.00    -0.021 A 
ATOM     33  C   UNL     1      -2.651  -6.006   3.099  0.00  0.00    +0.009 A 
ATOM     34  C   UNL     1      -3.973  -6.367   3.267  0.00  0.00    +0.046 A 
ATOM     35  C   UNL     1      -4.302  -7.423   4.106  0.00  0.00    +0.120 A 
ATOM     36  C   UNL     1      -3.301  -8.112   4.774  0.00  0.00    +0.046 A 
ATOM     37  C   UNL     1      -1.979  -7.750   4.598  0.00  0.00    +0.009 A 
BRANCH  35  38
ATOM     38  O   UNL     1      -5.603  -7.780   4.273  0.00  0.00    -0.495 OA
ATOM     39  C   UNL     1      -5.867  -8.875   5.151  0.00  0.00    +0.277 C 
ENDBRANCH  35  38
ENDBRANCH  16  32
TORSDOF 3
