REMARK  Name = ZINC63339470
REMARK  8 active torsions:
REMARK  status: ('A' for Active; 'I' for Inactive)
REMARK    1  A    between atoms: C_1  and  C_2
REMARK    2  A    between atoms: C_2  and  C_3
REMARK    3  A    between atoms: C_2  and  C_4
REMARK    4  A    between atoms: C_4  and  C_6
REMARK    5  A    between atoms: C_4  and  N_20
REMARK    6  A    between atoms: N_8  and  C_9
REMARK    7  A    between atoms: C_9  and  C_10
REMARK    8  A    between atoms: C_10  and  C_11
REMARK                            x       y       z     vdW  Elec       q    Type
REMARK                         _______ _______ _______ _____ _____    ______ ____
ROOT
ATOM      1  C   UNL     1       0.742  -0.511   1.242  0.00  0.00    +0.183 C 
ENDROOT
BRANCH   1   2
ATOM      2  N   UNL     1       2.116  -0.004   1.231  0.00  0.00    -0.205 N 
ATOM      3  C   UNL     1       2.542   0.768   2.257  0.00  0.00    +0.264 C 
ATOM      4  O   UNL     1       1.838   0.969   3.229  0.00  0.00    -0.269 OA
ATOM      5  C   UNL     1       3.891   1.358   2.155  0.00  0.00    +0.060 A 
ATOM      6  C   UNL     1       4.536   1.960   3.227  0.00  0.00    +0.015 A 
ATOM      7  C   UNL     1       5.798   2.490   3.045  0.00  0.00    +0.001 A 
ATOM      8  C   UNL     1       6.417   2.425   1.806  0.00  0.00    +0.002 A 
ATOM      9  C   UNL     1       5.785   1.827   0.732  0.00  0.00    +0.025 A 
ATOM     10  C   UNL     1       4.523   1.290   0.898  0.00  0.00    +0.055 A 
ATOM     11  N   UNL     1       3.823   0.665  -0.128  0.00  0.00    -0.264 N 
ATOM     12  N   UNL     1       2.934  -0.327   0.192  0.00  0.00    -0.157 NA
ATOM     13  H   UNL     1       3.965   0.925  -1.052  0.00  0.00    +0.168 HD
ATOM     14  H   UNL     1       3.408  -1.201   0.363  0.00  0.00    +0.168 HD
ENDBRANCH   1   2
BRANCH   1  15
ATOM     15  C   UNL     1       0.762  -2.018   1.233  0.00  0.00    +0.235 C 
ATOM     16  O   UNL     1       1.821  -2.610   1.220  0.00  0.00    -0.274 OA
ATOM     17  N   UNL     1      -0.395  -2.707   1.241  0.00  0.00    -0.313 N 
ATOM     18  H   UNL     1      -1.242  -2.234   1.251  0.00  0.00    +0.149 HD
BRANCH  17  19
ATOM     19  C   UNL     1      -0.376  -4.172   1.233  0.00  0.00    +0.108 C 
BRANCH  19  20
ATOM     20  C   UNL     1      -1.811  -4.702   1.243  0.00  0.00    +0.052 C 
BRANCH  20  21
ATOM     21  C   UNL     1      -1.790  -6.209   1.235  0.00  0.00    -0.040 C 
ATOM     22  C   UNL     1      -1.869  -7.029   2.308  0.00  0.00    -0.001 A 
ATOM     23  C   UNL     1      -1.991  -6.774   3.748  0.00  0.00    +0.010 A 
ATOM     24  C   UNL     1      -2.047  -7.824   4.598  0.00  0.00    +0.001 A 
ATOM     25  C   UNL     1      -1.992  -9.147   4.139  0.00  0.00    +0.002 A 
ATOM     26  C   UNL     1      -1.880  -9.461   2.831  0.00  0.00    +0.026 A 
ATOM     27  C   UNL     1      -1.813  -8.435   1.849  0.00  0.00    +0.043 A 
ATOM     28  N   UNL     1      -1.704  -8.483   0.543  0.00  0.00    -0.380 N 
ATOM     29  C   UNL     1      -1.685  -7.110   0.025  0.00  0.00    +0.144 C 
ATOM     30  H   UNL     1      -1.649  -9.290   0.009  0.00  0.00    +0.160 HD
ENDBRANCH  20  21
ENDBRANCH  19  20
ENDBRANCH  17  19
ENDBRANCH   1  15
BRANCH   1  32
ATOM     31  C   UNL     1      -0.019   1.526   0.010  0.00  0.00    +0.009 C 
ATOM     32  C   UNL     1       0.002  -0.004   0.002  0.00  0.00    +0.014 C 
ATOM     33  C   UNL     1       0.718  -0.497  -1.257  0.00  0.00    +0.009 C 
ENDBRANCH   1  32
TORSDOF 6
