REMARK  Name = ZINC28049740
REMARK  11 active torsions:
REMARK  status: ('A' for Active; 'I' for Inactive)
REMARK    1  A    between atoms: C_1  and  C_2
REMARK    2  A    between atoms: C_5  and  C_33
REMARK    3  A    between atoms: C_6  and  N_8
REMARK    4  A    between atoms: C_9  and  C_11
REMARK    5  A    between atoms: C_11  and  C_12
REMARK    6  A    between atoms: N_17  and  N_18
REMARK    7  A    between atoms: C_19  and  C_20
REMARK    8  A    between atoms: C_19  and  C_21
REMARK    9  A    between atoms: C_22  and  C_23
REMARK   10  A    between atoms: C_26  and  O_29
REMARK   11  A    between atoms: O_29  and  C_30
REMARK                            x       y       z     vdW  Elec       q    Type
REMARK                         _______ _______ _______ _____ _____    ______ ____
ROOT
ATOM      1  C   UNL     1      -3.418  -2.559  -0.312  0.00  0.00    +0.149 C 
ATOM      2  C   UNL     1      -4.696  -3.363  -0.512  0.00  0.00    +0.233 C 
ATOM      3  N   UNL     1      -4.782  -4.014  -1.610  0.00  0.00    -0.263 N 
ATOM      4  C   UNL     1      -3.828  -4.021  -2.566  0.00  0.00    +0.183 C 
ATOM      5  N   UNL     1      -3.832  -4.660  -3.724  0.00  0.00    -0.127 NA
ATOM      6  S   UNL     1      -2.558  -2.959  -1.888  0.00  0.00    -0.075 S 
ATOM      7  O   UNL     1      -5.675  -3.387   0.410  0.00  0.00    -0.274 OA
ATOM      8  H   UNL     1      -5.677  -4.617  -1.823  0.00  0.00    +0.157 HD
ENDROOT
BRANCH   5   9
ATOM      9  N   UNL     1      -4.842  -5.391  -4.055  0.00  0.00    -0.152 NA
ATOM     10  C   UNL     1      -4.846  -6.024  -5.204  0.00  0.00    +0.061 C 
ATOM     11  C   UNL     1      -3.669  -5.898  -6.137  0.00  0.00    +0.067 C 
BRANCH  10  12
ATOM     12  C   UNL     1      -5.951  -6.823  -5.566  0.00  0.00    +0.025 C 
ATOM     13  C   UNL     1      -7.007  -6.936  -4.728  0.00  0.00    +0.010 C 
BRANCH  13  14
ATOM     14  C   UNL     1      -8.158  -7.769  -5.104  0.00  0.00    -0.025 A 
ATOM     15  C   UNL     1      -8.167  -8.441  -6.332  0.00  0.00    +0.011 A 
ATOM     16  C   UNL     1      -9.247  -9.224  -6.678  0.00  0.00    +0.046 A 
ATOM     17  C   UNL     1     -10.330  -9.338  -5.815  0.00  0.00    +0.120 A 
ATOM     18  C   UNL     1     -10.329  -8.669  -4.598  0.00  0.00    +0.046 A 
ATOM     19  C   UNL     1      -9.252  -7.888  -4.239  0.00  0.00    +0.011 A 
BRANCH  17  20
ATOM     20  O   UNL     1     -11.394 -10.107  -6.163  0.00  0.00    -0.495 OA
ATOM     21  C   UNL     1     -11.331 -10.768  -7.429  0.00  0.00    +0.277 C 
ENDBRANCH  17  20
ENDBRANCH  13  14
ENDBRANCH  10  12
ENDBRANCH   5   9
BRANCH   1  22
ATOM     22  C   UNL     1      -3.712  -1.062  -0.201  0.00  0.00    +0.120 C 
BRANCH  22  24
ATOM     23  N   UNL     1      -2.428   1.041   0.019  0.00  0.00    -0.285 N 
ATOM     24  C   UNL     1      -2.415  -0.302  -0.090  0.00  0.00    +0.219 C 
ATOM     25  O   UNL     1      -1.359  -0.900  -0.098  0.00  0.00    -0.275 OA
ATOM     26  H   UNL     1      -3.384   1.575   0.118  0.00  0.00    +0.155 HD
BRANCH  23  32
ATOM     27  C   UNL     1       2.299   1.348  -1.300  0.00  0.00    +0.044 C 
ATOM     28  C   UNL     1       1.082   1.928  -0.626  0.00  0.00    -0.049 A 
ATOM     29  C   UNL     1       1.152   3.172  -0.025  0.00  0.00    +0.004 A 
ATOM     30  C   UNL     1       0.038   3.707   0.595  0.00  0.00    +0.005 A 
ATOM     31  C   UNL     1      -1.149   3.002   0.614  0.00  0.00    -0.029 A 
ATOM     32  C   UNL     1      -1.225   1.756   0.006  0.00  0.00    +0.037 A 
ATOM     33  C   UNL     1      -0.102   1.218  -0.610  0.00  0.00    +0.027 A 
ATOM     34  C   UNL     1      -2.364   3.587   1.289  0.00  0.00    +0.045 C 
ENDBRANCH  23  32
ENDBRANCH  22  24
ENDBRANCH   1  22
TORSDOF 7
