REMARK  Name = ZINC63142022
REMARK  9 active torsions:
REMARK  status: ('A' for Active; 'I' for Inactive)
REMARK    1  A    between atoms: C_1  and  O_2
REMARK    2  A    between atoms: O_2  and  C_3
REMARK    3  A    between atoms: C_5  and  C_13
REMARK    4  A    between atoms: C_7  and  O_11
REMARK    5  A    between atoms: C_8  and  O_9
REMARK    6  A    between atoms: O_9  and  C_10
REMARK    7  A    between atoms: O_11  and  C_12
REMARK    8  A    between atoms: N_32  and  C_35
REMARK    9  A    between atoms: C_35  and  C_36
REMARK                            x       y       z     vdW  Elec       q    Type
REMARK                         _______ _______ _______ _____ _____    ______ ____
ROOT
ATOM      1  C   UNL     1       2.402   0.386  -4.230  0.00  0.00    +0.134 C 
ATOM      2  C   UNL     1       1.424   0.471  -5.402  0.00  0.00    +0.131 C 
ATOM      3  C   UNL     1       2.232   1.008  -6.581  0.00  0.00    -0.034 C 
ATOM      4  C   UNL     1       1.671   2.155  -6.938  0.00  0.00    -0.001 A 
ATOM      5  C   UNL     1       1.987   3.106  -8.016  0.00  0.00    +0.010 A 
ATOM      6  C   UNL     1       1.194   4.207  -8.096  0.00  0.00    +0.001 A 
ATOM      7  C   UNL     1       0.131   4.454  -7.223  0.00  0.00    +0.002 A 
ATOM      8  C   UNL     1      -0.232   3.633  -6.205  0.00  0.00    +0.026 A 
ATOM      9  C   UNL     1       0.527   2.441  -6.020  0.00  0.00    +0.043 A 
ATOM     10  N   UNL     1       0.386   1.476  -5.134  0.00  0.00    -0.375 N 
ATOM     11  C   UNL     1       3.433   0.269  -7.104  0.00  0.00    +0.065 C 
ATOM     12  C   UNL     1       4.242  -0.272  -5.953  0.00  0.00    +0.167 C 
ATOM     13  N   UNL     1       3.671  -0.207  -4.625  0.00  0.00    -0.279 N 
ATOM     14  C   UNL     1       4.455  -0.727  -3.623  0.00  0.00    +0.234 C 
ATOM     15  O   UNL     1       4.061  -0.792  -2.478  0.00  0.00    -0.274 OA
ATOM     16  C   UNL     1       5.832  -1.216  -4.016  0.00  0.00    +0.204 C 
ATOM     17  N   UNL     1       6.441  -0.223  -4.919  0.00  0.00    -0.286 N 
ATOM     18  C   UNL     1       5.654   0.257  -5.925  0.00  0.00    +0.237 C 
ATOM     19  O   UNL     1       6.062   1.052  -6.744  0.00  0.00    -0.274 OA
ATOM     20  H   UNL     1      -0.276   1.429  -4.427  0.00  0.00    +0.160 HD
ENDROOT
BRANCH   1  23
ATOM     21  C   UNL     1       0.606  -0.608  -1.056  0.00  0.00    +0.165 A 
ATOM     22  C   UNL     1       1.173   0.160  -2.063  0.00  0.00    +0.055 A 
ATOM     23  C   UNL     1       1.787  -0.452  -3.139  0.00  0.00    -0.018 A 
ATOM     24  C   UNL     1       1.839  -1.831  -3.217  0.00  0.00    +0.055 A 
ATOM     25  C   UNL     1       1.275  -2.606  -2.215  0.00  0.00    +0.165 A 
ATOM     26  C   UNL     1       0.661  -1.994  -1.128  0.00  0.00    +0.204 A 
BRANCH  21  28
ATOM     27  C   UNL     1      -0.017   1.425   0.010  0.00  0.00    +0.277 C 
ATOM     28  O   UNL     1       0.002  -0.004   0.002  0.00  0.00    -0.491 OA
ENDBRANCH  21  28
BRANCH  26  29
ATOM     29  O   UNL     1       0.111  -2.751  -0.140  0.00  0.00    -0.488 OA
ATOM     30  C   UNL     1      -1.260  -3.124  -0.295  0.00  0.00    +0.277 C 
ENDBRANCH  26  29
BRANCH  25  31
ATOM     31  O   UNL     1       1.326  -3.963  -2.293  0.00  0.00    -0.491 OA
ATOM     32  C   UNL     1       1.977  -4.523  -3.435  0.00  0.00    +0.277 C 
ENDBRANCH  25  31
ENDBRANCH   1  23
BRANCH  17  33
ATOM     33  C   UNL     1       7.824   0.231  -4.745  0.00  0.00    +0.150 C 
BRANCH  33  34
ATOM     34  C   UNL     1       8.748  -0.661  -5.533  0.00  0.00    +0.007 A 
ATOM     35  C   UNL     1       9.174  -0.530  -6.813  0.00  0.00    +0.013 A 
ATOM     36  C   UNL     1      10.032  -1.480  -7.335  0.00  0.00    +0.008 A 
ATOM     37  C   UNL     1      10.422  -2.515  -6.551  0.00  0.00    +0.045 A 
ATOM     38  S   UNL     1       9.572  -2.160  -5.021  0.00  0.00    -0.100 S 
ENDBRANCH  33  34
ENDBRANCH  17  33
TORSDOF 6
