REMARK  Name = ZINC18709305
REMARK  12 active torsions:
REMARK  status: ('A' for Active; 'I' for Inactive)
REMARK    1  A    between atoms: C_1  and  C_2
REMARK    2  A    between atoms: C_2  and  C_4
REMARK    3  A    between atoms: C_2  and  N_20
REMARK    4  A    between atoms: N_6  and  C_7
REMARK    5  A    between atoms: C_10  and  S_13
REMARK    6  A    between atoms: S_13  and  N_16
REMARK    7  A    between atoms: N_16  and  C_17
REMARK    8  A    between atoms: C_17  and  C_18
REMARK    9  A    between atoms: C_17  and  C_19
REMARK   10  A    between atoms: N_20  and  C_21
REMARK   11  A    between atoms: C_21  and  C_22
REMARK   12  A    between atoms: C_21  and  C_28
REMARK                            x       y       z     vdW  Elec       q    Type
REMARK                         _______ _______ _______ _____ _____    ______ ____
ROOT
ATOM      1  C   UNL     1      -0.013   1.521  -0.004  0.00  0.00    -0.004 C 
ATOM      2  C   UNL     1       0.004  -0.009  -0.002  0.00  0.00    +0.014 C 
ENDROOT
BRANCH   2   3
ATOM      3  C   UNL     1       0.730  -0.502   1.224  0.00  0.00    +0.203 C 
ATOM      4  O   UNL     1       0.156  -1.205   2.028  0.00  0.00    -0.277 OA
ATOM      5  N   UNL     1       2.019  -0.161   1.426  0.00  0.00    -0.287 N 
ATOM      6  H   UNL     1       2.498   0.344   0.751  0.00  0.00    +0.155 HD
BRANCH   5   7
ATOM      7  C   UNL     1       2.664  -0.537   2.609  0.00  0.00    +0.033 A 
ATOM      8  C   UNL     1       3.602   0.308   3.188  0.00  0.00    +0.025 A 
ATOM      9  C   UNL     1       4.238  -0.066   4.356  0.00  0.00    +0.030 A 
ATOM     10  C   UNL     1       3.941  -1.280   4.949  0.00  0.00    +0.105 A 
ATOM     11  C   UNL     1       3.008  -2.123   4.374  0.00  0.00    +0.030 A 
ATOM     12  C   UNL     1       2.364  -1.752   3.210  0.00  0.00    +0.025 A 
BRANCH  10  13
ATOM     13  S   UNL     1       4.754  -1.752   6.439  0.00  0.00    +0.059 S 
ATOM     14  O   UNL     1       4.701  -3.171   6.498  0.00  0.00    -0.153 OA
ATOM     15  O   UNL     1       5.979  -1.034   6.479  0.00  0.00    -0.153 OA
BRANCH  13  16
ATOM     16  N   UNL     1       3.835  -1.192   7.697  0.00  0.00    -0.187 NA
ATOM     17  H   UNL     1       4.189  -0.511   8.291  0.00  0.00    +0.148 HD
BRANCH  16  18
ATOM     18  C   UNL     1       2.487  -1.724   7.914  0.00  0.00    +0.070 C 
ATOM     19  C   UNL     1       2.545  -2.857   8.940  0.00  0.00    +0.025 C 
ATOM     20  C   UNL     1       1.577  -0.610   8.435  0.00  0.00    +0.025 C 
ENDBRANCH  16  18
ENDBRANCH  13  16
ENDBRANCH  10  13
ENDBRANCH   5   7
ENDBRANCH   2   3
BRANCH   2  21
ATOM     21  N   UNL     1      -1.375  -0.515   0.011  0.00  0.00    +0.394 N 
ATOM     22  H   UNL     1      -1.364  -1.520   0.095  0.00  0.00    -0.083 HD
ATOM     23  H   UNL     1      -1.872  -0.117   0.794  0.00  0.00    -0.083 HD
BRANCH  21  24
ATOM     24  C   UNL     1      -2.047  -0.135  -1.240  0.00  0.00    -0.009 C 
BRANCH  24  25
ATOM     25  C   UNL     1      -1.379  -0.828  -2.399  0.00  0.00    -0.057 A 
ATOM     26  C   UNL     1      -0.970  -2.143  -2.276  0.00  0.00    +0.002 A 
ATOM     27  C   UNL     1      -0.357  -2.779  -3.340  0.00  0.00    +0.000 A 
ATOM     28  C   UNL     1      -0.153  -2.100  -4.526  0.00  0.00    +0.000 A 
ATOM     29  C   UNL     1      -0.562  -0.785  -4.649  0.00  0.00    +0.000 A 
ATOM     30  C   UNL     1      -1.179  -0.151  -3.587  0.00  0.00    +0.002 A 
ENDBRANCH  24  25
BRANCH  24  31
ATOM     31  C   UNL     1      -3.495  -0.546  -1.176  0.00  0.00    -0.057 A 
ATOM     32  C   UNL     1      -3.847  -1.754  -0.605  0.00  0.00    +0.002 A 
ATOM     33  C   UNL     1      -5.176  -2.131  -0.547  0.00  0.00    +0.000 A 
ATOM     34  C   UNL     1      -6.153  -1.298  -1.060  0.00  0.00    +0.000 A 
ATOM     35  C   UNL     1      -5.801  -0.089  -1.630  0.00  0.00    +0.000 A 
ATOM     36  C   UNL     1      -4.473   0.289  -1.684  0.00  0.00    +0.002 A 
ENDBRANCH  24  31
ENDBRANCH  21  24
ENDBRANCH   2  21
TORSDOF 9
