REMARK  Name = ZINC39685836
REMARK  11 active torsions:
REMARK  status: ('A' for Active; 'I' for Inactive)
REMARK    1  A    between atoms: C_1  and  C_2
REMARK    2  A    between atoms: C_2  and  C_3
REMARK    3  A    between atoms: C_2  and  C_4
REMARK    4  A    between atoms: C_4  and  C_6
REMARK    5  A    between atoms: C_4  and  N_13
REMARK    6  A    between atoms: N_8  and  C_9
REMARK    7  A    between atoms: C_9  and  C_10
REMARK    8  A    between atoms: C_9  and  C_11
REMARK    9  A    between atoms: C_9  and  C_12
REMARK   10  A    between atoms: C_14  and  C_16
REMARK   11  A    between atoms: C_27  and  C_29
REMARK                            x       y       z     vdW  Elec       q    Type
REMARK                         _______ _______ _______ _____ _____    ______ ____
ROOT
ATOM      1  C   UNL     1      -0.131  -4.134   1.495  0.00  0.00    +0.100 C 
ATOM      2  C   UNL     1      -1.494  -4.561   0.904  0.00  0.00    +0.121 C 
ATOM      3  N   UNL     1      -2.010  -5.578   1.850  0.00  0.00    -0.296 N 
ATOM      4  C   UNL     1      -1.639  -5.059   3.188  0.00  0.00    +0.115 C 
ATOM      5  C   UNL     1      -0.231  -4.462   2.994  0.00  0.00    -0.004 C 
ATOM      6  C   UNL     1      -0.079  -3.190   3.824  0.00  0.00    -0.010 C 
ATOM      7  C   UNL     1      -0.123  -3.549   5.312  0.00  0.00    -0.082 C 
ATOM      8  N   UNL     1       0.958  -4.492   5.622  0.00  0.00    +0.379 N 
ATOM      9  C   UNL     1       0.753  -5.748   4.890  0.00  0.00    -0.082 C 
ATOM     10  C   UNL     1       0.834  -5.482   3.384  0.00  0.00    -0.010 C 
ATOM     11  C   UNL     1      -2.668  -6.718   1.559  0.00  0.00    +0.249 C 
ATOM     12  O   UNL     1      -3.100  -7.416   2.456  0.00  0.00    -0.270 OA
ATOM     13  H   UNL     1       1.843  -4.088   5.353  0.00  0.00    -0.086 HD
ATOM     14  H   UNL     1       0.965  -4.680   6.613  0.00  0.00    -0.086 HD
ENDROOT
BRANCH  11  15
ATOM     15  C   UNL     1      -2.863  -7.119   0.151  0.00  0.00    +0.073 A 
ATOM     16  C   UNL     1      -3.124  -6.154  -0.824  0.00  0.00    +0.036 A 
ATOM     17  C   UNL     1      -3.305  -6.536  -2.137  0.00  0.00    +0.042 A 
ATOM     18  C   UNL     1      -3.229  -7.873  -2.491  0.00  0.00    +0.023 A 
ATOM     19  C   UNL     1      -2.972  -8.835  -1.532  0.00  0.00    +0.040 A 
ATOM     20  C   UNL     1      -2.783  -8.467  -0.212  0.00  0.00    +0.136 A 
ATOM     21  F   UNL     1      -2.525  -9.407   0.723  0.00  0.00    -0.205 F 
ATOM     22 CL   UNL     1      -3.630  -5.337  -3.350  0.00  0.00    -0.084 Cl
ENDBRANCH  11  15
BRANCH   1  24
ATOM     23  N   UNL     1      -0.861  -1.777   1.671  0.00  0.00    -0.303 N 
ATOM     24  C   UNL     1       0.088  -2.656   1.294  0.00  0.00    +0.219 C 
ATOM     25  O   UNL     1       1.118  -2.259   0.793  0.00  0.00    -0.275 OA
ATOM     26  H   UNL     1      -1.651  -2.087   2.141  0.00  0.00    +0.149 HD
BRANCH  23  27
ATOM     27  C   UNL     1      -0.700  -0.352   1.372  0.00  0.00    +0.161 C 
BRANCH  27  28
ATOM     28  C   UNL     1      -1.492   0.462   2.362  0.00  0.00    +0.234 C 
ATOM     29  O   UNL     1      -2.287  -0.084   3.098  0.00  0.00    -0.274 OA
ATOM     30  N   UNL     1      -1.317   1.797   2.431  0.00  0.00    -0.309 N 
ATOM     31  H   UNL     1      -0.635   2.225   1.890  0.00  0.00    +0.149 HD
BRANCH  30  32
ATOM     32  C   UNL     1      -2.159   2.601   3.320  0.00  0.00    +0.026 C 
ATOM     33  C   UNL     1      -1.971   2.130   4.764  0.00  0.00    +0.031 C 
ATOM     34  C   UNL     1      -1.757   4.073   3.208  0.00  0.00    +0.031 C 
ATOM     35  C   UNL     1      -3.626   2.440   2.918  0.00  0.00    +0.031 C 
ENDBRANCH  30  32
ENDBRANCH  27  28
BRANCH  27  37
ATOM     36  C   UNL     1      -0.301  -0.767  -1.059  0.00  0.00    +0.009 C 
ATOM     37  C   UNL     1      -1.206  -0.067  -0.043  0.00  0.00    +0.012 C 
ATOM     38  C   UNL     1      -2.636  -0.591  -0.188  0.00  0.00    +0.009 C 
ENDBRANCH  27  37
ENDBRANCH  23  27
ENDBRANCH   1  24
TORSDOF 6
