REMARK  Name = ZINC09542024
REMARK  7 active torsions:
REMARK  status: ('A' for Active; 'I' for Inactive)
REMARK    1  A    between atoms: C_1  and  O_2
REMARK    2  A    between atoms: O_2  and  C_3
REMARK    3  A    between atoms: C_3  and  C_5
REMARK    4  A    between atoms: C_8  and  C_11
REMARK    5  A    between atoms: C_13  and  C_25
REMARK    6  A    between atoms: C_16  and  C_18
REMARK    7  A    between atoms: C_30  and  O_31
REMARK                            x       y       z     vdW  Elec       q    Type
REMARK                         _______ _______ _______ _____ _____    ______ ____
ROOT
ATOM      1  C   UNL     1       1.351   1.549  -0.003  0.00  0.00    +0.081 C 
ATOM      2  C   UNL     1      -0.777   1.529  -1.137  0.00  0.00    -0.028 C 
ATOM      3  C   UNL     1      -0.172   0.954  -2.421  0.00  0.00    +0.044 C 
ATOM      4  C   UNL     1       1.324   1.102  -2.381  0.00  0.00    +0.040 C 
ATOM      5  N   UNL     1       1.972   1.360  -1.308  0.00  0.00    -0.299 NA
ATOM      6  N   UNL     1      -0.013   1.002   0.011  0.00  0.00    +0.401 N 
ATOM      7  H   UNL     1      -0.480   1.273   0.884  0.00  0.00    -0.081 HD
ATOM      8  H   UNL     1       0.030  -0.022  -0.050  0.00  0.00    -0.081 HD
ENDROOT
BRANCH   4   9
ATOM      9  C   UNL     1       2.080   0.945  -3.638  0.00  0.00    -0.004 A 
ATOM     10  C   UNL     1       1.409   0.658  -4.829  0.00  0.00    +0.011 A 
ATOM     11  C   UNL     1       2.121   0.517  -6.002  0.00  0.00    +0.016 A 
ATOM     12  C   UNL     1       3.499   0.648  -5.998  0.00  0.00    +0.018 A 
ATOM     13  C   UNL     1       4.171   0.927  -4.820  0.00  0.00    +0.016 A 
ATOM     14  C   UNL     1       3.470   1.076  -3.641  0.00  0.00    +0.011 A 
ATOM     15 BR   UNL     1       4.468   0.446  -7.609  0.00  0.00    -0.050 Br
ENDBRANCH   4   9
BRANCH   1  19
ATOM     16  C   UNL     1       1.204   5.729   0.889  0.00  0.00    +0.059 A 
ATOM     17  C   UNL     1       2.216   5.222   0.071  0.00  0.00    +0.015 A 
ATOM     18  C   UNL     1       2.257   3.873  -0.212  0.00  0.00    +0.004 A 
ATOM     19  C   UNL     1       1.300   3.022   0.312  0.00  0.00    -0.040 A 
ATOM     20  C   UNL     1       0.292   3.519   1.120  0.00  0.00    +0.004 A 
ATOM     21  C   UNL     1       0.242   4.865   1.416  0.00  0.00    +0.015 A 
BRANCH  16  22
ATOM     22  C   UNL     1       1.153   7.173   1.197  0.00  0.00    +0.339 C 
ATOM     23  O   UNL     1       1.992   7.922   0.737  0.00  0.00    -0.245 OA
BRANCH  22  25
ATOM     24  C   UNL     1       0.188   9.088   2.246  0.00  0.00    +0.280 C 
ATOM     25  O   UNL     1       0.176   7.659   1.987  0.00  0.00    -0.464 OA
ENDBRANCH  22  25
ENDBRANCH  16  22
ENDBRANCH   1  19
BRANCH   2  26
ATOM     26  C   UNL     1      -2.219   1.106  -1.020  0.00  0.00    -0.019 A 
ATOM     27  C   UNL     1      -2.562   0.034  -0.220  0.00  0.00    +0.005 A 
ATOM     28  C   UNL     1      -3.885  -0.355  -0.112  0.00  0.00    +0.000 A 
ATOM     29  C   UNL     1      -4.867   0.329  -0.806  0.00  0.00    +0.004 A 
ATOM     30  C   UNL     1      -4.529   1.402  -1.607  0.00  0.00    +0.045 A 
ATOM     31  C   UNL     1      -3.203   1.796  -1.713  0.00  0.00    +0.118 A 
BRANCH  31  32
ATOM     32  O   UNL     1      -2.868   2.855  -2.497  0.00  0.00    -0.507 OA
ATOM     33  H   UNL     1      -2.667   2.618  -3.413  0.00  0.00    +0.292 HD
ENDBRANCH  31  32
ENDBRANCH   2  26
TORSDOF 6
