REMARK  Name = ZINC36525279
REMARK  18 active torsions:
REMARK  status: ('A' for Active; 'I' for Inactive)
REMARK    1  A    between atoms: C_1  and  C_2
REMARK    2  A    between atoms: C_7  and  C_8
REMARK    3  A    between atoms: C_8  and  C_9
REMARK    4  A    between atoms: N_11  and  C_12
REMARK    5  A    between atoms: N_11  and  C_13
REMARK    6  A    between atoms: C_13  and  C_15
REMARK    7  A    between atoms: C_13  and  C_24
REMARK    8  A    between atoms: C_16  and  O_23
REMARK    9  A    between atoms: C_18  and  O_22
REMARK   10  A    between atoms: C_20  and  O_21
REMARK   11  A    between atoms: N_26  and  C_27
REMARK   12  A    between atoms: C_27  and  C_28
REMARK   13  A    between atoms: C_27  and  C_29
REMARK   14  A    between atoms: C_27  and  C_30
REMARK   15  A    between atoms: C_30  and  C_31
REMARK   16  A    between atoms: C_31  and  C_32
REMARK   17  A    between atoms: C_31  and  C_33
REMARK   18  A    between atoms: C_31  and  C_34
REMARK                            x       y       z     vdW  Elec       q    Type
REMARK                         _______ _______ _______ _____ _____    ______ ____
ROOT
ATOM      1  C   UNL     1      -4.168   1.187   3.471  0.00  0.00    +0.199 C 
ENDROOT
BRANCH   1   2
ATOM      2  C   UNL     1      -3.613   0.429   4.650  0.00  0.00    +0.065 A 
ATOM      3  C   UNL     1      -3.583   1.022   5.903  0.00  0.00    +0.129 A 
ATOM      4  C   UNL     1      -3.072   0.325   6.988  0.00  0.00    +0.091 A 
ATOM      5  C   UNL     1      -2.592  -0.965   6.819  0.00  0.00    +0.124 A 
ATOM      6  C   UNL     1      -2.623  -1.558   5.566  0.00  0.00    +0.091 A 
ATOM      7  C   UNL     1      -3.138  -0.863   4.482  0.00  0.00    +0.129 A 
BRANCH   7   8
ATOM      8  O   UNL     1      -3.173  -1.446   3.256  0.00  0.00    -0.506 OA
ATOM      9  H   UNL     1      -2.378  -1.296   2.726  0.00  0.00    +0.292 HD
ENDBRANCH   7   8
BRANCH   5  10
ATOM     10  O   UNL     1      -2.091  -1.648   7.882  0.00  0.00    -0.507 OA
ATOM     11  H   UNL     1      -2.751  -2.167   8.362  0.00  0.00    +0.292 HD
ENDBRANCH   5  10
BRANCH   3  12
ATOM     12  O   UNL     1      -4.053   2.286   6.068  0.00  0.00    -0.506 OA
ATOM     13  H   UNL     1      -4.996   2.331   6.277  0.00  0.00    +0.292 HD
ENDBRANCH   3  12
ENDBRANCH   1   2
BRANCH   1  16
ATOM     14  C   UNL     1      -3.742   0.589   1.148  0.00  0.00    +0.221 C 
ATOM     15  O   UNL     1      -4.916   0.309   1.035  0.00  0.00    -0.275 OA
ATOM     16  N   UNL     1      -3.266   1.037   2.326  0.00  0.00    -0.289 N 
ATOM     17  C   UNL     1      -1.847   1.375   2.463  0.00  0.00    +0.133 C 
BRANCH  14  18
ATOM     18  C   UNL     1      -2.814   0.435  -0.030  0.00  0.00    +0.131 C 
BRANCH  18  25
ATOM     19  C   UNL     1      -4.231   2.284  -1.740  0.00  0.00    +0.044 C 
ATOM     20  C   UNL     1      -4.266   0.806  -2.034  0.00  0.00    -0.047 A 
ATOM     21  C   UNL     1      -4.973   0.336  -3.126  0.00  0.00    +0.003 A 
ATOM     22  C   UNL     1      -5.005  -1.020  -3.395  0.00  0.00    +0.000 A 
ATOM     23  C   UNL     1      -4.332  -1.905  -2.574  0.00  0.00    +0.000 A 
ATOM     24  C   UNL     1      -3.625  -1.434  -1.483  0.00  0.00    +0.004 A 
ATOM     25  C   UNL     1      -3.589  -0.078  -1.216  0.00  0.00    -0.036 A 
ENDBRANCH  18  25
ENDBRANCH  14  18
ENDBRANCH   1  16
BRANCH   1  26
ATOM     26  C   UNL     1      -4.292   2.646   3.826  0.00  0.00    +0.239 C 
ATOM     27  O   UNL     1      -3.362   3.399   3.630  0.00  0.00    -0.273 OA
ATOM     28  N   UNL     1      -5.438   3.115   4.359  0.00  0.00    -0.308 N 
ATOM     29  H   UNL     1      -6.165   2.505   4.559  0.00  0.00    +0.149 HD
BRANCH  28  30
ATOM     30  C   UNL     1      -5.585   4.545   4.638  0.00  0.00    +0.030 C 
ATOM     31  C   UNL     1      -4.645   4.942   5.779  0.00  0.00    +0.031 C 
ATOM     32  C   UNL     1      -5.231   5.348   3.384  0.00  0.00    +0.031 C 
BRANCH  30  33
ATOM     33  C   UNL     1      -7.030   4.841   5.042  0.00  0.00    +0.031 C 
BRANCH  33  34
ATOM     34  C   UNL     1      -7.984   4.091   4.109  0.00  0.00    -0.036 C 
ATOM     35  C   UNL     1      -8.226   2.682   4.652  0.00  0.00    +0.010 C 
ATOM     36  C   UNL     1      -9.314   4.843   4.029  0.00  0.00    +0.010 C 
ATOM     37  C   UNL     1      -7.364   4.001   2.713  0.00  0.00    +0.010 C 
ENDBRANCH  33  34
ENDBRANCH  30  33
ENDBRANCH  28  30
ENDBRANCH   1  26
TORSDOF 11
