REMARK  Name = ZINC38547920
REMARK  8 active torsions:
REMARK  status: ('A' for Active; 'I' for Inactive)
REMARK    1  A    between atoms: C_1  and  C_2
REMARK    2  A    between atoms: C_2  and  C_3
REMARK    3  A    between atoms: C_5  and  C_16
REMARK    4  A    between atoms: C_6  and  N_8
REMARK    5  A    between atoms: C_9  and  C_11
REMARK    6  A    between atoms: C_16  and  C_18
REMARK    7  A    between atoms: C_16  and  N_27
REMARK    8  A    between atoms: C_30  and  C_34
REMARK                            x       y       z     vdW  Elec       q    Type
REMARK                         _______ _______ _______ _____ _____    ______ ____
ROOT
ATOM      1  C   UNL     1       0.584  -1.599   4.804  0.00  0.00    +0.135 C 
ENDROOT
BRANCH   1   2
ATOM      2  N   UNL     1      -0.833  -1.962   4.717  0.00  0.00    -0.320 N 
ATOM      3  C   UNL     1      -1.397  -2.791   5.679  0.00  0.00    +0.097 A 
ATOM      4  C   UNL     1      -0.613  -3.267   6.726  0.00  0.00    +0.045 A 
ATOM      5  C   UNL     1      -1.188  -4.091   7.676  0.00  0.00    -0.046 A 
ATOM      6  C   UNL     1      -2.533  -4.412   7.548  0.00  0.00    +0.021 A 
ATOM      7  C   UNL     1      -3.252  -3.904   6.485  0.00  0.00    +0.084 A 
ATOM      8  N   UNL     1      -2.678  -3.116   5.596  0.00  0.00    -0.350 N 
ATOM      9  C   UNL     1      -0.373  -4.628   8.824  0.00  0.00    +0.044 C 
ATOM     10  H   UNL     1      -1.376  -1.624   3.988  0.00  0.00    +0.148 HD
ATOM     11  H   UNL     1      -3.207  -2.769   4.860  0.00  0.00    +0.166 HD
ENDBRANCH   1   2
BRANCH   1  12
ATOM     12  C   UNL     1       0.742  -0.408   5.714  0.00  0.00    -0.019 A 
ATOM     13  C   UNL     1      -0.180   0.621   5.670  0.00  0.00    +0.009 A 
ATOM     14  C   UNL     1      -0.039   1.715   6.504  0.00  0.00    +0.050 A 
ATOM     15  C   UNL     1       1.028   1.782   7.385  0.00  0.00    +0.166 A 
ATOM     16  C   UNL     1       1.957   0.746   7.429  0.00  0.00    +0.167 A 
ATOM     17  C   UNL     1       1.806  -0.350   6.595  0.00  0.00    +0.055 A 
ATOM     18  O   UNL     1       2.902   1.046   8.367  0.00  0.00    -0.453 OA
ATOM     19  C   UNL     1       2.770   2.459   8.607  0.00  0.00    +0.466 C 
ATOM     20  O   UNL     1       1.390   2.732   8.296  0.00  0.00    -0.453 OA
ENDBRANCH   1  12
BRANCH   1  23
ATOM     21  C   UNL     1       0.731  -0.503   1.223  0.00  0.00    -0.008 A 
ATOM     22  C   UNL     1       0.235  -0.806   2.447  0.00  0.00    +0.019 A 
ATOM     23  C   UNL     1       1.099  -1.253   3.430  0.00  0.00    +0.006 A 
ATOM     24  C   UNL     1       2.423  -1.374   3.135  0.00  0.00    +0.078 A 
ATOM     25  S   UNL     1       2.469  -0.856   1.427  0.00  0.00    -0.078 S 
BRANCH  24  26
ATOM     26  N   UNL     1       3.472  -1.799   3.953  0.00  0.00    -0.273 N 
ATOM     27  C   UNL     1       4.728  -1.849   3.468  0.00  0.00    +0.284 C 
ATOM     28  O   UNL     1       4.949  -1.525   2.316  0.00  0.00    -0.266 OA
ATOM     29  H   UNL     1       3.296  -2.058   4.872  0.00  0.00    +0.156 HD
BRANCH  27  30
ATOM     30  C   UNL     1       5.829  -2.296   4.327  0.00  0.00    +0.189 A 
ATOM     31  C   UNL     1       7.142  -2.389   3.966  0.00  0.00    +0.054 A 
ATOM     32  C   UNL     1       7.839  -2.854   5.092  0.00  0.00    +0.042 A 
ATOM     33  C   UNL     1       6.932  -3.023   6.079  0.00  0.00    +0.196 A 
ATOM     34  O   UNL     1       5.722  -2.681   5.616  0.00  0.00    -0.458 OA
ENDBRANCH  27  30
ENDBRANCH  24  26
BRANCH  21  36
ATOM     35  C   UNL     1      -0.019   1.526   0.010  0.00  0.00    +0.009 C 
ATOM     36  C   UNL     1       0.002  -0.004   0.002  0.00  0.00    +0.039 C 
ENDBRANCH  21  36
ENDBRANCH   1  23
TORSDOF 6
