REMARK  Name = ZINC43262835
REMARK  10 active torsions:
REMARK  status: ('A' for Active; 'I' for Inactive)
REMARK    1  A    between atoms: C_1  and  C_2
REMARK    2  A    between atoms: C_2  and  C_3
REMARK    3  A    between atoms: C_3  and  C_5
REMARK    4  A    between atoms: C_3  and  N_22
REMARK    5  A    between atoms: C_5  and  C_7
REMARK    6  A    between atoms: C_5  and  N_13
REMARK    7  A    between atoms: N_13  and  C_14
REMARK    8  A    between atoms: N_13  and  C_17
REMARK    9  A    between atoms: C_14  and  C_15
REMARK   10  A    between atoms: C_15  and  O_16
REMARK                            x       y       z     vdW  Elec       q    Type
REMARK                         _______ _______ _______ _____ _____    ______ ____
ROOT
ATOM      1  C   UNL     1       0.606  -2.361  -1.396  0.00  0.00    +0.079 C 
ENDROOT
BRANCH   1   2
ATOM      2  C   UNL     1       1.417  -1.240  -0.799  0.00  0.00    +0.006 A 
ATOM      3  C   UNL     1       2.482  -0.585  -1.323  0.00  0.00    +0.014 A 
ATOM      4  C   UNL     1       3.077   0.423  -0.587  0.00  0.00    +0.023 A 
ATOM      5  C   UNL     1       2.578   0.726   0.637  0.00  0.00    +0.055 A 
ATOM      6  S   UNL     1       1.221  -0.426   0.777  0.00  0.00    -0.085 S 
ATOM      7 BR   UNL     1       3.162   2.034   1.871  0.00  0.00    -0.043 Br
ENDBRANCH   1   2
BRANCH   1   8
ATOM      8  C   UNL     1       0.765  -3.618  -0.539  0.00  0.00    -0.053 C 
BRANCH   8   9
ATOM      9  N   UNL     1       2.190  -3.952  -0.419  0.00  0.00    +0.381 N 
ATOM     10  H   UNL     1       2.575  -4.120  -1.337  0.00  0.00    -0.090 HD
ATOM     11  H   UNL     1       2.680  -3.184   0.016  0.00  0.00    -0.090 HD
ATOM     12  H   UNL     1       2.295  -4.781   0.146  0.00  0.00    -0.090 HD
ENDBRANCH   8   9
BRANCH   8  14
ATOM     13  C   UNL     1       0.067  -6.003  -0.277  0.00  0.00    +0.002 C 
ATOM     14  C   UNL     1       0.022  -4.782  -1.198  0.00  0.00    -0.018 C 
ENDBRANCH   8  14
ENDBRANCH   1   8
BRANCH   1  15
ATOM     15  N   UNL     1      -0.810  -1.972  -1.437  0.00  0.00    -0.291 NA
BRANCH  15  16
ATOM     16  C   UNL     1      -1.103  -1.175  -2.636  0.00  0.00    +0.057 C 
ATOM     17  C   UNL     1      -0.711  -1.963  -3.903  0.00  0.00    +0.019 C 
ATOM     18  C   UNL     1      -0.148  -0.884  -4.862  0.00  0.00    +0.002 C 
ATOM     19  C   UNL     1       0.624   0.056  -3.903  0.00  0.00    +0.002 C 
ATOM     20  C   UNL     1      -0.255   0.108  -2.636  0.00  0.00    +0.019 C 
ENDBRANCH  15  16
BRANCH  15  21
ATOM     21  C   UNL     1      -1.193  -1.248  -0.217  0.00  0.00    +0.113 C 
BRANCH  21  22
ATOM     22  C   UNL     1      -2.718  -1.231  -0.092  0.00  0.00    +0.171 C 
BRANCH  22  23
ATOM     23  O   UNL     1      -3.202  -2.571   0.017  0.00  0.00    -0.394 OA
ATOM     24  H   UNL     1      -4.164  -2.635   0.100  0.00  0.00    +0.209 HD
ENDBRANCH  22  23
ENDBRANCH  21  22
ENDBRANCH  15  21
ENDBRANCH   1  15
TORSDOF 9
