REMARK  Name = ZINC16195884
REMARK  12 active torsions:
REMARK  status: ('A' for Active; 'I' for Inactive)
REMARK    1  A    between atoms: C_1  and  O_2
REMARK    2  A    between atoms: O_2  and  C_3
REMARK    3  A    between atoms: C_5  and  C_19
REMARK    4  A    between atoms: C_8  and  O_9
REMARK    5  A    between atoms: O_9  and  C_10
REMARK    6  A    between atoms: C_10  and  C_11
REMARK    7  A    between atoms: C_19  and  N_54
REMARK    8  A    between atoms: C_20  and  C_21
REMARK    9  A    between atoms: C_20  and  N_54
REMARK   10  A    between atoms: C_21  and  N_22
REMARK   11  A    between atoms: N_22  and  C_23
REMARK   12  A    between atoms: C_26  and  N_30
REMARK                            x       y       z     vdW  Elec       q    Type
REMARK                         _______ _______ _______ _____ _____    ______ ____
ROOT
ATOM      1  C   UNL     1      -2.369   1.252   2.957  0.00  0.00    +0.163 A 
ATOM      2  C   UNL     1      -1.719   0.807   1.816  0.00  0.00    +0.051 A 
ATOM      3  C   UNL     1      -0.718   1.572   1.248  0.00  0.00    -0.059 A 
ATOM      4  C   UNL     1      -0.358   2.779   1.817  0.00  0.00    +0.025 A 
ATOM      5  C   UNL     1      -1.006   3.232   2.953  0.00  0.00    +0.086 A 
ATOM      6  C   UNL     1      -2.011   2.469   3.528  0.00  0.00    +0.181 A 
ATOM      7 CL   UNL     1      -0.557   4.752   3.661  0.00  0.00    -0.080 Cl
ENDROOT
BRANCH   1   9
ATOM      8  C   UNL     1      -3.669  -0.739   2.877  0.00  0.00    +0.277 C 
ATOM      9  O   UNL     1      -3.354   0.500   3.517  0.00  0.00    -0.491 OA
ENDBRANCH   1   9
BRANCH   6  10
ATOM     10  O   UNL     1      -2.647   2.909   4.647  0.00  0.00    -0.482 OA
BRANCH  10  11
ATOM     11  C   UNL     1      -2.086   2.527   5.904  0.00  0.00    +0.267 C 
BRANCH  11  12
ATOM     12  C   UNL     1      -2.917   3.103   7.021  0.00  0.00    +0.025 A 
ATOM     13  C   UNL     1      -4.027   3.874   6.730  0.00  0.00    +0.010 A 
ATOM     14  C   UNL     1      -4.793   4.398   7.754  0.00  0.00    +0.001 A 
ATOM     15  C   UNL     1      -4.444   4.161   9.071  0.00  0.00    +0.003 A 
ATOM     16  C   UNL     1      -3.332   3.395   9.364  0.00  0.00    +0.039 A 
ATOM     17  C   UNL     1      -2.567   2.865   8.339  0.00  0.00    +0.130 A 
ATOM     18  F   UNL     1      -1.479   2.117   8.625  0.00  0.00    -0.205 F 
ENDBRANCH  11  12
ENDBRANCH  10  11
ENDBRANCH   6  10
BRANCH   3  19
ATOM     19  C   UNL     1      -0.013   1.086   0.008  0.00  0.00    -0.047 C 
BRANCH  19  20
ATOM     20  N   UNL     1      -0.732   1.579  -1.182  0.00  0.00    +0.383 N 
ATOM     21  H   UNL     1      -0.746   2.605  -1.168  0.00  0.00    -0.085 HD
ATOM     22  H   UNL     1      -1.695   1.223  -1.167  0.00  0.00    -0.085 HD
BRANCH  20  23
ATOM     23  C   UNL     1      -0.062   1.117  -2.413  0.00  0.00    -0.063 C 
BRANCH  23  24
ATOM     24  C   UNL     1      -0.829   1.643  -3.628  0.00  0.00    +0.082 C 
BRANCH  24  25
ATOM     25  N   UNL     1      -0.171   1.188  -4.855  0.00  0.00    -0.345 N 
ATOM     26  H   UNL     1       0.628   0.640  -4.802  0.00  0.00    +0.146 HD
BRANCH  25  27
ATOM     27  C   UNL     1      -0.692   1.545  -6.101  0.00  0.00    +0.046 A 
ATOM     28  C   UNL     1      -1.835   2.330  -6.178  0.00  0.00    +0.026 A 
ATOM     29  C   UNL     1      -2.348   2.681  -7.412  0.00  0.00    +0.034 A 
ATOM     30  C   UNL     1      -1.726   2.252  -8.570  0.00  0.00    +0.128 A 
ATOM     31  C   UNL     1      -0.587   1.470  -8.497  0.00  0.00    +0.054 A 
ATOM     32  C   UNL     1      -0.065   1.120  -7.266  0.00  0.00    +0.064 A 
ATOM     33 CL   UNL     1       1.368   0.145  -7.176  0.00  0.00    -0.082 Cl
BRANCH  30  34
ATOM     34  N   UNL     1      -2.278   2.631  -9.889  0.00  0.00    +0.056 N 
ATOM     35  O   UNL     1      -3.281   3.320  -9.955  0.00  0.00    -0.126 OA
ATOM     36  O   UNL     1      -1.731   2.254 -10.910  0.00  0.00    -0.126 OA
ENDBRANCH  30  34
ENDBRANCH  25  27
ENDBRANCH  24  25
ENDBRANCH  23  24
ENDBRANCH  20  23
ENDBRANCH  19  20
ENDBRANCH   3  19
TORSDOF 11
