REMARK  Name = ZINC66214460
REMARK  11 active torsions:
REMARK  status: ('A' for Active; 'I' for Inactive)
REMARK    1  A    between atoms: C_1  and  C_2
REMARK    2  A    between atoms: C_2  and  C_3
REMARK    3  A    between atoms: C_3  and  C_5
REMARK    4  A    between atoms: C_3  and  N_6
REMARK    5  A    between atoms: C_7  and  C_9
REMARK    6  A    between atoms: C_12  and  N_15
REMARK    7  A    between atoms: C_16  and  C_18
REMARK    8  A    between atoms: C_18  and  N_19
REMARK    9  A    between atoms: N_19  and  C_20
REMARK   10  A    between atoms: C_20  and  C_21
REMARK   11  A    between atoms: C_21  and  C_22
REMARK                            x       y       z     vdW  Elec       q    Type
REMARK                         _______ _______ _______ _____ _____    ______ ____
ROOT
ATOM      1  N   UNL     1       8.241   1.617  -2.170  0.00  0.00    -0.287 N 
ATOM      2  C   UNL     1       8.966   1.667  -3.305  0.00  0.00    +0.200 C 
ATOM      3  O   UNL     1       8.433   1.464  -4.375  0.00  0.00    -0.278 OA
ATOM      4  H   UNL     1       8.649   1.853  -1.323  0.00  0.00    +0.155 HD
ENDROOT
BRANCH   1   8
ATOM      5  C   UNL     1       4.247   0.442  -2.302  0.00  0.00    +0.037 A 
ATOM      6  C   UNL     1       5.171  -0.117  -3.189  0.00  0.00    +0.015 A 
ATOM      7  C   UNL     1       6.490   0.274  -3.143  0.00  0.00    +0.024 A 
ATOM      8  C   UNL     1       6.904   1.224  -2.214  0.00  0.00    +0.033 A 
ATOM      9  C   UNL     1       5.987   1.782  -1.330  0.00  0.00    +0.024 A 
ATOM     10  C   UNL     1       4.665   1.400  -1.374  0.00  0.00    +0.015 A 
BRANCH   5  12
ATOM     11  N   UNL     1       2.430  -0.898  -3.243  0.00  0.00    -0.309 N 
ATOM     12  C   UNL     1       2.831   0.026  -2.348  0.00  0.00    +0.244 C 
ATOM     13  O   UNL     1       2.028   0.517  -1.579  0.00  0.00    -0.270 OA
ATOM     14  H   UNL     1       3.071  -1.290  -3.857  0.00  0.00    +0.149 HD
BRANCH  11  15
ATOM     15  C   UNL     1       1.025  -1.311  -3.290  0.00  0.00    +0.070 C 
ATOM     16  C   UNL     1       0.235  -0.335  -4.163  0.00  0.00    +0.028 C 
BRANCH  15  18
ATOM     17  C   UNL     1       1.611  -3.715  -2.942  0.00  0.00    +0.005 C 
ATOM     18  C   UNL     1       0.927  -2.719  -3.881  0.00  0.00    +0.018 C 
ENDBRANCH  15  18
ENDBRANCH  11  15
ENDBRANCH   5  12
ENDBRANCH   1   8
BRANCH   2  19
ATOM     19  C   UNL     1      10.440   1.976  -3.244  0.00  0.00    +0.015 C 
BRANCH  19  20
ATOM     20  N   UNL     1      10.998   1.972  -4.603  0.00  0.00    +0.385 N 
ATOM     21  H   UNL     1      10.862   1.063  -5.020  0.00  0.00    -0.085 HD
ATOM     22  H   UNL     1      10.531   2.672  -5.160  0.00  0.00    -0.085 HD
BRANCH  20  23
ATOM     23  C   UNL     1      12.435   2.273  -4.543  0.00  0.00    -0.078 C 
BRANCH  23  24
ATOM     24  C   UNL     1      13.016   2.269  -5.958  0.00  0.00    +0.011 C 
BRANCH  24  25
ATOM     25  C   UNL     1      14.489   2.578  -5.897  0.00  0.00    -0.075 C 
ATOM     26  C   UNL     1      15.318   1.583  -5.880  0.00  0.00    -0.028 C 
ATOM     27  C   UNL     1      16.809   1.732  -5.810  0.00  0.00    +0.027 C 
ATOM     28  C   UNL     1      17.215   3.159  -6.187  0.00  0.00    +0.004 C 
ATOM     29  C   UNL     1      16.353   4.137  -5.379  0.00  0.00    +0.005 C 
ATOM     30  C   UNL     1      14.906   4.019  -5.866  0.00  0.00    +0.030 C 
ENDBRANCH  24  25
ENDBRANCH  23  24
ENDBRANCH  20  23
ENDBRANCH  19  20
ENDBRANCH   2  19
TORSDOF 9
