REMARK  Name = ZINC38791130
REMARK  6 active torsions:
REMARK  status: ('A' for Active; 'I' for Inactive)
REMARK    1  A    between atoms: C_4  and  C_7
REMARK    2  A    between atoms: C_7  and  C_9
REMARK    3  A    between atoms: C_7  and  S_20
REMARK    4  A    between atoms: C_9  and  C_11
REMARK    5  A    between atoms: S_20  and  C_21
REMARK    6  A    between atoms: C_23  and  N_28
REMARK                            x       y       z     vdW  Elec       q    Type
REMARK                         _______ _______ _______ _____ _____    ______ ____
ROOT
ATOM      1  C   UNL     1       3.711  -0.707  -0.038  0.00  0.00    +0.155 C 
ENDROOT
BRANCH   1   5
ATOM      2  C   UNL     1      -0.017   1.378   0.010  0.00  0.00    +0.000 A 
ATOM      3  C   UNL     1       1.171   2.086   0.002  0.00  0.00    +0.000 A 
ATOM      4  C   UNL     1       2.377   1.411  -0.013  0.00  0.00    +0.005 A 
ATOM      5  C   UNL     1       2.396   0.029  -0.020  0.00  0.00    -0.027 A 
ATOM      6  C   UNL     1       1.208  -0.679  -0.012  0.00  0.00    +0.005 A 
ATOM      7  C   UNL     1       0.002  -0.004   0.002  0.00  0.00    +0.000 A 
ENDBRANCH   1   5
BRANCH   1   8
ATOM      8  C   UNL     1       3.790  -1.566  -1.273  0.00  0.00    +0.179 C 
ATOM      9  O   UNL     1       3.467  -2.736  -1.221  0.00  0.00    -0.291 OA
BRANCH   8  10
ATOM     10  C   UNL     1       4.238  -1.012  -2.491  0.00  0.00    +0.025 C 
ATOM     11  C   UNL     1       4.363  -1.657  -3.708  0.00  0.00    +0.006 A 
ATOM     12  C   UNL     1       4.108  -2.984  -4.124  0.00  0.00    +0.010 A 
ATOM     13  C   UNL     1       4.325  -3.350  -5.407  0.00  0.00    +0.001 A 
ATOM     14  C   UNL     1       4.804  -2.453  -6.376  0.00  0.00    +0.002 A 
ATOM     15  C   UNL     1       5.079  -1.164  -6.082  0.00  0.00    +0.026 A 
ATOM     16  C   UNL     1       4.870  -0.683  -4.706  0.00  0.00    +0.043 A 
ATOM     17  N   UNL     1       5.050   0.484  -4.156  0.00  0.00    -0.380 N 
ATOM     18  C   UNL     1       4.677   0.415  -2.740  0.00  0.00    +0.152 C 
ATOM     19  H   UNL     1       5.375   1.275  -4.613  0.00  0.00    +0.160 HD
ENDBRANCH   8  10
ENDBRANCH   1   8
BRANCH   1  20
ATOM     20  S   UNL     1       3.837  -1.756   1.437  0.00  0.00    -0.072 S 
BRANCH  20  21
ATOM     21  C   UNL     1       3.879  -0.609   2.774  0.00  0.00    +0.172 A 
ATOM     22  N   UNL     1       3.813   0.682   2.519  0.00  0.00    -0.209 NA
ATOM     23  C   UNL     1       3.842   1.585   3.506  0.00  0.00    +0.124 A 
ATOM     24  C   UNL     1       3.942   1.161   4.824  0.00  0.00    +0.113 A 
ATOM     25  C   UNL     1       4.011  -0.210   5.086  0.00  0.00    +0.254 A 
ATOM     26  N   UNL     1       3.972  -1.075   4.051  0.00  0.00    -0.302 N 
ATOM     27  O   UNL     1       4.100  -0.619   6.233  0.00  0.00    -0.268 OA
ATOM     28  H   UNL     1       4.015  -2.030   4.215  0.00  0.00    +0.171 HD
BRANCH  23  29
ATOM     29  N   UNL     1       3.772   2.932   3.214  0.00  0.00    -0.343 N 
ATOM     30  H   UNL     1       3.703   3.226   2.292  0.00  0.00    +0.144 HD
ATOM     31  H   UNL     1       3.793   3.585   3.931  0.00  0.00    +0.144 HD
ENDBRANCH  23  29
ENDBRANCH  20  21
ENDBRANCH   1  20
TORSDOF 6
