REMARK  Name = ZINC13243041
REMARK  11 active torsions:
REMARK  status: ('A' for Active; 'I' for Inactive)
REMARK    1  A    between atoms: C_1  and  C_2
REMARK    2  A    between atoms: C_3  and  C_33
REMARK    3  A    between atoms: N_9  and  C_29
REMARK    4  A    between atoms: C_10  and  S_12
REMARK    5  A    between atoms: S_12  and  C_13
REMARK    6  A    between atoms: C_13  and  C_14
REMARK    7  A    between atoms: N_16  and  C_17
REMARK    8  A    between atoms: C_26  and  C_27
REMARK    9  A    between atoms: C_29  and  C_30
REMARK   10  A    between atoms: C_30  and  O_31
REMARK   11  A    between atoms: O_31  and  C_32
REMARK                            x       y       z     vdW  Elec       q    Type
REMARK                         _______ _______ _______ _____ _____    ______ ____
ROOT
ATOM      1  C   UNL     1      -4.744   4.216   0.367  0.00  0.00    +0.173 C 
ENDROOT
BRANCH   1   2
ATOM      2  C   UNL     1      -3.481   3.421   0.155  0.00  0.00    +0.228 C 
ATOM      3  O   UNL     1      -2.434   3.992  -0.064  0.00  0.00    -0.275 OA
ATOM      4  N   UNL     1      -3.515   2.074   0.210  0.00  0.00    -0.284 N 
ATOM      5  H   UNL     1      -4.364   1.614   0.312  0.00  0.00    +0.155 HD
BRANCH   4   6
ATOM      6  C   UNL     1      -2.332   1.342   0.119  0.00  0.00    +0.048 A 
ATOM      7  C   UNL     1      -1.382   1.704  -0.792  0.00  0.00    +0.032 A 
ATOM      8  C   UNL     1      -0.190   0.969  -0.893  0.00  0.00    -0.016 A 
ATOM      9  C   UNL     1       0.801   1.321  -1.827  0.00  0.00    +0.008 A 
ATOM     10  C   UNL     1       1.949   0.594  -1.899  0.00  0.00    +0.001 A 
ATOM     11  C   UNL     1       2.162  -0.498  -1.058  0.00  0.00    +0.001 A 
ATOM     12  C   UNL     1       1.228  -0.869  -0.141  0.00  0.00    +0.008 A 
ATOM     13  C   UNL     1       0.027  -0.142  -0.037  0.00  0.00    -0.017 A 
ATOM     14  C   UNL     1      -0.955  -0.500   0.898  0.00  0.00    +0.025 A 
ATOM     15  C   UNL     1      -2.126   0.238   0.975  0.00  0.00    +0.085 A 
BRANCH  15  16
ATOM     16  C   UNL     1      -3.162  -0.133   1.956  0.00  0.00    +0.388 C 
ATOM     17  O   UNL     1      -4.173   0.534   2.053  0.00  0.00    -0.241 OA
ATOM     18  O   UNL     1      -2.988  -1.212   2.744  0.00  0.00    -0.241 OA
ENDBRANCH  15  16
ENDBRANCH   4   6
ENDBRANCH   1   2
BRANCH   1  19
ATOM     19  S   UNL     1      -4.374   5.982   0.234  0.00  0.00    -0.078 S 
BRANCH  19  29
ATOM     20  C   UNL     1     -10.301   9.494   1.236  0.00  0.00    +0.045 C 
ATOM     21  C   UNL     1      -9.873   8.050   1.206  0.00  0.00    -0.026 A 
ATOM     22  C   UNL     1     -10.768   7.072   1.410  0.00  0.00    -0.008 A 
ATOM     23  S   UNL     1      -9.795   5.584   1.278  0.00  0.00    -0.073 S 
ATOM     24  C   UNL     1      -8.213   6.318   0.951  0.00  0.00    +0.117 A 
ATOM     25  C   UNL     1      -8.485   7.699   0.954  0.00  0.00    +0.075 A 
ATOM     26  C   UNL     1      -7.365   8.555   0.711  0.00  0.00    +0.263 A 
ATOM     27  O   UNL     1      -7.505   9.766   0.696  0.00  0.00    -0.267 OA
ATOM     28  N   UNL     1      -6.155   8.007   0.501  0.00  0.00    -0.285 N 
ATOM     29  C   UNL     1      -5.979   6.653   0.515  0.00  0.00    +0.173 A 
ATOM     30  N   UNL     1      -6.994   5.841   0.732  0.00  0.00    -0.216 NA
ATOM     31  C   UNL     1     -12.244   7.201   1.687  0.00  0.00    +0.052 C 
BRANCH  28  32
ATOM     32  C   UNL     1      -5.004   8.878   0.252  0.00  0.00    +0.155 C 
BRANCH  32  33
ATOM     33  C   UNL     1      -4.872   9.132  -1.251  0.00  0.00    +0.181 C 
BRANCH  33  34
ATOM     34  O   UNL     1      -6.008   9.865  -1.712  0.00  0.00    -0.381 OA
ATOM     35  C   UNL     1      -5.984  10.156  -3.111  0.00  0.00    +0.194 C 
ENDBRANCH  33  34
ENDBRANCH  32  33
ENDBRANCH  28  32
ENDBRANCH  19  29
ENDBRANCH   1  19
TORSDOF 8
