REMARK  Name = ZINC08884534
REMARK  9 active torsions:
REMARK  status: ('A' for Active; 'I' for Inactive)
REMARK    1  A    between atoms: C_3  and  S_29
REMARK    2  A    between atoms: C_6  and  N_7
REMARK    3  A    between atoms: C_8  and  C_10
REMARK    4  A    between atoms: C_10  and  O_11
REMARK    5  A    between atoms: O_11  and  C_12
REMARK    6  A    between atoms: C_12  and  C_14
REMARK    7  A    between atoms: N_17  and  C_20
REMARK    8  A    between atoms: C_23  and  C_25
REMARK    9  A    between atoms: S_29  and  N_32
REMARK                            x       y       z     vdW  Elec       q    Type
REMARK                         _______ _______ _______ _____ _____    ______ ____
ROOT
ATOM      1  C   UNL     1      -5.361   3.735   7.889  0.00  0.00    +0.311 C 
ATOM      2  O   UNL     1      -5.920   4.799   7.771  0.00  0.00    -0.251 OA
ENDROOT
BRANCH   1   3
ATOM      3  C   UNL     1      -4.711   3.089   6.692  0.00  0.00    +0.101 C 
ATOM      4  C   UNL     1      -4.902   3.981   5.462  0.00  0.00    +0.033 C 
ATOM      5  C   UNL     1      -4.190   3.349   4.264  0.00  0.00    +0.107 C 
ATOM      6  N   UNL     1      -2.760   3.200   4.566  0.00  0.00    -0.317 N 
ATOM      7  C   UNL     1      -2.550   2.310   5.714  0.00  0.00    +0.107 C 
ATOM      8  C   UNL     1      -3.213   2.910   6.955  0.00  0.00    +0.033 C 
BRANCH   6   9
ATOM      9  C   UNL     1      -2.061   2.751   3.452  0.00  0.00    +0.099 A 
ATOM     10  C   UNL     1      -0.687   2.547   3.537  0.00  0.00    +0.042 A 
ATOM     11  C   UNL     1      -0.003   2.100   2.421  0.00  0.00    +0.017 A 
ATOM     12  C   UNL     1      -0.719   1.871   1.253  0.00  0.00    +0.071 A 
ATOM     13  C   UNL     1      -2.080   2.099   1.238  0.00  0.00    +0.096 A 
ATOM     14  N   UNL     1      -2.785   2.533   2.316  0.00  0.00    -0.349 N 
ATOM     15  H   UNL     1      -3.800   2.687   2.279  0.00  0.00    +0.167 HD
BRANCH  12  16
ATOM     16  C   UNL     1      -0.015   1.383   0.013  0.00  0.00    +0.419 C 
ATOM     17  F   UNL     1      -0.006  -0.016   0.001  0.00  0.00    -0.166 F 
ATOM     18  F   UNL     1       1.301   1.858   0.005  0.00  0.00    -0.166 F 
ATOM     19  F   UNL     1      -0.687   1.854  -1.121  0.00  0.00    -0.166 F 
ENDBRANCH  12  16
ENDBRANCH   6   9
ENDBRANCH   1   3
BRANCH   1  20
ATOM     20  O   UNL     1      -5.318   3.127   9.085  0.00  0.00    -0.455 OA
BRANCH  20  21
ATOM     21  C   UNL     1      -5.965   3.807  10.193  0.00  0.00    +0.328 C 
BRANCH  21  23
ATOM     22  N   UNL     1      -6.341   3.418  12.606  0.00  0.00    -0.283 N 
ATOM     23  C   UNL     1      -5.816   2.981  11.445  0.00  0.00    +0.255 C 
ATOM     24  O   UNL     1      -5.223   1.924  11.407  0.00  0.00    -0.272 OA
ATOM     25  H   UNL     1      -6.757   4.293  12.652  0.00  0.00    +0.155 HD
BRANCH  22  31
ATOM     26  C   UNL     1      -7.332   2.627  14.662  0.00  0.00    +0.025 A 
ATOM     27  C   UNL     1      -7.278   1.822  15.784  0.00  0.00    +0.030 A 
ATOM     28  C   UNL     1      -6.182   1.008  16.001  0.00  0.00    +0.105 A 
ATOM     29  C   UNL     1      -5.138   0.992  15.094  0.00  0.00    +0.030 A 
ATOM     30  C   UNL     1      -5.188   1.790  13.967  0.00  0.00    +0.025 A 
ATOM     31  C   UNL     1      -6.288   2.609  13.747  0.00  0.00    +0.034 A 
BRANCH  28  32
ATOM     32  S   UNL     1      -6.114  -0.011  17.437  0.00  0.00    +0.056 S 
ATOM     33  O   UNL     1      -7.458  -0.221  17.849  0.00  0.00    -0.153 OA
ATOM     34  O   UNL     1      -5.234  -1.085  17.132  0.00  0.00    -0.153 OA
BRANCH  32  35
ATOM     35  N   UNL     1      -5.386   0.874  18.632  0.00  0.00    -0.204 NA
ATOM     36  H   UNL     1      -5.091   1.780  18.453  0.00  0.00    +0.144 HD
ATOM     37  H   UNL     1      -5.253   0.485  19.511  0.00  0.00    +0.144 HD
ENDBRANCH  32  35
ENDBRANCH  28  32
ENDBRANCH  22  31
ENDBRANCH  21  23
ENDBRANCH  20  21
ENDBRANCH   1  20
TORSDOF 9
