REMARK  Name = ZINC13574228
REMARK  5 active torsions:
REMARK  status: ('A' for Active; 'I' for Inactive)
REMARK    1  A    between atoms: C_3  and  C_6
REMARK    2  A    between atoms: C_8  and  C_26
REMARK    3  A    between atoms: C_13  and  C_15
REMARK    4  A    between atoms: N_17  and  C_18
REMARK    5  A    between atoms: C_21  and  O_24
REMARK                            x       y       z     vdW  Elec       q    Type
REMARK                         _______ _______ _______ _____ _____    ______ ____
ROOT
ATOM      1  C   UNL     1       0.914   5.128   0.048  0.00  0.00    +0.082 A 
ATOM      2  C   UNL     1       2.306   5.390   0.044  0.00  0.00    +0.061 A 
ATOM      3  C   UNL     1       2.739   6.668   0.043  0.00  0.00    +0.149 A 
ATOM      4  N   UNL     1       1.822   7.687   0.046  0.00  0.00    -0.208 N 
ATOM      5  C   UNL     1       0.479   7.400   0.049  0.00  0.00    +0.176 A 
ATOM      6  N   UNL     1       0.051   6.131   0.045  0.00  0.00    -0.226 NA
ATOM      7  C   UNL     1      -0.198   8.612   0.051  0.00  0.00    +0.117 A 
ATOM      8  C   UNL     1       0.761   9.631   0.049  0.00  0.00    +0.168 A 
ATOM      9  N   UNL     1       1.965   9.079   0.046  0.00  0.00    -0.158 NA
ATOM     10 CL   UNL     1      -1.921   8.825   0.056  0.00  0.00    -0.077 Cl
ENDROOT
BRANCH   1  13
ATOM     11  C   UNL     1      -1.080   1.916   0.048  0.00  0.00    +0.008 A 
ATOM     12  C   UNL     1      -0.865   3.274   0.053  0.00  0.00    +0.017 A 
ATOM     13  C   UNL     1       0.426   3.737   0.049  0.00  0.00    +0.038 A 
ATOM     14  S   UNL     1       1.362   2.217   0.046  0.00  0.00    -0.095 S 
ATOM     15  C   UNL     1      -0.011   1.075   0.050  0.00  0.00    +0.046 A 
ENDBRANCH   1  13
BRANCH   8  16
ATOM     16  C   UNL     1       0.478  11.082   0.051  0.00  0.00    +0.270 C 
ATOM     17  O   UNL     1      -0.672  11.477   0.054  0.00  0.00    -0.268 OA
ATOM     18  N   UNL     1       1.494  11.967   0.048  0.00  0.00    -0.280 N 
ATOM     19  H   UNL     1       2.410  11.654   0.112  0.00  0.00    +0.155 HD
BRANCH  18  20
ATOM     20  C   UNL     1       1.228  13.338  -0.049  0.00  0.00    +0.034 A 
ATOM     21  C   UNL     1       2.098  14.168  -0.744  0.00  0.00    +0.027 A 
ATOM     22  C   UNL     1       1.833  15.519  -0.843  0.00  0.00    +0.047 A 
ATOM     23  C   UNL     1       0.703  16.050  -0.238  0.00  0.00    +0.117 A 
ATOM     24  C   UNL     1      -0.164  15.223   0.461  0.00  0.00    +0.047 A 
ATOM     25  C   UNL     1       0.097  13.871   0.556  0.00  0.00    +0.027 A 
BRANCH  23  26
ATOM     26  O   UNL     1       0.445  17.382  -0.331  0.00  0.00    -0.507 OA
ATOM     27  H   UNL     1       0.832  17.908   0.382  0.00  0.00    +0.292 HD
ENDBRANCH  23  26
ENDBRANCH  18  20
ENDBRANCH   8  16
BRANCH   3  28
ATOM     28  C   UNL     1       4.215   6.973   0.040  0.00  0.00    +0.434 C 
ATOM     29  F   UNL     1       4.936   5.780  -0.077  0.00  0.00    -0.164 F 
ATOM     30  F   UNL     1       4.516   7.808  -1.042  0.00  0.00    -0.164 F 
ATOM     31  F   UNL     1       4.561   7.613   1.234  0.00  0.00    -0.164 F 
ENDBRANCH   3  28
TORSDOF 5
