REMARK  Name = ZINC63948659
REMARK  12 active torsions:
REMARK  status: ('A' for Active; 'I' for Inactive)
REMARK    1  A    between atoms: C_1  and  C_2
REMARK    2  A    between atoms: C_4  and  C_13
REMARK    3  A    between atoms: C_13  and  C_14
REMARK    4  A    between atoms: C_14  and  N_15
REMARK    5  A    between atoms: C_16  and  C_18
REMARK    6  A    between atoms: C_24  and  C_26
REMARK    7  A    between atoms: C_28  and  O_36
REMARK    8  A    between atoms: C_29  and  O_34
REMARK    9  A    between atoms: C_30  and  O_32
REMARK   10  A    between atoms: O_32  and  C_33
REMARK   11  A    between atoms: O_34  and  C_35
REMARK   12  A    between atoms: O_36  and  C_37
REMARK                            x       y       z     vdW  Elec       q    Type
REMARK                         _______ _______ _______ _____ _____    ______ ____
ROOT
ATOM      1  C   UNL     1       1.698  -1.931  -7.209  0.00  0.00    +0.078 C 
ATOM      2  C   UNL     1       0.297  -2.487  -7.476  0.00  0.00    +0.032 C 
ATOM      3  C   UNL     1      -0.256  -1.869  -8.764  0.00  0.00    +0.109 C 
ATOM      4  N   UNL     1       0.704  -2.104  -9.852  0.00  0.00    -0.297 N 
ATOM      5  C   UNL     1       2.101  -1.690  -9.663  0.00  0.00    +0.109 C 
ATOM      6  C   UNL     1       2.627  -2.310  -8.365  0.00  0.00    +0.032 C 
ATOM      7  C   UNL     1       0.310  -2.689 -11.000  0.00  0.00    +0.247 C 
ATOM      8  O   UNL     1       1.097  -2.816 -11.919  0.00  0.00    -0.270 OA
ENDROOT
BRANCH   7   9
ATOM      9  C   UNL     1      -1.076  -3.176 -11.144  0.00  0.00    +0.044 A 
ATOM     10  C   UNL     1      -2.148  -2.333 -10.842  0.00  0.00    +0.062 A 
ATOM     11  C   UNL     1      -3.445  -2.792 -10.977  0.00  0.00    +0.166 A 
ATOM     12  C   UNL     1      -3.683  -4.092 -11.413  0.00  0.00    +0.204 A 
ATOM     13  C   UNL     1      -2.616  -4.934 -11.714  0.00  0.00    +0.166 A 
ATOM     14  C   UNL     1      -1.317  -4.479 -11.587  0.00  0.00    +0.062 A 
BRANCH  13  15
ATOM     15  O   UNL     1      -2.852  -6.205 -12.140  0.00  0.00    -0.491 OA
ATOM     16  C   UNL     1      -1.711  -7.014 -12.431  0.00  0.00    +0.277 C 
ENDBRANCH  13  15
BRANCH  12  17
ATOM     17  O   UNL     1      -4.960  -4.541 -11.545  0.00  0.00    -0.488 OA
ATOM     18  C   UNL     1      -5.588  -4.347 -12.814  0.00  0.00    +0.277 C 
ENDBRANCH  12  17
BRANCH  11  19
ATOM     19  O   UNL     1      -4.490  -1.972 -10.684  0.00  0.00    -0.491 OA
ATOM     20  C   UNL     1      -4.173  -0.650 -10.241  0.00  0.00    +0.277 C 
ENDBRANCH  11  19
ENDBRANCH   7   9
BRANCH   1  22
ATOM     21  N   UNL     1       1.573  -2.305  -4.768  0.00  0.00    -0.315 N 
ATOM     22  C   UNL     1       2.232  -2.511  -5.925  0.00  0.00    +0.216 C 
ATOM     23  O   UNL     1       3.255  -3.163  -5.933  0.00  0.00    -0.276 OA
ATOM     24  H   UNL     1       0.754  -1.784  -4.761  0.00  0.00    +0.149 HD
BRANCH  21  25
ATOM     25  C   UNL     1       2.091  -2.869  -3.519  0.00  0.00    +0.108 C 
BRANCH  25  26
ATOM     26  C   UNL     1       1.162  -2.490  -2.364  0.00  0.00    +0.052 C 
BRANCH  26  29
ATOM     27  C   UNL     1       1.024  -1.466   0.709  0.00  0.00    +0.035 C 
ATOM     28  C   UNL     1       1.089  -2.938   0.300  0.00  0.00    +0.103 C 
ATOM     29  C   UNL     1       1.696  -3.070  -1.079  0.00  0.00    -0.037 C 
ATOM     30  C   UNL     1       2.815  -3.814  -0.926  0.00  0.00    +0.002 A 
ATOM     31  C   UNL     1       3.832  -4.287  -1.873  0.00  0.00    +0.048 A 
ATOM     32  C   UNL     1       4.863  -5.032  -1.411  0.00  0.00    +0.124 A 
ATOM     33  C   UNL     1       4.984  -5.363  -0.052  0.00  0.00    +0.040 A 
ATOM     34  C   UNL     1       4.090  -4.964   0.876  0.00  0.00    +0.029 A 
ATOM     35  C   UNL     1       2.966  -4.176   0.502  0.00  0.00    +0.043 A 
ATOM     36  N   UNL     1       1.977  -3.676   1.205  0.00  0.00    -0.378 N 
ATOM     37  F   UNL     1       5.800  -5.470  -2.281  0.00  0.00    -0.205 F 
ATOM     38  H   UNL     1       1.854  -3.776   2.162  0.00  0.00    +0.160 HD
ENDBRANCH  26  29
ENDBRANCH  25  26
ENDBRANCH  21  25
ENDBRANCH   1  22
TORSDOF 8
