REMARK  Name = ZINC39627341
REMARK  9 active torsions:
REMARK  status: ('A' for Active; 'I' for Inactive)
REMARK    1  A    between atoms: C_1  and  N_2
REMARK    2  A    between atoms: N_2  and  C_3
REMARK    3  A    between atoms: N_2  and  C_4
REMARK    4  A    between atoms: C_4  and  C_5
REMARK    5  A    between atoms: C_5  and  C_6
REMARK    6  A    between atoms: C_6  and  N_7
REMARK    7  A    between atoms: C_8  and  C_10
REMARK    8  A    between atoms: C_21  and  C_23
REMARK    9  A    between atoms: C_27  and  C_29
REMARK                            x       y       z     vdW  Elec       q    Type
REMARK                         _______ _______ _______ _____ _____    ______ ____
ROOT
ATOM      1  C   UNL     1      -3.652  -6.846  -0.469  0.00  0.00    +0.100 C 
ATOM      2  C   UNL     1      -2.888  -7.160   0.837  0.00  0.00    +0.121 C 
ATOM      3  N   UNL     1      -3.949  -7.445   1.832  0.00  0.00    -0.296 N 
ATOM      4  C   UNL     1      -4.964  -8.219   1.077  0.00  0.00    +0.115 C 
ATOM      5  C   UNL     1      -5.013  -7.546  -0.309  0.00  0.00    -0.004 C 
ATOM      6  C   UNL     1      -5.198  -8.596  -1.400  0.00  0.00    -0.010 C 
ATOM      7  C   UNL     1      -6.582  -9.236  -1.255  0.00  0.00    -0.082 C 
ATOM      8  N   UNL     1      -7.616  -8.201  -1.363  0.00  0.00    +0.379 N 
ATOM      9  C   UNL     1      -7.487  -7.246  -0.256  0.00  0.00    -0.082 C 
ATOM     10  C   UNL     1      -6.142  -6.521  -0.358  0.00  0.00    -0.010 C 
ATOM     11  C   UNL     1      -3.983  -7.083   3.130  0.00  0.00    +0.247 C 
ATOM     12  O   UNL     1      -3.132  -6.339   3.576  0.00  0.00    -0.270 OA
ATOM     13  H   UNL     1      -7.511  -7.713  -2.240  0.00  0.00    -0.086 HD
ATOM     14  H   UNL     1      -8.527  -8.633  -1.329  0.00  0.00    -0.086 HD
ENDROOT
BRANCH  11  15
ATOM     15  C   UNL     1      -5.056  -7.591   4.010  0.00  0.00    +0.038 A 
ATOM     16  C   UNL     1      -5.760  -8.746   3.663  0.00  0.00    +0.016 A 
ATOM     17  C   UNL     1      -6.759  -9.215   4.488  0.00  0.00    +0.039 A 
ATOM     18  C   UNL     1      -7.066  -8.542   5.661  0.00  0.00    +0.135 A 
ATOM     19  C   UNL     1      -6.370  -7.395   6.011  0.00  0.00    +0.091 A 
ATOM     20  C   UNL     1      -5.365  -6.921   5.196  0.00  0.00    +0.028 A 
ATOM     21  F   UNL     1      -8.047  -9.006   6.466  0.00  0.00    -0.205 F 
BRANCH  19  22
ATOM     22  C   UNL     1      -6.710  -6.669   7.287  0.00  0.00    +0.420 C 
ATOM     23  F   UNL     1      -5.880  -5.551   7.422  0.00  0.00    -0.166 F 
ATOM     24  F   UNL     1      -8.046  -6.256   7.247  0.00  0.00    -0.166 F 
ATOM     25  F   UNL     1      -6.519  -7.526   8.376  0.00  0.00    -0.166 F 
ENDBRANCH  19  22
ENDBRANCH  11  15
BRANCH   1  27
ATOM     26  N   UNL     1      -4.033  -4.826  -1.844  0.00  0.00    -0.315 N 
ATOM     27  C   UNL     1      -3.841  -5.359  -0.621  0.00  0.00    +0.218 C 
ATOM     28  O   UNL     1      -3.821  -4.642   0.357  0.00  0.00    -0.275 OA
ATOM     29  H   UNL     1      -4.050  -5.399  -2.626  0.00  0.00    +0.149 HD
BRANCH  26  30
ATOM     30  C   UNL     1      -4.217  -3.380  -1.992  0.00  0.00    +0.102 C 
BRANCH  30  31
ATOM     31  C   UNL     1      -4.414  -3.039  -3.470  0.00  0.00    +0.000 C 
BRANCH  31  32
ATOM     32  C   UNL     1      -4.606  -1.529  -3.625  0.00  0.00    -0.078 C 
BRANCH  32  34
ATOM     33  C   UNL     1      -5.098   0.228  -5.181  0.00  0.00    -0.097 C 
ATOM     34  N   UNL     1      -4.795  -1.203  -5.045  0.00  0.00    +0.376 N 
ATOM     35  C   UNL     1      -3.566  -1.516  -5.787  0.00  0.00    -0.097 C 
ATOM     36  H   UNL     1      -5.560  -1.746  -5.416  0.00  0.00    -0.083 HD
ENDBRANCH  32  34
ENDBRANCH  31  32
ENDBRANCH  30  31
ENDBRANCH  26  30
ENDBRANCH   1  27
TORSDOF 7
