REMARK  Name = ZINC02096934
REMARK  11 active torsions:
REMARK  status: ('A' for Active; 'I' for Inactive)
REMARK    1  A    between atoms: C_1  and  C_2
REMARK    2  A    between atoms: C_5  and  N_8
REMARK    3  A    between atoms: N_8  and  C_9
REMARK    4  A    between atoms: C_9  and  C_10
REMARK    5  A    between atoms: C_13  and  S_21
REMARK    6  A    between atoms: N_14  and  C_15
REMARK    7  A    between atoms: S_21  and  C_22
REMARK    8  A    between atoms: C_22  and  C_23
REMARK    9  A    between atoms: N_25  and  N_26
REMARK   10  A    between atoms: C_27  and  C_28
REMARK   11  A    between atoms: C_37  and  O_38
REMARK                            x       y       z     vdW  Elec       q    Type
REMARK                         _______ _______ _______ _____ _____    ______ ____
ROOT
ATOM      1  C   UNL     1       0.092  -6.387   0.960  0.00  0.00    +0.156 A 
ATOM      2  N   UNL     1      -0.948  -7.158   0.815  0.00  0.00    -0.132 NA
ATOM      3  N   UNL     1      -0.574  -8.366   0.582  0.00  0.00    -0.122 NA
ATOM      4  C   UNL     1       0.737  -8.433   0.566  0.00  0.00    +0.197 A 
ATOM      5  N   UNL     1       1.205  -7.170   0.802  0.00  0.00    -0.273 N 
ENDROOT
BRANCH   5   6
ATOM      6  C   UNL     1       2.545  -6.761   0.871  0.00  0.00    +0.050 A 
ATOM      7  C   UNL     1       3.051  -5.873  -0.069  0.00  0.00    +0.026 A 
ATOM      8  C   UNL     1       4.371  -5.473   0.001  0.00  0.00    +0.002 A 
ATOM      9  C   UNL     1       5.189  -5.957   1.006  0.00  0.00    +0.000 A 
ATOM     10  C   UNL     1       4.688  -6.841   1.943  0.00  0.00    +0.002 A 
ATOM     11  C   UNL     1       3.367  -7.240   1.882  0.00  0.00    +0.026 A 
ENDBRANCH   5   6
BRANCH   1  12
ATOM     12  C   UNL     1       0.074  -4.907   1.244  0.00  0.00    +0.178 C 
BRANCH  12  13
ATOM     13  N   UNL     1       0.058  -4.167  -0.021  0.00  0.00    -0.337 N 
ATOM     14  H   UNL     1       0.060  -4.648  -0.864  0.00  0.00    +0.147 HD
BRANCH  13  19
ATOM     15  C   UNL     1      -0.018   1.503   0.010  0.00  0.00    +0.044 C 
ATOM     16  C   UNL     1       0.002  -0.004   0.002  0.00  0.00    -0.050 A 
ATOM     17  C   UNL     1       0.006  -0.687  -1.200  0.00  0.00    +0.005 A 
ATOM     18  C   UNL     1       0.024  -2.068  -1.212  0.00  0.00    +0.023 A 
ATOM     19  C   UNL     1       0.040  -2.771  -0.013  0.00  0.00    +0.027 A 
ATOM     20  C   UNL     1       0.036  -2.081   1.193  0.00  0.00    +0.023 A 
ATOM     21  C   UNL     1       0.023  -0.700   1.197  0.00  0.00    +0.005 A 
ENDBRANCH  13  19
ENDBRANCH  12  13
ENDBRANCH   1  12
BRANCH   4  22
ATOM     22  S   UNL     1       1.709  -9.876   0.287  0.00  0.00    -0.076 S 
BRANCH  22  23
ATOM     23  C   UNL     1       0.483 -11.189   0.037  0.00  0.00    +0.174 C 
BRANCH  23  24
ATOM     24  C   UNL     1       1.191 -12.496  -0.215  0.00  0.00    +0.242 C 
ATOM     25  O   UNL     1       2.403 -12.537  -0.225  0.00  0.00    -0.273 OA
ATOM     26  N   UNL     1       0.477 -13.618  -0.429  0.00  0.00    -0.206 N 
ATOM     27  H   UNL     1      -0.493 -13.586  -0.421  0.00  0.00    +0.177 HD
BRANCH  26  28
ATOM     28  N   UNL     1       1.135 -14.833  -0.664  0.00  0.00    -0.188 NA
ATOM     29  C   UNL     1       0.446 -15.916  -0.871  0.00  0.00    +0.142 C 
BRANCH  29  30
ATOM     30  C   UNL     1       1.136 -17.190  -1.117  0.00  0.00    +0.044 A 
ATOM     31  C   UNL     1       0.377 -18.416  -1.357  0.00  0.00    -0.006 A 
ATOM     32  C   UNL     1      -1.023 -18.419  -1.362  0.00  0.00    +0.009 A 
ATOM     33  C   UNL     1      -1.693 -19.584  -1.591  0.00  0.00    +0.001 A 
ATOM     34  C   UNL     1      -1.003 -20.773  -1.820  0.00  0.00    +0.001 A 
ATOM     35  C   UNL     1       0.358 -20.804  -1.823  0.00  0.00    +0.008 A 
ATOM     36  C   UNL     1       1.081 -19.622  -1.591  0.00  0.00    -0.017 A 
ATOM     37  C   UNL     1       2.487 -19.616  -1.587  0.00  0.00    +0.012 A 
ATOM     38  C   UNL     1       3.178 -18.467  -1.362  0.00  0.00    +0.046 A 
ATOM     39  C   UNL     1       2.529 -17.254  -1.132  0.00  0.00    +0.126 A 
BRANCH  39  40
ATOM     40  O   UNL     1       3.259 -16.129  -0.917  0.00  0.00    -0.506 OA
ATOM     41  H   UNL     1       3.472 -15.970   0.013  0.00  0.00    +0.292 HD
ENDBRANCH  39  40
ENDBRANCH  29  30
ENDBRANCH  26  28
ENDBRANCH  23  24
ENDBRANCH  22  23
ENDBRANCH   4  22
TORSDOF 10
