REMARK  Name = ZINC64540070
REMARK  5 active torsions:
REMARK  status: ('A' for Active; 'I' for Inactive)
REMARK    1  A    between atoms: C_7  and  C_10
REMARK    2  A    between atoms: C_10  and  C_11
REMARK    3  A    between atoms: C_11  and  N_12
REMARK    4  A    between atoms: C_13  and  C_15
REMARK    5  A    between atoms: C_18  and  C_21
REMARK                            x       y       z     vdW  Elec       q    Type
REMARK                         _______ _______ _______ _____ _____    ______ ____
ROOT
ATOM      1  C   UNL     1      -1.734  -6.535  -2.622  0.00  0.00    +0.037 A 
ATOM      2  C   UNL     1      -2.247  -7.021  -1.418  0.00  0.00    +0.013 A 
ATOM      3  C   UNL     1      -3.108  -8.098  -1.423  0.00  0.00    +0.007 A 
ATOM      4  C   UNL     1      -3.463  -8.698  -2.619  0.00  0.00    -0.011 A 
ATOM      5  C   UNL     1      -2.958  -8.222  -3.816  0.00  0.00    +0.007 A 
ATOM      6  C   UNL     1      -2.101  -7.141  -3.825  0.00  0.00    +0.013 A 
ENDROOT
BRANCH   4   7
ATOM      7  C   UNL     1      -4.404  -9.875  -2.617  0.00  0.00    +0.191 C 
ATOM      8  N   UNL     1      -4.244 -10.629  -1.377  0.00  0.00    -0.322 N 
ATOM      9  C   UNL     1      -3.109 -11.379  -1.079  0.00  0.00    +0.055 A 
ATOM     10  C   UNL     1      -2.831 -11.677   0.255  0.00  0.00    +0.025 A 
ATOM     11  C   UNL     1      -1.724 -12.432   0.581  0.00  0.00    +0.002 A 
ATOM     12  C   UNL     1      -0.882 -12.900  -0.411  0.00  0.00    +0.002 A 
ATOM     13  C   UNL     1      -1.147 -12.603  -1.736  0.00  0.00    +0.030 A 
ATOM     14  C   UNL     1      -2.249 -11.841  -2.065  0.00  0.00    +0.126 A 
ATOM     15  S   UNL     1      -2.561 -11.431  -3.756  0.00  0.00    +0.062 S 
ATOM     16  O   UNL     1      -2.644 -12.656  -4.472  0.00  0.00    -0.153 OA
ATOM     17  O   UNL     1      -1.654 -10.395  -4.106  0.00  0.00    -0.153 OA
ATOM     18  N   UNL     1      -4.092 -10.760  -3.757  0.00  0.00    -0.166 NA
ATOM     19  H   UNL     1      -4.964 -10.606  -0.727  0.00  0.00    +0.148 HD
ATOM     20  H   UNL     1      -4.736 -10.942  -4.459  0.00  0.00    +0.150 HD
ENDBRANCH   4   7
BRANCH   1  22
ATOM     21  N   UNL     1      -0.458  -4.798  -1.460  0.00  0.00    -0.311 N 
ATOM     22  C   UNL     1      -0.811  -5.380  -2.623  0.00  0.00    +0.244 C 
ATOM     23  O   UNL     1      -0.370  -4.956  -3.674  0.00  0.00    -0.270 OA
ATOM     24  H   UNL     1      -0.810  -5.136  -0.622  0.00  0.00    +0.149 HD
BRANCH  21  25
ATOM     25  C   UNL     1       0.457  -3.653  -1.462  0.00  0.00    +0.109 C 
BRANCH  25  26
ATOM     26  C   UNL     1       0.691  -3.186  -0.024  0.00  0.00    +0.052 C 
BRANCH  26  33
ATOM     27  C   UNL     1      -0.016   1.348   0.009  0.00  0.00    +0.001 A 
ATOM     28  C   UNL     1       1.166   2.101   0.002  0.00  0.00    +0.002 A 
ATOM     29  C   UNL     1       2.391   1.535  -0.013  0.00  0.00    +0.026 A 
ATOM     30  C   UNL     1       2.529   0.120  -0.022  0.00  0.00    +0.043 A 
ATOM     31  N   UNL     1       3.587  -0.654  -0.037  0.00  0.00    -0.380 N 
ATOM     32  C   UNL     1       3.143  -2.053  -0.041  0.00  0.00    +0.144 C 
ATOM     33  C   UNL     1       1.631  -2.008  -0.025  0.00  0.00    -0.040 C 
ATOM     34  C   UNL     1       1.295  -0.698  -0.014  0.00  0.00    -0.001 A 
ATOM     35  C   UNL     1       0.002  -0.004   0.002  0.00  0.00    +0.010 A 
ATOM     36  H   UNL     1       4.509  -0.353  -0.045  0.00  0.00    +0.160 HD
ENDBRANCH  26  33
ENDBRANCH  25  26
ENDBRANCH  21  25
ENDBRANCH   1  22
TORSDOF 5
