REMARK  Name = ZINC39675491
REMARK  10 active torsions:
REMARK  status: ('A' for Active; 'I' for Inactive)
REMARK    1  A    between atoms: C_1  and  C_2
REMARK    2  A    between atoms: C_6  and  C_7
REMARK    3  A    between atoms: C_11  and  C_20
REMARK    4  A    between atoms: N_22  and  C_23
REMARK    5  A    between atoms: C_23  and  C_25
REMARK    6  A    between atoms: C_23  and  C_26
REMARK    7  A    between atoms: C_26  and  C_27
REMARK    8  A    between atoms: C_27  and  C_28
REMARK    9  A    between atoms: C_31  and  O_34
REMARK   10  A    between atoms: O_34  and  C_35
REMARK                            x       y       z     vdW  Elec       q    Type
REMARK                         _______ _______ _______ _____ _____    ______ ____
ROOT
ATOM      1  C   UNL     1       0.040  -0.262   2.585  0.00  0.00    +0.254 C 
ATOM      2  O   UNL     1      -0.040  -0.639   1.430  0.00  0.00    -0.269 OA
ATOM      3  N   UNL     1       0.160  -1.161   3.581  0.00  0.00    -0.296 N 
ATOM      4  C   UNL     1       0.300  -2.632   3.465  0.00  0.00    +0.121 C 
ATOM      5  C   UNL     1       1.325  -3.014   4.556  0.00  0.00    +0.100 C 
ATOM      6  C   UNL     1       1.241  -1.877   5.588  0.00  0.00    -0.004 C 
ATOM      7  C   UNL     1       0.188  -0.902   5.041  0.00  0.00    +0.115 C 
ATOM      8  C   UNL     1       0.802  -2.424   6.943  0.00  0.00    -0.010 C 
ATOM      9  C   UNL     1       0.782  -1.285   7.966  0.00  0.00    -0.082 C 
ATOM     10  N   UNL     1       2.120  -0.691   8.067  0.00  0.00    +0.379 N 
ATOM     11  C   UNL     1       2.497  -0.085   6.784  0.00  0.00    -0.082 C 
ATOM     12  C   UNL     1       2.589  -1.173   5.711  0.00  0.00    -0.010 C 
ATOM     13  H   UNL     1       2.119   0.018   8.785  0.00  0.00    -0.086 HD
ATOM     14  H   UNL     1       2.788  -1.408   8.307  0.00  0.00    -0.086 HD
ENDROOT
BRANCH   1  20
ATOM     15  C   UNL     1       0.061   2.076   0.526  0.00  0.00    +0.045 C 
ATOM     16  C   UNL     1       0.013   2.252   2.022  0.00  0.00    -0.031 A 
ATOM     17  C   UNL     1      -0.031   3.492   2.611  0.00  0.00    +0.011 A 
ATOM     18  C   UNL     1      -0.073   3.579   3.964  0.00  0.00    +0.046 A 
ATOM     19  S   UNL     1      -0.053   1.980   4.479  0.00  0.00    -0.092 S 
ATOM     20  C   UNL     1       0.006   1.171   2.891  0.00  0.00    +0.077 A 
ENDBRANCH   1  20
BRANCH   5  21
ATOM     21  C   UNL     1       2.711  -3.092   3.971  0.00  0.00    +0.218 C 
ATOM     22  O   UNL     1       3.037  -2.337   3.080  0.00  0.00    -0.275 OA
ATOM     23  N   UNL     1       3.589  -4.002   4.437  0.00  0.00    -0.312 N 
ATOM     24  H   UNL     1       3.329  -4.607   5.150  0.00  0.00    +0.149 HD
BRANCH  23  25
ATOM     25  C   UNL     1       4.937  -4.079   3.868  0.00  0.00    +0.070 C 
ATOM     26  C   UNL     1       5.844  -3.063   4.565  0.00  0.00    +0.028 C 
BRANCH  25  27
ATOM     27  C   UNL     1       5.498  -5.488   4.072  0.00  0.00    +0.026 C 
BRANCH  27  28
ATOM     28  C   UNL     1       4.663  -6.490   3.272  0.00  0.00    +0.037 C 
BRANCH  28  29
ATOM     29  C   UNL     1       5.215  -7.877   3.473  0.00  0.00    -0.047 A 
ATOM     30  C   UNL     1       6.195  -8.360   2.625  0.00  0.00    +0.007 A 
ATOM     31  C   UNL     1       6.703  -9.632   2.807  0.00  0.00    +0.046 A 
ATOM     32  C   UNL     1       6.229 -10.425   3.842  0.00  0.00    +0.120 A 
ATOM     33  C   UNL     1       5.246  -9.938   4.692  0.00  0.00    +0.046 A 
ATOM     34  C   UNL     1       4.746  -8.664   4.509  0.00  0.00    +0.007 A 
BRANCH  32  35
ATOM     35  O   UNL     1       6.727 -11.676   4.023  0.00  0.00    -0.495 OA
ATOM     36  C   UNL     1       6.192 -12.436   5.108  0.00  0.00    +0.277 C 
ENDBRANCH  32  35
ENDBRANCH  28  29
ENDBRANCH  27  28
ENDBRANCH  25  27
ENDBRANCH  23  25
ENDBRANCH   5  21
TORSDOF 7
