REMARK  Name = ZINC07448263
REMARK  9 active torsions:
REMARK  status: ('A' for Active; 'I' for Inactive)
REMARK    1  A    between atoms: C_4  and  C_7
REMARK    2  A    between atoms: C_7  and  C_8
REMARK    3  A    between atoms: C_7  and  N_48
REMARK    4  A    between atoms: C_14  and  C_15
REMARK    5  A    between atoms: C_14  and  N_48
REMARK    6  A    between atoms: N_17  and  C_18
REMARK    7  A    between atoms: C_23  and  S_24
REMARK    8  A    between atoms: S_24  and  C_25
REMARK    9  A    between atoms: C_25  and  C_26
REMARK                            x       y       z     vdW  Elec       q    Type
REMARK                         _______ _______ _______ _____ _____    ______ ____
ROOT
ATOM      1  N   UNL     1      -5.985  -0.974  -0.260  0.00  0.00    +0.392 N 
ATOM      2  H   UNL     1      -5.849  -1.557  -1.093  0.00  0.00    -0.084 HD
ATOM      3  H   UNL     1      -5.980  -1.568   0.578  0.00  0.00    -0.084 HD
ENDROOT
BRANCH   1   4
ATOM      4  C   UNL     1      -7.283  -0.280  -0.356  0.00  0.00    -0.009 C 
BRANCH   4   8
ATOM      5  C   UNL     1      -8.066   0.718  -4.435  0.00  0.00    +0.000 A 
ATOM      6  C   UNL     1      -8.388   1.611  -3.431  0.00  0.00    +0.000 A 
ATOM      7  C   UNL     1      -8.136   1.288  -2.111  0.00  0.00    +0.002 A 
ATOM      8  C   UNL     1      -7.559   0.072  -1.795  0.00  0.00    -0.057 A 
ATOM      9  C   UNL     1      -7.231  -0.819  -2.800  0.00  0.00    +0.002 A 
ATOM     10  C   UNL     1      -7.489  -0.498  -4.120  0.00  0.00    +0.000 A 
ENDBRANCH   4   8
BRANCH   4  11
ATOM     11  C   UNL     1      -8.370  -1.191   0.155  0.00  0.00    -0.057 A 
ATOM     12  C   UNL     1      -8.342  -2.539  -0.149  0.00  0.00    +0.002 A 
ATOM     13  C   UNL     1      -9.336  -3.375   0.324  0.00  0.00    +0.000 A 
ATOM     14  C   UNL     1     -10.363  -2.861   1.094  0.00  0.00    +0.000 A 
ATOM     15  C   UNL     1     -10.393  -1.512   1.394  0.00  0.00    +0.000 A 
ATOM     16  C   UNL     1      -9.397  -0.677   0.925  0.00  0.00    +0.002 A 
ENDBRANCH   4  11
ENDBRANCH   1   4
BRANCH   1  17
ATOM     17  C   UNL     1      -4.886   0.006  -0.168  0.00  0.00    +0.016 C 
BRANCH  17  18
ATOM     18  C   UNL     1      -3.575  -0.730  -0.070  0.00  0.00    +0.200 C 
ATOM     19  O   UNL     1      -3.558  -1.943  -0.076  0.00  0.00    -0.278 OA
ATOM     20  N   UNL     1      -2.421  -0.040   0.024  0.00  0.00    -0.286 N 
ATOM     21  H   UNL     1      -2.438   0.926   0.110  0.00  0.00    +0.155 HD
BRANCH  20  22
ATOM     22  C   UNL     1      -1.195  -0.719  -0.002  0.00  0.00    +0.047 A 
ATOM     23  C   UNL     1      -1.099  -1.959  -0.615  0.00  0.00    +0.024 A 
ATOM     24  C   UNL     1       0.111  -2.627  -0.640  0.00  0.00    +0.002 A 
ATOM     25  C   UNL     1       1.229  -2.062  -0.054  0.00  0.00    +0.001 A 
ATOM     26  C   UNL     1       1.145  -0.825   0.555  0.00  0.00    +0.016 A 
ATOM     27  C   UNL     1      -0.067  -0.150   0.590  0.00  0.00    +0.030 A 
BRANCH  27  28
ATOM     28  S   UNL     1      -0.179   1.425   1.372  0.00  0.00    -0.108 S 
BRANCH  28  29
ATOM     29  C   UNL     1       1.503   1.736   1.976  0.00  0.00    +0.192 C 
BRANCH  29  30
ATOM     30  C   UNL     1       1.546   3.039   2.660  0.00  0.00    +0.074 C 
ATOM     31  N   UNL     1       1.579   4.045   3.187  0.00  0.00    -0.196 NA
ENDBRANCH  29  30
ENDBRANCH  28  29
ENDBRANCH  27  28
ENDBRANCH  20  22
ENDBRANCH  17  18
ENDBRANCH   1  17
TORSDOF 9
