REMARK  Name = ZINC50509825
REMARK  12 active torsions:
REMARK  status: ('A' for Active; 'I' for Inactive)
REMARK    1  A    between atoms: C_1  and  C_2
REMARK    2  A    between atoms: C_2  and  C_4
REMARK    3  A    between atoms: C_2  and  N_13
REMARK    4  A    between atoms: C_7  and  O_11
REMARK    5  A    between atoms: O_11  and  C_12
REMARK    6  A    between atoms: N_13  and  C_14
REMARK    7  A    between atoms: C_14  and  C_16
REMARK    8  A    between atoms: C_14  and  C_17
REMARK    9  A    between atoms: C_17  and  C_19
REMARK   10  A    between atoms: C_20  and  N_29
REMARK   11  A    between atoms: N_21  and  C_28
REMARK   12  A    between atoms: N_24  and  C_27
REMARK                            x       y       z     vdW  Elec       q    Type
REMARK                         _______ _______ _______ _____ _____    ______ ____
ROOT
ATOM      1  C   UNL     1       0.149   0.195  -2.337  0.00  0.00    -0.001 C 
ATOM      2  C   UNL     1      -1.048  -0.751  -2.220  0.00  0.00    -0.006 C 
ENDROOT
BRANCH   1   3
ATOM      3  N   UNL     1       1.006   0.048  -1.153  0.00  0.00    +0.390 N 
ATOM      4  H   UNL     1       1.836   0.610  -1.267  0.00  0.00    -0.084 HD
ATOM      5  H   UNL     1       1.268  -0.921  -1.045  0.00  0.00    -0.084 HD
BRANCH   3   7
ATOM      6  C   UNL     1      -0.014   1.992  -0.067  0.00  0.00    -0.009 C 
ATOM      7  C   UNL     1       0.274   0.493   0.041  0.00  0.00    -0.043 C 
BRANCH   7   8
ATOM      8  C   UNL     1       1.107   0.229   1.268  0.00  0.00    -0.059 A 
ATOM      9  C   UNL     1       2.470   0.459   1.241  0.00  0.00    +0.006 A 
ATOM     10  C   UNL     1       3.236   0.217   2.365  0.00  0.00    +0.049 A 
ATOM     11  C   UNL     1       2.638  -0.257   3.522  0.00  0.00    +0.155 A 
ATOM     12  C   UNL     1       1.269  -0.488   3.549  0.00  0.00    +0.165 A 
ATOM     13  C   UNL     1       0.505  -0.239   2.422  0.00  0.00    +0.044 A 
ATOM     14  F   UNL     1       0.682  -0.950   4.675  0.00  0.00    -0.202 F 
BRANCH  11  15
ATOM     15  O   UNL     1       3.391  -0.496   4.629  0.00  0.00    -0.492 OA
ATOM     16  C   UNL     1       4.792  -0.237   4.529  0.00  0.00    +0.277 C 
ENDBRANCH  11  15
ENDBRANCH   7   8
ENDBRANCH   3   7
ENDBRANCH   1   3
BRANCH   1  17
ATOM     17  C   UNL     1       0.938  -0.145  -3.574  0.00  0.00    +0.158 C 
ATOM     18  O   UNL     1       1.951  -0.810  -3.485  0.00  0.00    -0.294 OA
BRANCH  17  19
ATOM     19  C   UNL     1       0.501   0.309  -4.837  0.00  0.00    +0.118 A 
ATOM     20  C   UNL     1       1.139  -0.108  -6.018  0.00  0.00    +0.116 A 
ATOM     21  N   UNL     1       0.679   0.358  -7.217  0.00  0.00    -0.284 N 
ATOM     22  C   UNL     1      -0.363   1.202  -7.284  0.00  0.00    +0.333 A 
ATOM     23  O   UNL     1      -0.733   1.588  -8.375  0.00  0.00    -0.246 OA
ATOM     24  N   UNL     1      -1.010   1.635  -6.190  0.00  0.00    -0.263 N 
ATOM     25  C   UNL     1      -0.638   1.228  -4.959  0.00  0.00    +0.269 A 
ATOM     26  O   UNL     1      -1.230   1.618  -3.970  0.00  0.00    -0.267 OA
ATOM     27  C   UNL     1      -2.140   2.556  -6.336  0.00  0.00    +0.157 C 
ATOM     28  C   UNL     1       1.336  -0.071  -8.454  0.00  0.00    +0.155 C 
BRANCH  20  29
ATOM     29  N   UNL     1       2.196  -0.963  -5.968  0.00  0.00    -0.344 N 
ATOM     30  H   UNL     1       2.384  -1.455  -5.154  0.00  0.00    +0.144 HD
ATOM     31  H   UNL     1       2.763  -1.079  -6.747  0.00  0.00    +0.144 HD
ENDBRANCH  20  29
ENDBRANCH  17  19
ENDBRANCH   1  17
TORSDOF 7
