REMARK  Name = ZINC20550069
REMARK  12 active torsions:
REMARK  status: ('A' for Active; 'I' for Inactive)
REMARK    1  A    between atoms: C_1  and  C_2
REMARK    2  A    between atoms: C_2  and  C_3
REMARK    3  A    between atoms: C_2  and  C_4
REMARK    4  A    between atoms: C_6  and  C_32
REMARK    5  A    between atoms: C_7  and  S_13
REMARK    6  A    between atoms: C_8  and  C_10
REMARK    7  A    between atoms: C_10  and  C_11
REMARK    8  A    between atoms: C_10  and  C_12
REMARK    9  A    between atoms: S_13  and  N_16
REMARK   10  A    between atoms: N_19  and  C_22
REMARK   11  A    between atoms: C_32  and  C_33
REMARK   12  A    between atoms: C_32  and  C_34
REMARK                            x       y       z     vdW  Elec       q    Type
REMARK                         _______ _______ _______ _____ _____    ______ ____
ROOT
ATOM      1  S   UNL     1       2.665   3.568   1.192  0.00  0.00    +0.061 S 
ATOM      2  O   UNL     1       2.350   4.791   1.844  0.00  0.00    -0.153 OA
ATOM      3  O   UNL     1       3.290   2.484   1.865  0.00  0.00    -0.153 OA
ENDROOT
BRANCH   1   4
ATOM      4  N   UNL     1       3.638   3.953  -0.092  0.00  0.00    -0.180 NA
ATOM      5  C   UNL     1       4.562   2.961  -0.662  0.00  0.00    +0.091 C 
ATOM      6  C   UNL     1       4.335   2.908  -2.181  0.00  0.00    -0.061 C 
ATOM      7  N   UNL     1       4.457   4.262  -2.737  0.00  0.00    +0.385 N 
ATOM      8  C   UNL     1       3.419   5.154  -2.202  0.00  0.00    -0.061 C 
ATOM      9  C   UNL     1       3.605   5.297  -0.688  0.00  0.00    +0.091 C 
ATOM     10  H   UNL     1       5.434   4.663  -2.429  0.00  0.00    -0.081 HD
BRANCH   7  11
ATOM     11  C   UNL     1       4.421   4.234  -4.206  0.00  0.00    -0.065 C 
ATOM     12  C   UNL     1       3.053   3.731  -4.672  0.00  0.00    -0.009 C 
ATOM     13  C   UNL     1       3.016   3.701  -6.202  0.00  0.00    -0.012 C 
ATOM     14  C   UNL     1       4.108   2.764  -6.721  0.00  0.00    +0.007 C 
ATOM     15  C   UNL     1       5.476   3.267  -6.254  0.00  0.00    -0.012 C 
ATOM     16  C   UNL     1       5.513   3.297  -4.725  0.00  0.00    -0.009 C 
ATOM     17  C   UNL     1       5.713   4.678  -6.797  0.00  0.00    +0.007 C 
ATOM     18  C   UNL     1       4.620   5.615  -6.278  0.00  0.00    -0.012 C 
ATOM     19  C   UNL     1       3.253   5.112  -6.745  0.00  0.00    +0.007 C 
ATOM     20  C   UNL     1       4.658   5.644  -4.749  0.00  0.00    -0.009 C 
ENDBRANCH   7  11
ENDBRANCH   1   4
BRANCH   1  24
ATOM     21  C   UNL     1      -1.216   1.971  -0.506  0.00  0.00    -0.044 A 
ATOM     22  C   UNL     1      -0.131   1.128  -0.350  0.00  0.00    +0.009 A 
ATOM     23  C   UNL     1       1.054   1.617   0.167  0.00  0.00    -0.018 A 
ATOM     24  C   UNL     1       1.154   2.946   0.532  0.00  0.00    +0.112 A 
ATOM     25  C   UNL     1       0.068   3.788   0.380  0.00  0.00    -0.018 A 
ATOM     26  C   UNL     1      -1.118   3.300  -0.137  0.00  0.00    +0.009 A 
BRANCH  21  28
ATOM     27  C   UNL     1      -3.629   1.628  -0.053  0.00  0.00    +0.012 C 
ATOM     28  C   UNL     1      -2.506   1.440  -1.075  0.00  0.00    +0.013 C 
ATOM     29  C   UNL     1      -2.850   2.202  -2.357  0.00  0.00    +0.012 C 
ENDBRANCH  21  28
BRANCH  25  30
ATOM     30  C   UNL     1       0.176   5.237   0.779  0.00  0.00    +0.015 C 
ATOM     31  C   UNL     1      -0.703   6.086  -0.141  0.00  0.00    +0.012 C 
ATOM     32  C   UNL     1      -0.292   5.403   2.227  0.00  0.00    +0.012 C 
ENDBRANCH  25  30
BRANCH  23  33
ATOM     33  C   UNL     1       2.239   0.699   0.332  0.00  0.00    +0.015 C 
ATOM     34  C   UNL     1       1.941  -0.325   1.429  0.00  0.00    +0.012 C 
ATOM     35  C   UNL     1       2.508  -0.029  -0.986  0.00  0.00    +0.012 C 
ENDBRANCH  23  33
ENDBRANCH   1  24
TORSDOF 6
