REMARK  Name = ZINC13569710
REMARK  1 active torsions:
REMARK  status: ('A' for Active; 'I' for Inactive)
REMARK    1  A    between atoms: C_11  and  C_15
REMARK                            x       y       z     vdW  Elec       q    Type
REMARK                         _______ _______ _______ _____ _____    ______ ____
ROOT
ATOM      1  C   UNL     1      -0.079   1.300  -0.642  0.00  0.00    +0.019 A 
ATOM      2  C   UNL     1       1.234   1.758  -0.406  0.00  0.00    +0.019 A 
ATOM      3  C   UNL     1       2.024   0.674  -0.278  0.00  0.00    +0.093 A 
ATOM      4  N   UNL     1       1.247  -0.441  -0.427  0.00  0.00    -0.302 N 
ATOM      5  C   UNL     1      -0.044  -0.047  -0.650  0.00  0.00    +0.093 A 
ATOM      6  C   UNL     1       1.693  -1.754  -0.363  0.00  0.00    +0.178 A 
ATOM      7  N   UNL     1       2.909  -2.202  -0.147  0.00  0.00    -0.222 NA
ATOM      8  C   UNL     1       3.205  -3.511  -0.110  0.00  0.00    +0.081 A 
ATOM      9  C   UNL     1       4.469  -4.112   0.112  0.00  0.00    +0.030 A 
ATOM     10  C   UNL     1       4.610  -5.461   0.120  0.00  0.00    +0.015 A 
ATOM     11  C   UNL     1       3.516  -6.312  -0.090  0.00  0.00    +0.038 A 
ATOM     12  C   UNL     1       2.254  -5.753  -0.312  0.00  0.00    +0.030 A 
ATOM     13  C   UNL     1       2.116  -4.392  -0.319  0.00  0.00    +0.042 A 
ATOM     14  S   UNL     1       0.758  -3.267  -0.544  0.00  0.00    -0.049 S 
ENDROOT
BRANCH  11  15
ATOM     15  C   UNL     1       3.695  -7.777  -0.078  0.00  0.00    +0.247 C 
ATOM     16  O   UNL     1       4.630  -8.280  -0.670  0.00  0.00    -0.270 OA
ATOM     17  N   UNL     1       2.821  -8.556   0.589  0.00  0.00    -0.291 N 
ATOM     18  C   UNL     1       3.029 -10.009   0.685  0.00  0.00    +0.114 C 
ATOM     19  C   UNL     1       3.258 -10.387   2.154  0.00  0.00    +0.074 C 
ATOM     20  C   UNL     1       2.238  -9.675   3.003  0.00  0.00    +0.039 A 
ATOM     21  C   UNL     1       1.518  -8.604   2.608  0.00  0.00    +0.054 A 
ATOM     22  N   UNL     1       0.724  -8.241   3.618  0.00  0.00    -0.348 N 
ATOM     23  C   UNL     1       0.920  -9.050   4.627  0.00  0.00    +0.171 A 
ATOM     24  N   UNL     1       1.859  -9.960   4.280  0.00  0.00    -0.349 N 
ATOM     25  H   UNL     1       2.198 -10.679   4.836  0.00  0.00    +0.166 HD
ATOM     26  C   UNL     1       1.637  -7.973   1.245  0.00  0.00    +0.163 C 
ATOM     27  H   UNL     1       0.101  -7.498   3.605  0.00  0.00    +0.166 HD
ENDBRANCH  11  15
TORSDOF 1
