REMARK  Name = ZINC55127363
REMARK  6 active torsions:
REMARK  status: ('A' for Active; 'I' for Inactive)
REMARK    1  A    between atoms: C_1  and  C_2
REMARK    2  A    between atoms: C_6  and  C_12
REMARK    3  A    between atoms: C_9  and  N_11
REMARK    4  A    between atoms: N_14  and  C_15
REMARK    5  A    between atoms: C_15  and  C_17
REMARK    6  A    between atoms: C_15  and  C_18
REMARK                            x       y       z     vdW  Elec       q    Type
REMARK                         _______ _______ _______ _____ _____    ______ ____
ROOT
ATOM      1  C   UNL     1      -0.019   1.526   0.010  0.00  0.00    +0.006 C 
ATOM      2  C   UNL     1       0.002  -0.004   0.002  0.00  0.00    -0.029 C 
ATOM      3  C   UNL     1       0.718  -0.497  -1.257  0.00  0.00    +0.002 C 
ATOM      4  C   UNL     1       0.739  -2.027  -1.265  0.00  0.00    +0.013 C 
ATOM      5  C   UNL     1       1.479  -2.534  -0.026  0.00  0.00    +0.073 C 
ATOM      6  C   UNL     1       0.763  -2.041   1.233  0.00  0.00    -0.003 C 
ATOM      7  C   UNL     1       0.742  -0.511   1.242  0.00  0.00    -0.072 C 
ENDROOT
BRANCH   7   8
ATOM      8  N   UNL     1       0.054  -0.037   2.450  0.00  0.00    +0.380 N 
ATOM      9  H   UNL     1      -0.892  -0.386   2.457  0.00  0.00    -0.090 HD
ATOM     10  H   UNL     1       0.542  -0.371   3.268  0.00  0.00    -0.090 HD
ATOM     11  H   UNL     1       0.041   0.972   2.456  0.00  0.00    -0.090 HD
ENDBRANCH   7   8
BRANCH   5  12
ATOM     12  C   UNL     1       2.893  -2.013  -0.036  0.00  0.00    +0.216 C 
ATOM     13  O   UNL     1       3.289  -1.315   0.873  0.00  0.00    -0.276 OA
ATOM     14  N   UNL     1       3.717  -2.321  -1.057  0.00  0.00    -0.310 N 
ATOM     15  H   UNL     1       3.401  -2.879  -1.784  0.00  0.00    +0.149 HD
BRANCH  14  16
ATOM     16  C   UNL     1       5.092  -1.814  -1.067  0.00  0.00    +0.099 C 
ATOM     17  C   UNL     1       5.987  -2.751  -0.253  0.00  0.00    +0.030 C 
BRANCH  16  18
ATOM     18  C   UNL     1       5.600  -1.748  -2.509  0.00  0.00    +0.138 C 
ATOM     19  C   UNL     1       4.699  -0.808  -3.339  0.00  0.00    +0.035 C 
ATOM     20  C   UNL     1       4.610  -1.554  -4.699  0.00  0.00    +0.031 C 
ATOM     21  C   UNL     1       4.639  -3.029  -4.228  0.00  0.00    +0.160 C 
ATOM     22  O   UNL     1       5.539  -3.049  -3.106  0.00  0.00    -0.375 OA
ENDBRANCH  16  18
ENDBRANCH  14  16
ENDBRANCH   5  12
TORSDOF 4
