REMARK  Name = ZINC38660591
REMARK  12 active torsions:
REMARK  status: ('A' for Active; 'I' for Inactive)
REMARK    1  A    between atoms: C_1  and  O_2
REMARK    2  A    between atoms: O_2  and  C_3
REMARK    3  A    between atoms: C_5  and  C_13
REMARK    4  A    between atoms: C_7  and  O_11
REMARK    5  A    between atoms: C_8  and  O_9
REMARK    6  A    between atoms: O_9  and  C_10
REMARK    7  A    between atoms: O_11  and  C_12
REMARK    8  A    between atoms: C_18  and  O_27
REMARK    9  A    between atoms: C_22  and  N_26
REMARK   10  A    between atoms: C_23  and  C_24
REMARK   11  A    between atoms: O_27  and  C_28
REMARK   12  A    between atoms: C_28  and  C_30
REMARK                            x       y       z     vdW  Elec       q    Type
REMARK                         _______ _______ _______ _____ _____    ______ ____
ROOT
ATOM      1  C   UNL     1       2.463   0.355   4.210  0.00  0.00    +0.098 C 
ATOM      2  C   UNL     1       1.814   0.008   5.523  0.00  0.00    +0.008 A 
ATOM      3  C   UNL     1       0.586   0.560   5.843  0.00  0.00    +0.012 A 
ATOM      4  C   UNL     1      -0.024   0.254   7.043  0.00  0.00    +0.047 A 
ATOM      5  C   UNL     1       0.594  -0.613   7.934  0.00  0.00    +0.135 A 
ATOM      6  C   UNL     1       1.823  -1.169   7.617  0.00  0.00    +0.093 A 
ATOM      7  C   UNL     1       2.435  -0.859   6.409  0.00  0.00    +0.138 A 
ATOM      8  O   UNL     1       3.638  -1.410   6.114  0.00  0.00    -0.441 OA
ATOM      9  C   UNL     1       4.418  -0.853   5.173  0.00  0.00    +0.199 C 
ATOM     10  C   UNL     1       3.921  -0.009   4.243  0.00  0.00    +0.098 C 
ENDROOT
BRANCH   1  13
ATOM     11  C   UNL     1       0.539  -0.413   1.049  0.00  0.00    +0.165 A 
ATOM     12  C   UNL     1       1.165   0.282   2.073  0.00  0.00    +0.054 A 
ATOM     13  C   UNL     1       1.784  -0.405   3.100  0.00  0.00    -0.028 A 
ATOM     14  C   UNL     1       1.780  -1.787   3.113  0.00  0.00    +0.054 A 
ATOM     15  C   UNL     1       1.157  -2.490   2.093  0.00  0.00    +0.165 A 
ATOM     16  C   UNL     1       0.529  -1.803   1.061  0.00  0.00    +0.204 A 
BRANCH  11  18
ATOM     17  C   UNL     1      -0.019   1.691   0.091  0.00  0.00    +0.277 C 
ATOM     18  O   UNL     1      -0.069   0.264   0.039  0.00  0.00    -0.491 OA
ENDBRANCH  11  18
BRANCH  16  19
ATOM     19  O   UNL     1      -0.089  -2.489   0.062  0.00  0.00    -0.488 OA
ATOM     20  C   UNL     1       0.703  -2.830  -1.078  0.00  0.00    +0.277 C 
ENDBRANCH  16  19
BRANCH  15  21
ATOM     21  O   UNL     1       1.154  -3.850   2.106  0.00  0.00    -0.491 OA
ATOM     22  C   UNL     1       1.814  -4.489   3.201  0.00  0.00    +0.277 C 
ENDBRANCH  15  21
ENDBRANCH   1  13
BRANCH   9  23
ATOM     23  N   UNL     1       5.758  -1.150   5.157  0.00  0.00    -0.328 N 
ATOM     24  H   UNL     1       6.129  -1.755   5.818  0.00  0.00    +0.145 HD
ATOM     25  H   UNL     1       6.334  -0.756   4.484  0.00  0.00    +0.145 HD
ENDBRANCH   9  23
BRANCH  10  26
ATOM     26  C   UNL     1       4.806   0.551   3.266  0.00  0.00    +0.101 C 
ATOM     27  N   UNL     1       5.508   0.995   2.491  0.00  0.00    -0.191 NA
ENDBRANCH  10  26
BRANCH   5  28
ATOM     28  O   UNL     1      -0.005  -0.915   9.116  0.00  0.00    -0.422 OA
BRANCH  28  29
ATOM     29  C   UNL     1      -1.148  -1.630   9.081  0.00  0.00    +0.345 C 
ATOM     30  O   UNL     1      -1.560  -2.066   8.025  0.00  0.00    -0.245 OA
BRANCH  29  31
ATOM     31  C   UNL     1      -1.896  -1.881  10.325  0.00  0.00    +0.067 A 
ATOM     32  C   UNL     1      -1.510  -1.284  11.519  0.00  0.00    +0.015 A 
ATOM     33  C   UNL     1      -2.218  -1.523  12.688  0.00  0.00    +0.001 A 
ATOM     34  C   UNL     1      -3.306  -2.341  12.716  0.00  0.00    +0.008 A 
ATOM     35  C   UNL     1      -3.753  -2.978  11.546  0.00  0.00    -0.017 A 
ATOM     36  C   UNL     1      -3.065  -2.759  10.327  0.00  0.00    -0.004 A 
ATOM     37  C   UNL     1      -3.510  -3.388   9.159  0.00  0.00    +0.009 A 
ATOM     38  C   UNL     1      -4.604  -4.199   9.205  0.00  0.00    +0.001 A 
ATOM     39  C   UNL     1      -5.287  -4.412  10.401  0.00  0.00    +0.001 A 
ATOM     40  C   UNL     1      -4.875  -3.825  11.558  0.00  0.00    +0.008 A 
ENDBRANCH  29  31
ENDBRANCH  28  29
ENDBRANCH   5  28
TORSDOF 9
