REMARK  Name = ZINC33326912
REMARK  9 active torsions:
REMARK  status: ('A' for Active; 'I' for Inactive)
REMARK    1  A    between atoms: C_1  and  C_2
REMARK    2  A    between atoms: C_2  and  C_3
REMARK    3  A    between atoms: C_6  and  S_9
REMARK    4  A    between atoms: S_9  and  N_12
REMARK    5  A    between atoms: N_12  and  C_13
REMARK    6  A    between atoms: C_16  and  N_19
REMARK    7  A    between atoms: C_22  and  N_27
REMARK    8  A    between atoms: C_24  and  C_26
REMARK    9  A    between atoms: N_27  and  C_28
REMARK                            x       y       z     vdW  Elec       q    Type
REMARK                         _______ _______ _______ _____ _____    ______ ____
ROOT
ATOM      1  C   UNL     1       3.259  -2.857  -1.482  0.00  0.00    +0.048 A 
ATOM      2  C   UNL     1       4.263  -1.950  -1.169  0.00  0.00    +0.026 A 
ATOM      3  C   UNL     1       5.073  -1.445  -2.167  0.00  0.00    +0.025 A 
ATOM      4  C   UNL     1       4.877  -1.836  -3.485  0.00  0.00    +0.032 A 
ATOM      5  C   UNL     1       3.870  -2.739  -3.799  0.00  0.00    +0.025 A 
ATOM      6  C   UNL     1       3.063  -3.248  -2.800  0.00  0.00    +0.026 A 
ENDROOT
BRANCH   4   7
ATOM      7  N   UNL     1       5.696  -1.321  -4.497  0.00  0.00    -0.301 N 
ATOM      8  C   UNL     1       6.069   0.015  -4.475  0.00  0.00    +0.105 A 
ATOM      9  C   UNL     1       5.510   0.889  -3.547  0.00  0.00    +0.085 A 
ATOM     10  C   UNL     1       5.917   2.219  -3.566  0.00  0.00    +0.124 A 
ATOM     11  N   UNL     1       6.820   2.606  -4.465  0.00  0.00    -0.220 NA
ATOM     12  C   UNL     1       7.326   1.748  -5.327  0.00  0.00    +0.107 A 
ATOM     13  N   UNL     1       6.971   0.479  -5.338  0.00  0.00    -0.332 N 
ATOM     14  C   UNL     1       8.346   2.231  -6.327  0.00  0.00    +0.086 C 
ATOM     15  H   UNL     1       6.044  -1.975  -5.310  0.00  0.00    +0.154 HD
ATOM     16  H   UNL     1       7.430  -0.199  -6.072  0.00  0.00    +0.168 HD
BRANCH  10  17
ATOM     17  N   UNL     1       5.390   3.129  -2.662  0.00  0.00    -0.326 N 
ATOM     18  H   UNL     1       5.652   4.194  -2.737  0.00  0.00    +0.148 HD
BRANCH  17  19
ATOM     19  C   UNL     1       4.484   2.671  -1.605  0.00  0.00    +0.072 C 
ATOM     20  C   UNL     1       3.047   2.669  -2.131  0.00  0.00    +0.022 C 
ATOM     21  C   UNL     1       2.101   2.190  -1.028  0.00  0.00    +0.002 C 
ATOM     22  C   UNL     1       2.203   3.131   0.174  0.00  0.00    +0.000 C 
ATOM     23  C   UNL     1       3.639   3.133   0.700  0.00  0.00    +0.002 C 
ATOM     24  C   UNL     1       4.586   3.611  -0.403  0.00  0.00    +0.022 C 
ENDBRANCH  17  19
ENDBRANCH  10  17
ENDBRANCH   4   7
BRANCH   1  25
ATOM     25  N   UNL     1       2.441  -3.372  -0.471  0.00  0.00    -0.216 N 
ATOM     26  H   UNL     1       1.670  -2.737  -0.010  0.00  0.00    +0.174 HD
BRANCH  25  27
ATOM     27  S   UNL     1       2.633  -4.938   0.033  0.00  0.00    +0.072 S 
ATOM     28  O   UNL     1       2.583  -5.748  -1.133  0.00  0.00    -0.150 OA
ATOM     29  O   UNL     1       1.747  -5.124   1.128  0.00  0.00    -0.150 OA
BRANCH  27  33
ATOM     30  C   UNL     1       6.830  -5.307   1.686  0.00  0.00    -0.048 A 
ATOM     31  C   UNL     1       5.807  -4.850   2.495  0.00  0.00    +0.005 A 
ATOM     32  C   UNL     1       4.525  -4.737   1.990  0.00  0.00    +0.029 A 
ATOM     33  C   UNL     1       4.267  -5.081   0.676  0.00  0.00    +0.109 A 
ATOM     34  C   UNL     1       5.291  -5.538  -0.133  0.00  0.00    +0.029 A 
ATOM     35  C   UNL     1       6.572  -5.650   0.372  0.00  0.00    +0.005 A 
BRANCH  30  37
ATOM     36  C   UNL     1       8.456  -6.858   2.736  0.00  0.00    +0.009 C 
ATOM     37  C   UNL     1       8.228  -5.430   2.237  0.00  0.00    +0.032 C 
ENDBRANCH  30  37
ENDBRANCH  27  33
ENDBRANCH  25  27
ENDBRANCH   1  25
TORSDOF 7
