REMARK  Name = ZINC09907058
REMARK  12 active torsions:
REMARK  status: ('A' for Active; 'I' for Inactive)
REMARK    1  A    between atoms: C_1  and  C_2
REMARK    2  A    between atoms: C_2  and  O_3
REMARK    3  A    between atoms: O_3  and  C_4
REMARK    4  A    between atoms: C_6  and  C_19
REMARK    5  A    between atoms: C_9  and  O_10
REMARK    6  A    between atoms: O_10  and  C_11
REMARK    7  A    between atoms: C_11  and  C_12
REMARK    8  A    between atoms: C_16  and  C_18
REMARK    9  A    between atoms: C_21  and  C_30
REMARK   10  A    between atoms: C_22  and  C_29
REMARK   11  A    between atoms: N_32  and  C_33
REMARK   12  A    between atoms: C_38  and  C_39
REMARK                            x       y       z     vdW  Elec       q    Type
REMARK                         _______ _______ _______ _____ _____    ______ ____
ROOT
ATOM      1  C   UNL     1      -1.278   3.635   0.025  0.00  0.00    +0.177 C 
ATOM      2  C   UNL     1      -1.056   4.837  -0.854  0.00  0.00    +0.060 C 
ATOM      3  C   UNL     1      -1.874   5.167  -1.864  0.00  0.00    +0.018 C 
ATOM      4  N   UNL     1      -2.974   4.412  -2.191  0.00  0.00    -0.287 N 
ATOM      5  C   UNL     1      -3.081   3.155  -1.612  0.00  0.00    +0.218 A 
ATOM      6  N   UNL     1      -2.291   2.774  -0.578  0.00  0.00    -0.221 N 
ATOM      7  N   UNL     1      -2.659   1.468  -0.258  0.00  0.00    -0.156 NA
ATOM      8  C   UNL     1      -3.623   1.135  -1.081  0.00  0.00    +0.247 A 
ATOM      9  N   UNL     1      -3.877   2.161  -1.899  0.00  0.00    -0.201 NA
ATOM     10  C   UNL     1      -1.572   6.402  -2.672  0.00  0.00    +0.061 C 
ATOM     11  H   UNL     1      -3.650   4.745  -2.801  0.00  0.00    +0.155 HD
ENDROOT
BRANCH   1  14
ATOM     12  C   UNL     1      -3.288   5.303   2.755  0.00  0.00    +0.162 A 
ATOM     13  C   UNL     1      -2.858   4.892   1.504  0.00  0.00    +0.055 A 
ATOM     14  C   UNL     1      -1.744   4.081   1.387  0.00  0.00    -0.015 A 
ATOM     15  C   UNL     1      -1.060   3.674   2.518  0.00  0.00    +0.010 A 
ATOM     16  C   UNL     1      -1.480   4.085   3.769  0.00  0.00    +0.050 A 
ATOM     17  C   UNL     1      -2.596   4.898   3.893  0.00  0.00    +0.162 A 
BRANCH  12  18
ATOM     18  O   UNL     1      -4.383   6.100   2.872  0.00  0.00    -0.489 OA
BRANCH  18  20
ATOM     19  C   UNL     1      -6.225   7.385   1.980  0.00  0.00    +0.048 C 
ATOM     20  C   UNL     1      -5.108   6.386   1.674  0.00  0.00    +0.226 C 
ENDBRANCH  18  20
ENDBRANCH  12  18
BRANCH  17  21
ATOM     21  O   UNL     1      -3.014   5.298   5.123  0.00  0.00    -0.484 OA
BRANCH  21  22
ATOM     22  C   UNL     1      -2.255   4.844   6.246  0.00  0.00    +0.264 C 
BRANCH  22  23
ATOM     23  C   UNL     1      -2.863   5.384   7.515  0.00  0.00    -0.010 A 
ATOM     24  C   UNL     1      -3.839   4.661   8.175  0.00  0.00    +0.007 A 
ATOM     25  C   UNL     1      -4.397   5.156   9.339  0.00  0.00    +0.001 A 
ATOM     26  C   UNL     1      -3.978   6.374   9.843  0.00  0.00    +0.003 A 
ATOM     27  C   UNL     1      -3.002   7.096   9.182  0.00  0.00    -0.050 A 
ATOM     28  C   UNL     1      -2.441   6.599   8.021  0.00  0.00    +0.010 A 
ATOM     29  C   UNL     1      -2.545   8.423   9.732  0.00  0.00    +0.044 C 
ENDBRANCH  22  23
ENDBRANCH  21  22
ENDBRANCH  17  21
ENDBRANCH   1  14
BRANCH   2  30
ATOM     30  C   UNL     1       0.065   5.661  -0.598  0.00  0.00    +0.248 C 
ATOM     31  O   UNL     1       0.321   6.590  -1.344  0.00  0.00    -0.270 OA
ATOM     32  N   UNL     1       0.850   5.420   0.471  0.00  0.00    -0.281 N 
ATOM     33  H   UNL     1       0.694   4.634   1.019  0.00  0.00    +0.155 HD
BRANCH  32  34
ATOM     34  C   UNL     1       1.887   6.301   0.790  0.00  0.00    +0.037 A 
ATOM     35  C   UNL     1       1.738   7.663   0.564  0.00  0.00    +0.023 A 
ATOM     36  C   UNL     1       2.763   8.531   0.886  0.00  0.00    +0.002 A 
ATOM     37  C   UNL     1       3.941   8.044   1.423  0.00  0.00    +0.000 A 
ATOM     38  C   UNL     1       4.094   6.689   1.644  0.00  0.00    +0.005 A 
ATOM     39  C   UNL     1       3.071   5.815   1.330  0.00  0.00    -0.029 A 
ATOM     40  C   UNL     1       3.240   4.338   1.572  0.00  0.00    +0.045 C 
ENDBRANCH  32  34
ENDBRANCH   2  30
TORSDOF 8
