REMARK  Name = ZINC08617979
REMARK  9 active torsions:
REMARK  status: ('A' for Active; 'I' for Inactive)
REMARK    1  A    between atoms: C_1  and  C_2
REMARK    2  A    between atoms: C_3  and  N_9
REMARK    3  A    between atoms: N_9  and  C_10
REMARK    4  A    between atoms: C_10  and  N_12
REMARK    5  A    between atoms: N_12  and  N_13
REMARK    6  A    between atoms: C_14  and  C_16
REMARK    7  A    between atoms: C_16  and  C_17
REMARK    8  A    between atoms: N_21  and  C_24
REMARK    9  A    between atoms: C_24  and  C_25
REMARK                            x       y       z     vdW  Elec       q    Type
REMARK                         _______ _______ _______ _____ _____    ______ ____
ROOT
ATOM      1  N   UNL     1       1.075   6.198   0.227  0.00  0.00    -0.235 N 
ATOM      2  C   UNL     1       1.054   7.541   0.335  0.00  0.00    +0.228 C 
ATOM      3  O   UNL     1       2.095   8.159   0.420  0.00  0.00    -0.274 OA
ATOM      4  H   UNL     1       0.243   5.704   0.159  0.00  0.00    +0.173 HD
ENDROOT
BRANCH   1   5
ATOM      5  N   UNL     1       2.298   5.515   0.212  0.00  0.00    -0.246 N 
ATOM      6  H   UNL     1       3.130   6.009   0.280  0.00  0.00    +0.172 HD
BRANCH   5   7
ATOM      7  C   UNL     1       2.318   4.172   0.104  0.00  0.00    +0.151 C 
ATOM      8  S   UNL     1       3.813   3.337   0.086  0.00  0.00    -0.017 S 
BRANCH   7   9
ATOM      9  N   UNL     1       1.162   3.486   0.009  0.00  0.00    -0.296 N 
ATOM     10  H   UNL     1       0.320   3.962  -0.061  0.00  0.00    +0.154 HD
BRANCH   9  13
ATOM     11  C   UNL     1      -0.462   2.121  -1.888  0.00  0.00    +0.047 C 
ATOM     12  C   UNL     1       0.397   1.381  -0.895  0.00  0.00    -0.011 A 
ATOM     13  C   UNL     1       1.177   2.087   0.012  0.00  0.00    +0.037 A 
ATOM     14  C   UNL     1       1.970   1.401   0.922  0.00  0.00    +0.023 A 
ATOM     15  C   UNL     1       1.984   0.020   0.923  0.00  0.00    +0.003 A 
ATOM     16  C   UNL     1       1.207  -0.681   0.019  0.00  0.00    +0.020 A 
ATOM     17  C   UNL     1       0.414  -0.001  -0.889  0.00  0.00    +0.046 A 
ATOM     18 CL   UNL     1      -0.560  -0.885  -2.022  0.00  0.00    -0.083 Cl
ENDBRANCH   9  13
ENDBRANCH   7   9
ENDBRANCH   5   7
ENDBRANCH   1   5
BRANCH   2  19
ATOM     19  C   UNL     1      -0.261   8.276   0.351  0.00  0.00    +0.091 C 
BRANCH  19  20
ATOM     20  C   UNL     1      -0.005   9.779   0.482  0.00  0.00    +0.025 C 
ATOM     21  C   UNL     1      -1.316  10.498   0.621  0.00  0.00    +0.202 C 
ATOM     22  O   UNL     1      -2.165  10.025   1.346  0.00  0.00    -0.277 OA
ATOM     23  N   UNL     1      -1.587  11.639  -0.022  0.00  0.00    -0.300 N 
ATOM     24  C   UNL     1      -0.648  12.273  -0.944  0.00  0.00    +0.089 C 
ATOM     25  C   UNL     1       0.762  11.728  -0.713  0.00  0.00    -0.062 C 
ATOM     26  N   UNL     1       0.709  10.254  -0.714  0.00  0.00    +0.388 N 
ATOM     27  H   UNL     1       0.216   9.932  -1.556  0.00  0.00    -0.085 HD
ATOM     28  H   UNL     1       1.664   9.879  -0.713  0.00  0.00    -0.085 HD
BRANCH  23  29
ATOM     29  C   UNL     1      -2.883  12.283   0.209  0.00  0.00    +0.142 C 
BRANCH  29  30
ATOM     30  C   UNL     1      -2.768  13.242   1.366  0.00  0.00    -0.030 A 
ATOM     31  C   UNL     1      -3.021  12.806   2.653  0.00  0.00    +0.005 A 
ATOM     32  C   UNL     1      -2.911  13.686   3.714  0.00  0.00    +0.000 A 
ATOM     33  C   UNL     1      -2.557  15.002   3.487  0.00  0.00    +0.000 A 
ATOM     34  C   UNL     1      -2.309  15.439   2.199  0.00  0.00    +0.000 A 
ATOM     35  C   UNL     1      -2.415  14.559   1.139  0.00  0.00    +0.005 A 
ENDBRANCH  29  30
ENDBRANCH  23  29
ENDBRANCH  19  20
ENDBRANCH   2  19
TORSDOF 8
