REMARK  Name = ZINC39550704
REMARK  5 active torsions:
REMARK  status: ('A' for Active; 'I' for Inactive)
REMARK    1  A    between atoms: C_4  and  C_7
REMARK    2  A    between atoms: C_8  and  C_21
REMARK    3  A    between atoms: C_10  and  C_13
REMARK    4  A    between atoms: C_16  and  O_20
REMARK    5  A    between atoms: C_17  and  O_19
REMARK                            x       y       z     vdW  Elec       q    Type
REMARK                         _______ _______ _______ _____ _____    ______ ____
ROOT
ATOM      1  C   UNL     1       3.712  -0.651  -0.081  0.00  0.00    +0.072 A 
ATOM      2  C   UNL     1       4.001  -1.821  -0.763  0.00  0.00    +0.072 A 
ATOM      3  N   UNL     1       5.258  -2.177  -0.452  0.00  0.00    -0.339 N 
ATOM      4  C   UNL     1       5.769  -1.301   0.383  0.00  0.00    +0.117 A 
ATOM      5  N   UNL     1       4.843  -0.330   0.636  0.00  0.00    -0.339 N 
ATOM      6  H   UNL     1       4.960   0.440   1.214  0.00  0.00    +0.167 HD
ATOM      7  H   UNL     1       5.717  -2.961  -0.791  0.00  0.00    +0.167 HD
ENDROOT
BRANCH   2   8
ATOM      8  C   UNL     1       3.087  -2.549  -1.674  0.00  0.00    +0.002 A 
ATOM      9  C   UNL     1       2.378  -1.861  -2.658  0.00  0.00    +0.014 A 
ATOM     10  C   UNL     1       1.524  -2.537  -3.499  0.00  0.00    +0.049 A 
ATOM     11  C   UNL     1       1.359  -3.918  -3.382  0.00  0.00    +0.154 A 
ATOM     12  C   UNL     1       2.078  -4.597  -2.405  0.00  0.00    +0.136 A 
ATOM     13  C   UNL     1       2.931  -3.931  -1.558  0.00  0.00    +0.041 A 
ATOM     14  S   UNL     1       1.891  -6.350  -2.285  0.00  0.00    +0.032 S 
ATOM     15  O   UNL     1       0.963  -6.599  -1.239  0.00  0.00    -0.164 OA
ATOM     16  O   UNL     1       3.197  -6.909  -2.303  0.00  0.00    -0.164 OA
ATOM     17  C   UNL     1       1.105  -6.822  -3.796  0.00  0.00    +0.136 A 
ATOM     18  C   UNL     1       1.078  -8.143  -4.184  0.00  0.00    +0.031 A 
ATOM     19  C   UNL     1       0.467  -8.501  -5.372  0.00  0.00    +0.002 A 
ATOM     20  C   UNL     1      -0.112  -7.527  -6.165  0.00  0.00    +0.004 A 
ATOM     21  C   UNL     1      -0.088  -6.205  -5.775  0.00  0.00    +0.048 A 
ATOM     22  C   UNL     1       0.520  -5.834  -4.577  0.00  0.00    +0.154 A 
ATOM     23  O   UNL     1       0.502  -4.540  -4.212  0.00  0.00    -0.452 OA
ENDBRANCH   2   8
BRANCH   1  27
ATOM     24  C   UNL     1       0.069   1.525  -0.191  0.00  0.00    +0.000 A 
ATOM     25  C   UNL     1       0.046   0.154  -0.007  0.00  0.00    +0.001 A 
ATOM     26  C   UNL     1       1.226  -0.560   0.029  0.00  0.00    +0.010 A 
ATOM     27  C   UNL     1       2.446   0.105  -0.120  0.00  0.00    +0.000 A 
ATOM     28  C   UNL     1       2.461   1.490  -0.304  0.00  0.00    +0.010 A 
ATOM     29  C   UNL     1       1.273   2.191  -0.339  0.00  0.00    +0.001 A 
ENDBRANCH   1  27
BRANCH   4  30
ATOM     30  C   UNL     1       7.132  -1.354   0.952  0.00  0.00    +0.019 A 
ATOM     31  C   UNL     1       7.995  -2.396   0.605  0.00  0.00    +0.015 A 
ATOM     32  C   UNL     1       9.266  -2.445   1.137  0.00  0.00    +0.050 A 
ATOM     33  C   UNL     1       9.692  -1.459   2.016  0.00  0.00    +0.158 A 
ATOM     34  C   UNL     1       8.836  -0.417   2.366  0.00  0.00    +0.159 A 
ATOM     35  C   UNL     1       7.562  -0.359   1.832  0.00  0.00    +0.060 A 
BRANCH  34  36
ATOM     36  O   UNL     1       9.256   0.547   3.228  0.00  0.00    -0.503 OA
ATOM     37  H   UNL     1       9.680   1.302   2.798  0.00  0.00    +0.292 HD
ENDBRANCH  34  36
BRANCH  33  38
ATOM     38  O   UNL     1      10.946  -1.511   2.537  0.00  0.00    -0.503 OA
ATOM     39  H   UNL     1      11.611  -1.050   2.008  0.00  0.00    +0.292 HD
ENDBRANCH  33  38
ENDBRANCH   4  30
TORSDOF 5
