REMARK  Name = ZINC28058678
REMARK  6 active torsions:
REMARK  status: ('A' for Active; 'I' for Inactive)
REMARK    1  A    between atoms: C_1  and  O_2
REMARK    2  A    between atoms: O_2  and  C_3
REMARK    3  A    between atoms: C_6  and  C_11
REMARK    4  A    between atoms: C_7  and  O_9
REMARK    5  A    between atoms: O_9  and  C_10
REMARK    6  A    between atoms: C_22  and  C_24
REMARK                            x       y       z     vdW  Elec       q    Type
REMARK                         _______ _______ _______ _____ _____    ______ ____
ROOT
ATOM      1  C   UNL     1      -2.197   2.615   3.817  0.00  0.00    +0.177 C 
ATOM      2  C   UNL     1      -1.338   2.826   5.039  0.00  0.00    +0.026 C 
ATOM      3  C   UNL     1      -1.779   3.476   6.118  0.00  0.00    +0.050 C 
ATOM      4  C   UNL     1      -0.854   3.651   7.263  0.00  0.00    +0.038 A 
ATOM      5  C   UNL     1      -1.319   4.010   8.523  0.00  0.00    +0.013 A 
ATOM      6  C   UNL     1      -0.420   4.163   9.561  0.00  0.00    +0.001 A 
ATOM      7  C   UNL     1       0.933   3.961   9.350  0.00  0.00    +0.004 A 
ATOM      8  C   UNL     1       1.403   3.604   8.099  0.00  0.00    +0.046 A 
ATOM      9  C   UNL     1       0.516   3.447   7.051  0.00  0.00    +0.131 A 
ATOM     10  O   UNL     1       0.937   3.096   5.810  0.00  0.00    -0.479 OA
ATOM     11  C   UNL     1       0.067   2.268   5.038  0.00  0.00    +0.234 C 
ATOM     12  N   UNL     1      -3.079   3.986   6.204  0.00  0.00    -0.282 N 
ATOM     13  C   UNL     1      -3.989   3.572   5.245  0.00  0.00    +0.240 A 
ATOM     14  N   UNL     1      -3.587   2.923   4.122  0.00  0.00    -0.201 N 
ATOM     15  N   UNL     1      -4.755   2.658   3.407  0.00  0.00    -0.042 NA
ATOM     16  N   UNL     1      -5.731   3.144   4.104  0.00  0.00    -0.021 NA
ATOM     17  N   UNL     1      -5.285   3.684   5.186  0.00  0.00    -0.092 NA
ATOM     18  H   UNL     1      -3.343   4.687   7.010  0.00  0.00    +0.155 HD
ENDROOT
BRANCH  11  19
ATOM     19  C   UNL     1       0.051   0.880   5.625  0.00  0.00    -0.003 A 
ATOM     20  C   UNL     1       0.151  -0.222   4.797  0.00  0.00    +0.008 A 
ATOM     21  C   UNL     1       0.141  -1.495   5.336  0.00  0.00    +0.015 A 
ATOM     22  C   UNL     1       0.021  -1.666   6.703  0.00  0.00    +0.018 A 
ATOM     23  C   UNL     1      -0.084  -0.563   7.531  0.00  0.00    +0.015 A 
ATOM     24  C   UNL     1      -0.068   0.710   6.992  0.00  0.00    +0.008 A 
ATOM     25 BR   UNL     1       0.001  -3.407   7.441  0.00  0.00    -0.050 Br
ENDBRANCH  11  19
BRANCH   1  29
ATOM     26  C   UNL     1      -0.842   5.170   0.666  0.00  0.00    +0.124 A 
ATOM     27  C   UNL     1      -1.277   5.714   1.868  0.00  0.00    +0.046 A 
ATOM     28  C   UNL     1      -1.710   4.885   2.885  0.00  0.00    +0.013 A 
ATOM     29  C   UNL     1      -1.718   3.515   2.707  0.00  0.00    +0.023 A 
ATOM     30  C   UNL     1      -1.280   2.967   1.510  0.00  0.00    +0.129 A 
ATOM     31  C   UNL     1      -0.844   3.796   0.488  0.00  0.00    +0.091 A 
BRANCH  26  33
ATOM     32  C   UNL     1      -0.442   7.392  -0.080  0.00  0.00    +0.277 C 
ATOM     33  O   UNL     1      -0.416   5.986  -0.334  0.00  0.00    -0.495 OA
ENDBRANCH  26  33
BRANCH  30  34
ATOM     34  O   UNL     1      -1.283   1.619   1.338  0.00  0.00    -0.495 OA
ATOM     35  C   UNL     1      -0.824   1.125   0.078  0.00  0.00    +0.277 C 
ENDBRANCH  30  34
ENDBRANCH   1  29
TORSDOF 4
