REMARK  Name = ZINC12474444
REMARK  10 active torsions:
REMARK  status: ('A' for Active; 'I' for Inactive)
REMARK    1  A    between atoms: C_1  and  C_2
REMARK    2  A    between atoms: C_2  and  O_3
REMARK    3  A    between atoms: O_3  and  C_4
REMARK    4  A    between atoms: C_7  and  C_10
REMARK    5  A    between atoms: C_10  and  N_62
REMARK    6  A    between atoms: C_16  and  C_18
REMARK    7  A    between atoms: C_18  and  C_19
REMARK    8  A    between atoms: N_21  and  C_22
REMARK    9  A    between atoms: C_22  and  C_23
REMARK   10  A    between atoms: C_30  and  C_33
REMARK                            x       y       z     vdW  Elec       q    Type
REMARK                         _______ _______ _______ _____ _____    ______ ____
ROOT
ATOM      1  C   UNL     1       0.320   5.564  -1.111  0.00  0.00    -0.058 C 
ATOM      2  C   UNL     1       1.735   6.060  -1.416  0.00  0.00    +0.085 C 
ATOM      3  N   UNL     1       2.695   5.413  -0.526  0.00  0.00    -0.318 N 
ATOM      4  C   UNL     1       2.419   4.292   0.146  0.00  0.00    +0.200 C 
ATOM      5  O   UNL     1       3.286   3.804   0.839  0.00  0.00    -0.278 OA
ATOM      6  C   UNL     1       1.081   3.611   0.082  0.00  0.00    +0.028 C 
ATOM      7  H   UNL     1       3.571   5.814  -0.419  0.00  0.00    +0.149 HD
ATOM      8  N   UNL     1       0.345   4.088  -1.104  0.00  0.00    +0.391 N 
ATOM      9  H   UNL     1       0.822   3.756  -1.951  0.00  0.00    -0.080 HD
ENDROOT
BRANCH   8  10
ATOM     10  C   UNL     1      -1.037   3.556  -1.090  0.00  0.00    -0.042 C 
BRANCH  10  14
ATOM     11  C   UNL     1      -2.755   4.065  -4.970  0.00  0.00    +0.121 A 
ATOM     12  C   UNL     1      -2.053   2.908  -4.667  0.00  0.00    +0.046 A 
ATOM     13  C   UNL     1      -1.499   2.745  -3.412  0.00  0.00    +0.005 A 
ATOM     14  C   UNL     1      -1.643   3.736  -2.458  0.00  0.00    -0.064 A 
ATOM     15  C   UNL     1      -2.347   4.888  -2.756  0.00  0.00    +0.005 A 
ATOM     16  C   UNL     1      -2.898   5.058  -4.011  0.00  0.00    +0.046 A 
BRANCH  11  17
ATOM     17  O   UNL     1      -3.302   4.227  -6.204  0.00  0.00    -0.492 OA
BRANCH  17  19
ATOM     18  C   UNL     1      -4.550   5.445  -7.876  0.00  0.00    +0.048 C 
ATOM     19  C   UNL     1      -4.010   5.444  -6.445  0.00  0.00    +0.225 C 
ENDBRANCH  17  19
ENDBRANCH  11  17
ENDBRANCH  10  14
ENDBRANCH   8  10
BRANCH   6  20
ATOM     20  C   UNL     1       1.285   2.099  -0.033  0.00  0.00    +0.089 C 
BRANCH  20  21
ATOM     21  C   UNL     1       2.010   1.786  -1.317  0.00  0.00    +0.212 C 
ATOM     22  O   UNL     1       2.244   2.672  -2.112  0.00  0.00    -0.276 OA
ATOM     23  N   UNL     1       2.403   0.524  -1.578  0.00  0.00    -0.311 N 
ATOM     24  H   UNL     1       2.219  -0.183  -0.940  0.00  0.00    +0.149 HD
BRANCH  23  25
ATOM     25  C   UNL     1       3.108   0.220  -2.826  0.00  0.00    +0.139 C 
BRANCH  25  26
ATOM     26  C   UNL     1       3.433  -1.251  -2.873  0.00  0.00    -0.030 A 
ATOM     27  C   UNL     1       4.639  -1.706  -2.357  0.00  0.00    +0.007 A 
ATOM     28  C   UNL     1       4.954  -3.047  -2.385  0.00  0.00    +0.026 A 
ATOM     29  C   UNL     1       4.061  -3.954  -2.946  0.00  0.00    +0.047 A 
ATOM     30  C   UNL     1       2.843  -3.487  -3.473  0.00  0.00    +0.000 A 
ATOM     31  C   UNL     1       2.542  -2.124  -3.429  0.00  0.00    +0.015 A 
ATOM     32  C   UNL     1       2.141  -4.669  -3.980  0.00  0.00    +0.030 A 
ATOM     33  C   UNL     1       2.933  -5.727  -3.743  0.00  0.00    +0.014 A 
ATOM     34  N   UNL     1       4.084  -5.319  -3.126  0.00  0.00    -0.358 N 
ATOM     35  H   UNL     1       4.809  -5.905  -2.856  0.00  0.00    +0.166 HD
ATOM     36  C   UNL     1       2.602  -7.153  -4.102  0.00  0.00    +0.063 C 
ENDBRANCH  25  26
ENDBRANCH  23  25
ENDBRANCH  20  21
ENDBRANCH   6  20
TORSDOF 8
