REMARK  Name = ZINC29397699
REMARK  6 active torsions:
REMARK  status: ('A' for Active; 'I' for Inactive)
REMARK    1  A    between atoms: C_1  and  C_2
REMARK    2  A    between atoms: C_4  and  O_5
REMARK    3  A    between atoms: N_13  and  C_14
REMARK    4  A    between atoms: C_14  and  C_15
REMARK    5  A    between atoms: N_17  and  C_18
REMARK    6  A    between atoms: C_21  and  C_24
REMARK                            x       y       z     vdW  Elec       q    Type
REMARK                         _______ _______ _______ _____ _____    ______ ____
ROOT
ATOM      1  C   UNL     1       4.830   5.357   0.025  0.00  0.00    +0.045 C 
ATOM      2  C   UNL     1       4.814   3.851   0.006  0.00  0.00    -0.033 A 
ATOM      3  C   UNL     1       5.973   3.141  -0.012  0.00  0.00    +0.091 A 
ATOM      4  C   UNL     1       5.932   1.732  -0.030  0.00  0.00    +0.285 A 
ATOM      5  O   UNL     1       4.770   1.060  -0.029  0.00  0.00    -0.425 OA
ATOM      6  C   UNL     1       3.583   1.704  -0.011  0.00  0.00    +0.141 A 
ATOM      7  C   UNL     1       3.550   3.112   0.007  0.00  0.00    +0.021 A 
ATOM      8  C   UNL     1       2.323   3.785   0.026  0.00  0.00    +0.014 A 
ATOM      9  C   UNL     1       1.159   3.074   0.021  0.00  0.00    +0.026 A 
ATOM     10  C   UNL     1       1.184   1.678   0.009  0.00  0.00    +0.039 A 
ATOM     11  C   UNL     1       2.393   0.996  -0.010  0.00  0.00    +0.072 A 
ATOM     12  N   UNL     1      -0.011   0.966   0.010  0.00  0.00    -0.376 N 
ATOM     13  H   UNL     1       0.004  -0.134   0.001  0.00  0.00    +0.160 HD
ENDROOT
BRANCH   4  14
ATOM     14  O   UNL     1       6.978   1.108  -0.046  0.00  0.00    -0.480 OA
ATOM     15  H   UNL     1       6.962   0.008  -0.060  0.00  0.00    +0.295 HD
ENDBRANCH   4  14
BRANCH  12  16
ATOM     16  C   UNL     1      -1.290   1.681   0.024  0.00  0.00    +0.209 C 
BRANCH  16  17
ATOM     17  C   UNL     1      -2.422   0.686   0.015  0.00  0.00    +0.236 C 
ATOM     18  O   UNL     1      -2.184  -0.503  -0.001  0.00  0.00    -0.274 OA
ATOM     19  N   UNL     1      -3.698   1.118   0.026  0.00  0.00    -0.284 N 
ATOM     20  H   UNL     1      -3.915   2.193   0.117  0.00  0.00    +0.155 HD
BRANCH  19  21
ATOM     21  C   UNL     1      -4.748   0.200  -0.080  0.00  0.00    +0.033 A 
ATOM     22  C   UNL     1      -5.907   0.543  -0.764  0.00  0.00    +0.024 A 
ATOM     23  C   UNL     1      -6.939  -0.368  -0.872  0.00  0.00    +0.014 A 
ATOM     24  C   UNL     1      -6.825  -1.617  -0.288  0.00  0.00    +0.055 A 
ATOM     25  C   UNL     1      -5.675  -1.960   0.398  0.00  0.00    +0.014 A 
ATOM     26  C   UNL     1      -4.636  -1.056   0.504  0.00  0.00    +0.024 A 
BRANCH  24  27
ATOM     27  C   UNL     1      -7.956  -2.606  -0.402  0.00  0.00    +0.417 C 
ATOM     28  F   UNL     1      -8.831  -2.441   0.677  0.00  0.00    -0.166 F 
ATOM     29  F   UNL     1      -8.647  -2.390  -1.599  0.00  0.00    -0.166 F 
ATOM     30  F   UNL     1      -7.441  -3.907  -0.390  0.00  0.00    -0.166 F 
ENDBRANCH  24  27
ENDBRANCH  19  21
ENDBRANCH  16  17
ENDBRANCH  12  16
TORSDOF 5
