REMARK  Name = ZINC52757373
REMARK  10 active torsions:
REMARK  status: ('A' for Active; 'I' for Inactive)
REMARK    1  A    between atoms: C_1  and  C_2
REMARK    2  A    between atoms: C_2  and  C_3
REMARK    3  A    between atoms: C_3  and  C_5
REMARK    4  A    between atoms: C_3  and  N_23
REMARK    5  A    between atoms: C_5  and  C_7
REMARK    6  A    between atoms: C_5  and  N_13
REMARK    7  A    between atoms: C_17  and  C_19
REMARK    8  A    between atoms: C_19  and  C_20
REMARK    9  A    between atoms: C_20  and  C_21
REMARK   10  A    between atoms: C_21  and  O_22
REMARK                            x       y       z     vdW  Elec       q    Type
REMARK                         _______ _______ _______ _____ _____    ______ ____
ROOT
ATOM      1  C   UNL     1      -0.012  -2.105  -1.023  0.00  0.00    +0.079 C 
ENDROOT
BRANCH   1   2
ATOM      2  C   UNL     1       0.865  -2.015   0.200  0.00  0.00    +0.006 A 
ATOM      3  C   UNL     1       0.508  -2.001   1.507  0.00  0.00    +0.028 A 
ATOM      4  C   UNL     1       1.495  -1.911   2.471  0.00  0.00    +0.025 A 
ATOM      5  C   UNL     1       2.791  -1.840   2.079  0.00  0.00    +0.060 A 
ATOM      6  S   UNL     1       2.644  -1.907   0.301  0.00  0.00    -0.099 S 
ATOM      7 BR   UNL     1       1.045  -1.887   4.307  0.00  0.00    -0.050 Br
ENDBRANCH   1   2
BRANCH   1   8
ATOM      8  N   UNL     1       0.659  -2.914  -2.049  0.00  0.00    -0.294 NA
ATOM      9  C   UNL     1      -0.117  -2.925  -3.307  0.00  0.00    +0.085 C 
ATOM     10  C   UNL     1       0.125  -4.332  -3.909  0.00  0.00    +0.017 C 
ATOM     11  C   UNL     1       0.154  -5.217  -2.635  0.00  0.00    +0.020 C 
ATOM     12  C   UNL     1       0.836  -4.305  -1.593  0.00  0.00    +0.057 C 
BRANCH  12  13
ATOM     13  C   UNL     1       0.175  -4.492  -0.226  0.00  0.00    +0.021 C 
BRANCH  13  14
ATOM     14  C   UNL     1       0.341  -5.945   0.226  0.00  0.00    +0.029 C 
BRANCH  14  15
ATOM     15  C   UNL     1      -0.416  -6.161   1.538  0.00  0.00    +0.156 C 
BRANCH  15  16
ATOM     16  O   UNL     1      -0.168  -7.483   2.019  0.00  0.00    -0.395 OA
ATOM     17  H   UNL     1      -0.677  -7.716   2.808  0.00  0.00    +0.209 HD
ENDBRANCH  15  16
ENDBRANCH  14  15
ENDBRANCH  13  14
ENDBRANCH  12  13
ENDBRANCH   1   8
BRANCH   1  18
ATOM     18  C   UNL     1      -0.271  -0.700  -1.570  0.00  0.00    -0.053 C 
BRANCH  18  19
ATOM     19  N   UNL     1      -1.253  -0.771  -2.659  0.00  0.00    +0.381 N 
ATOM     20  H   UNL     1      -1.684   0.133  -2.784  0.00  0.00    -0.090 HD
ATOM     21  H   UNL     1      -0.789  -1.043  -3.513  0.00  0.00    -0.090 HD
ATOM     22  H   UNL     1      -1.961  -1.452  -2.430  0.00  0.00    -0.090 HD
ENDBRANCH  18  19
BRANCH  18  24
ATOM     23  C   UNL     1      -0.955   1.626  -0.964  0.00  0.00    +0.002 C 
ATOM     24  C   UNL     1      -0.814   0.191  -0.451  0.00  0.00    -0.018 C 
ENDBRANCH  18  24
ENDBRANCH   1  18
TORSDOF 9
