REMARK  Name = ZINC55022448
REMARK  8 active torsions:
REMARK  status: ('A' for Active; 'I' for Inactive)
REMARK    1  A    between atoms: C_1  and  N_2
REMARK    2  A    between atoms: N_2  and  C_3
REMARK    3  A    between atoms: N_2  and  C_12
REMARK    4  A    between atoms: C_3  and  C_4
REMARK    5  A    between atoms: C_4  and  C_5
REMARK    6  A    between atoms: C_12  and  C_13
REMARK    7  A    between atoms: N_15  and  C_16
REMARK    8  A    between atoms: C_17  and  C_24
REMARK                            x       y       z     vdW  Elec       q    Type
REMARK                         _______ _______ _______ _____ _____    ______ ____
ROOT
ATOM      1  C   UNL     1      -0.059  -0.109   2.429  0.00  0.00    +0.201 C 
ATOM      2  O   UNL     1      -1.099   0.507   2.329  0.00  0.00    -0.278 OA
ATOM      3  N   UNL     1       0.406  -0.453   3.646  0.00  0.00    -0.281 N 
ATOM      4  H   UNL     1       1.237  -0.946   3.726  0.00  0.00    +0.155 HD
ENDROOT
BRANCH   3   5
ATOM      5  C   UNL     1      -0.305  -0.102   4.784  0.00  0.00    +0.084 A 
ATOM      6  C   UNL     1       0.019  -0.363   6.103  0.00  0.00    +0.068 A 
ATOM      7  C   UNL     1      -0.905   0.120   7.128  0.00  0.00    -0.023 A 
ATOM      8  C   UNL     1      -1.976   0.769   6.638  0.00  0.00    -0.004 A 
ATOM      9  S   UNL     1      -1.750   0.742   4.878  0.00  0.00    -0.077 S 
ATOM     10  C   UNL     1      -2.895   1.240   7.733  0.00  0.00    +0.043 C 
ATOM     11  C   UNL     1      -2.473   0.423   8.975  0.00  0.00    +0.010 C 
ATOM     12  C   UNL     1      -1.001   0.097   8.652  0.00  0.00    +0.037 C 
BRANCH   6  13
ATOM     13  C   UNL     1       1.240  -1.093   6.459  0.00  0.00    +0.244 C 
ATOM     14  O   UNL     1       2.276  -0.487   6.656  0.00  0.00    -0.270 OA
ATOM     15  N   UNL     1       1.214  -2.437   6.567  0.00  0.00    -0.325 N 
ATOM     16  H   UNL     1       0.388  -2.920   6.410  0.00  0.00    +0.145 HD
ATOM     17  H   UNL     1       2.021  -2.920   6.802  0.00  0.00    +0.145 HD
ENDBRANCH   6  13
ENDBRANCH   3   5
BRANCH   1  18
ATOM     18  C   UNL     1       0.713  -0.491   1.192  0.00  0.00    +0.019 C 
BRANCH  18  20
ATOM     19  C   UNL     1      -0.018   1.465   0.010  0.00  0.00    -0.096 C 
ATOM     20  N   UNL     1       0.002  -0.004   0.002  0.00  0.00    +0.384 N 
ATOM     21  H   UNL     1      -0.945  -0.353   0.009  0.00  0.00    -0.082 HD
BRANCH  20  22
ATOM     22  C   UNL     1       0.690  -0.478  -1.207  0.00  0.00    -0.074 C 
BRANCH  22  23
ATOM     23  C   UNL     1      -0.118  -0.077  -2.443  0.00  0.00    +0.016 C 
BRANCH  23  24
ATOM     24  C   UNL     1       0.588  -0.563  -3.683  0.00  0.00    -0.049 A 
ATOM     25  C   UNL     1       1.520   0.244  -4.308  0.00  0.00    +0.006 A 
ATOM     26  C   UNL     1       2.167  -0.201  -5.445  0.00  0.00    +0.038 A 
ATOM     27  C   UNL     1       1.883  -1.455  -5.957  0.00  0.00    +0.123 A 
ATOM     28  C   UNL     1       0.949  -2.263  -5.330  0.00  0.00    +0.038 A 
ATOM     29  C   UNL     1       0.306  -1.818  -4.191  0.00  0.00    +0.006 A 
ATOM     30  F   UNL     1       2.515  -1.891  -7.069  0.00  0.00    -0.205 F 
ENDBRANCH  23  24
ENDBRANCH  22  23
ENDBRANCH  20  22
ENDBRANCH  18  20
ENDBRANCH   1  18
TORSDOF 7
