REMARK  Name = ZINC01684444
REMARK  4 active torsions:
REMARK  status: ('A' for Active; 'I' for Inactive)
REMARK    1  A    between atoms: C_3  and  N_11
REMARK    2  A    between atoms: C_6  and  C_7
REMARK    3  A    between atoms: N_18  and  C_19
REMARK    4  A    between atoms: C_22  and  C_25
REMARK                            x       y       z     vdW  Elec       q    Type
REMARK                         _______ _______ _______ _____ _____    ______ ____
ROOT
ATOM      1  N   UNL     1      -1.052  -0.667  -0.045  0.00  0.00    -0.283 N 
ATOM      2  C   UNL     1       0.219  -0.181   0.194  0.00  0.00    +0.225 A 
ATOM      3  N   UNL     1       0.383   1.068   0.618  0.00  0.00    -0.181 NA
ATOM      4  C   UNL     1       1.606   1.536   0.849  0.00  0.00    +0.218 A 
ATOM      5  N   UNL     1       2.664   0.754   0.657  0.00  0.00    -0.181 NA
ATOM      6  C   UNL     1       2.499  -0.495   0.233  0.00  0.00    +0.225 A 
ATOM      7  N   UNL     1       1.277  -0.963   0.002  0.00  0.00    -0.181 NA
ATOM      8  N   UNL     1       3.599  -1.307   0.033  0.00  0.00    -0.283 N 
ATOM      9  N   UNL     1       1.777   2.833   1.289  0.00  0.00    -0.327 N 
ATOM     10  H   UNL     1      -1.169  -1.551  -0.428  0.00  0.00    +0.155 HD
ATOM     11  H   UNL     1       3.476  -2.242  -0.197  0.00  0.00    +0.155 HD
ATOM     12  H   UNL     1       1.005   3.403   1.429  0.00  0.00    +0.145 HD
ATOM     13  H   UNL     1       2.670   3.174   1.457  0.00  0.00    +0.145 HD
ENDROOT
BRANCH   1  16
ATOM     14  C   UNL     1      -4.419   0.786  -0.212  0.00  0.00    +0.013 A 
ATOM     15  C   UNL     1      -3.317   0.017  -0.514  0.00  0.00    +0.024 A 
ATOM     16  C   UNL     1      -2.167   0.112   0.263  0.00  0.00    +0.034 A 
ATOM     17  C   UNL     1      -2.128   0.979   1.350  0.00  0.00    +0.024 A 
ATOM     18  C   UNL     1      -3.226   1.754   1.654  0.00  0.00    +0.013 A 
ATOM     19  C   UNL     1      -4.381   1.661   0.875  0.00  0.00    +0.013 A 
BRANCH  19  20
ATOM     20  C   UNL     1      -5.563   2.488   1.202  0.00  0.00    +0.100 C 
ATOM     21  C   UNL     1      -7.646   3.376   1.089  0.00  0.00    +0.132 C 
ATOM     22  C   UNL     1      -6.912   4.013   2.286  0.00  0.00    +0.124 C 
ATOM     23  N   UNL     1      -5.592   3.362   2.259  0.00  0.00    -0.329 N 
ATOM     24  H   UNL     1      -4.866   3.524   2.881  0.00  0.00    +0.147 HD
ATOM     25  N   UNL     1      -6.661   2.443   0.517  0.00  0.00    -0.371 N 
ATOM     26  H   UNL     1      -6.821   1.845  -0.303  0.00  0.00    +0.161 HD
ENDBRANCH  19  20
ENDBRANCH   1  16
BRANCH   8  27
ATOM     27  C   UNL     1       4.885  -0.784   0.161  0.00  0.00    +0.034 A 
ATOM     28  C   UNL     1       5.137   0.535  -0.203  0.00  0.00    +0.024 A 
ATOM     29  C   UNL     1       6.406   1.056  -0.073  0.00  0.00    +0.013 A 
ATOM     30  C   UNL     1       7.441   0.256   0.415  0.00  0.00    +0.013 A 
ATOM     31  C   UNL     1       7.186  -1.068   0.774  0.00  0.00    +0.013 A 
ATOM     32  C   UNL     1       5.915  -1.583   0.646  0.00  0.00    +0.024 A 
BRANCH  30  33
ATOM     33  C   UNL     1       8.805   0.812   0.551  0.00  0.00    +0.100 C 
ATOM     34  C   UNL     1      11.020   0.944   1.012  0.00  0.00    +0.132 C 
ATOM     35  C   UNL     1      10.554   2.312   0.475  0.00  0.00    +0.124 C 
ATOM     36  N   UNL     1       9.121   2.102   0.211  0.00  0.00    -0.329 N 
ATOM     37  H   UNL     1       8.506   2.764  -0.142  0.00  0.00    +0.147 HD
ATOM     38  N   UNL     1       9.803   0.117   0.996  0.00  0.00    -0.371 N 
ATOM     39  H   UNL     1       9.753  -0.865   1.294  0.00  0.00    +0.161 HD
ENDBRANCH  30  33
ENDBRANCH   8  27
TORSDOF 4
