REMARK  Name = ZINC12383811
REMARK  4 active torsions:
REMARK  status: ('A' for Active; 'I' for Inactive)
REMARK    1  A    between atoms: C_1  and  C_2
REMARK    2  A    between atoms: C_2  and  C_4
REMARK    3  A    between atoms: C_2  and  N_10
REMARK    4  A    between atoms: C_22  and  N_33
REMARK                            x       y       z     vdW  Elec       q    Type
REMARK                         _______ _______ _______ _____ _____    ______ ____
ROOT
ATOM      1  N   UNL     1      -2.598   2.423  -3.087  0.00  0.00    -0.234 N 
ATOM      2  C   UNL     1      -3.245   3.365  -2.389  0.00  0.00    +0.227 C 
ATOM      3  O   UNL     1      -4.313   3.854  -2.690  0.00  0.00    -0.275 OA
ATOM      4  C   UNL     1      -2.430   3.724  -1.165  0.00  0.00    +0.102 C 
ATOM      5  C   UNL     1      -3.256   3.383   0.095  0.00  0.00    +0.062 C 
ATOM      6  C   UNL     1      -3.570   1.900  -0.016  0.00  0.00    -0.033 A 
ATOM      7  C   UNL     1      -4.828   1.368  -0.040  0.00  0.00    +0.004 A 
ATOM      8  C   UNL     1      -4.971  -0.009  -0.144  0.00  0.00    +0.000 A 
ATOM      9  C   UNL     1      -3.857  -0.825  -0.222  0.00  0.00    +0.000 A 
ATOM     10  C   UNL     1      -2.581  -0.278  -0.197  0.00  0.00    +0.007 A 
ATOM     11  C   UNL     1      -2.447   1.077  -0.096  0.00  0.00    -0.006 A 
ATOM     12  C   UNL     1      -1.121   1.820  -0.057  0.00  0.00    +0.183 C 
ATOM     13  C   UNL     1      -1.160   2.793  -1.256  0.00  0.00    +0.130 C 
ATOM     14  C   UNL     1      -1.432   2.040  -2.552  0.00  0.00    +0.229 C 
ATOM     15  O   UNL     1      -0.687   1.203  -3.017  0.00  0.00    -0.275 OA
ATOM     16  C   UNL     1      -1.181   2.682   1.194  0.00  0.00    -0.006 A 
ATOM     17  C   UNL     1      -2.303   3.504   1.274  0.00  0.00    -0.033 A 
ATOM     18  C   UNL     1      -2.487   4.333   2.344  0.00  0.00    +0.004 A 
ATOM     19  C   UNL     1      -1.534   4.342   3.355  0.00  0.00    +0.000 A 
ATOM     20  C   UNL     1      -0.421   3.525   3.276  0.00  0.00    +0.000 A 
ATOM     21  C   UNL     1      -0.240   2.686   2.184  0.00  0.00    +0.007 A 
ENDROOT
BRANCH  12  22
ATOM     22  N   UNL     1       0.038   0.925  -0.083  0.00  0.00    +0.038 N 
ATOM     23  O   UNL     1       0.911   1.083  -0.917  0.00  0.00    -0.130 OA
ATOM     24  O   UNL     1       0.132   0.026   0.734  0.00  0.00    -0.130 OA
ENDBRANCH  12  22
BRANCH   1  26
ATOM     25  C   UNL     1      -4.476   1.195  -4.061  0.00  0.00    +0.033 C 
ATOM     26  C   UNL     1      -3.124   1.858  -4.332  0.00  0.00    +0.111 C 
BRANCH  26  27
ATOM     27  C   UNL     1      -3.298   2.956  -5.348  0.00  0.00    -0.027 A 
ATOM     28  C   UNL     1      -4.338   2.899  -6.257  0.00  0.00    +0.005 A 
ATOM     29  C   UNL     1      -4.500   3.909  -7.187  0.00  0.00    +0.000 A 
ATOM     30  C   UNL     1      -3.617   4.972  -7.214  0.00  0.00    +0.000 A 
ATOM     31  C   UNL     1      -2.574   5.027  -6.308  0.00  0.00    +0.000 A 
ATOM     32  C   UNL     1      -2.414   4.019  -5.376  0.00  0.00    +0.005 A 
ENDBRANCH  26  27
ENDBRANCH   1  26
TORSDOF 3
