REMARK  Name = ZINC39325312
REMARK  10 active torsions:
REMARK  status: ('A' for Active; 'I' for Inactive)
REMARK    1  A    between atoms: C_1  and  O_2
REMARK    2  A    between atoms: O_2  and  C_3
REMARK    3  A    between atoms: C_6  and  C_9
REMARK    4  A    between atoms: C_9  and  N_10
REMARK    5  A    between atoms: N_10  and  C_11
REMARK    6  A    between atoms: N_10  and  S_28
REMARK    7  A    between atoms: C_11  and  C_12
REMARK    8  A    between atoms: S_28  and  C_31
REMARK    9  A    between atoms: C_34  and  O_37
REMARK   10  A    between atoms: O_37  and  C_38
REMARK                            x       y       z     vdW  Elec       q    Type
REMARK                         _______ _______ _______ _____ _____    ______ ____
ROOT
ATOM      1  N   UNL     1       4.300  -2.555  -4.011  0.00  0.00    -0.171 NA
ENDROOT
BRANCH   1   2
ATOM      2  S   UNL     1       5.103  -1.284  -4.705  0.00  0.00    +0.061 S 
ATOM      3  O   UNL     1       6.439  -1.716  -4.920  0.00  0.00    -0.153 OA
ATOM      4  O   UNL     1       4.277  -0.809  -5.759  0.00  0.00    -0.153 OA
BRANCH   2   5
ATOM      5  C   UNL     1       5.176   0.003  -3.504  0.00  0.00    +0.106 A 
ATOM      6  C   UNL     1       4.221   1.003  -3.504  0.00  0.00    +0.032 A 
ATOM      7  C   UNL     1       4.277   2.013  -2.563  0.00  0.00    +0.047 A 
ATOM      8  C   UNL     1       5.293   2.024  -1.618  0.00  0.00    +0.120 A 
ATOM      9  C   UNL     1       6.250   1.020  -1.620  0.00  0.00    +0.047 A 
ATOM     10  C   UNL     1       6.186   0.009  -2.559  0.00  0.00    +0.032 A 
BRANCH   8  11
ATOM     11  O   UNL     1       5.350   3.017  -0.693  0.00  0.00    -0.495 OA
ATOM     12  C   UNL     1       6.423   2.965   0.250  0.00  0.00    +0.277 C 
ENDBRANCH   8  11
ENDBRANCH   2   5
ENDBRANCH   1   2
BRANCH   1  13
ATOM     13  C   UNL     1       2.846  -2.669  -4.153  0.00  0.00    +0.144 C 
BRANCH  13  17
ATOM     14  C   UNL     1       0.939  -0.829  -0.800  0.00  0.00    +0.120 A 
ATOM     15  C   UNL     1       1.128  -0.111  -1.972  0.00  0.00    +0.046 A 
ATOM     16  C   UNL     1       1.745  -0.708  -3.054  0.00  0.00    +0.008 A 
ATOM     17  C   UNL     1       2.174  -2.020  -2.971  0.00  0.00    -0.031 A 
ATOM     18  C   UNL     1       1.986  -2.738  -1.804  0.00  0.00    +0.008 A 
ATOM     19  C   UNL     1       1.375  -2.144  -0.717  0.00  0.00    +0.046 A 
BRANCH  14  21
ATOM     20  C   UNL     1      -0.090   1.112   0.108  0.00  0.00    +0.277 C 
ATOM     21  O   UNL     1       0.333  -0.244   0.266  0.00  0.00    -0.495 OA
ENDBRANCH  14  21
ENDBRANCH  13  17
ENDBRANCH   1  13
BRANCH   1  22
ATOM     22  C   UNL     1       5.043  -3.567  -3.256  0.00  0.00    +0.126 C 
BRANCH  22  23
ATOM     23  C   UNL     1       5.634  -4.594  -4.223  0.00  0.00    +0.114 C 
ATOM     24  C   UNL     1       6.591  -5.472  -3.441  0.00  0.00    -0.003 C 
ATOM     25  C   UNL     1       6.348  -6.810  -3.435  0.00  0.00    -0.003 A 
ATOM     26  C   UNL     1       7.225  -7.727  -2.706  0.00  0.00    +0.059 A 
ATOM     27  C   UNL     1       6.955  -9.061  -2.719  0.00  0.00    +0.163 A 
ATOM     28  C   UNL     1       5.845  -9.572  -3.420  0.00  0.00    +0.164 A 
ATOM     29  C   UNL     1       4.990  -8.749  -4.125  0.00  0.00    +0.073 A 
ATOM     30  C   UNL     1       5.194  -7.365  -4.166  0.00  0.00    +0.044 A 
ATOM     31  N   UNL     1       4.354  -6.588  -4.854  0.00  0.00    -0.284 N 
ATOM     32  C   UNL     1       4.487  -5.276  -4.933  0.00  0.00    +0.225 C 
ATOM     33  O   UNL     1       3.689  -4.620  -5.576  0.00  0.00    -0.275 OA
ATOM     34  O   UNL     1       5.587 -10.908  -3.411  0.00  0.00    -0.485 OA
ATOM     35  C   UNL     1       6.658 -11.772  -3.021  0.00  0.00    +0.270 C 
ATOM     36  C   UNL     1       7.293 -11.205  -1.744  0.00  0.00    +0.270 C 
ATOM     37  O   UNL     1       7.790  -9.895  -2.035  0.00  0.00    -0.485 OA
ATOM     38  H   UNL     1       3.611  -7.006  -5.318  0.00  0.00    +0.155 HD
ENDBRANCH  22  23
ENDBRANCH   1  22
TORSDOF 8
