REMARK  Name = ZINC49123049
REMARK  7 active torsions:
REMARK  status: ('A' for Active; 'I' for Inactive)
REMARK    1  A    between atoms: C_1  and  C_2
REMARK    2  A    between atoms: C_2  and  C_3
REMARK    3  A    between atoms: C_6  and  N_9
REMARK    4  A    between atoms: N_9  and  S_10
REMARK    5  A    between atoms: S_10  and  C_13
REMARK    6  A    between atoms: C_16  and  C_18
REMARK    7  A    between atoms: C_18  and  N_19
REMARK                            x       y       z     vdW  Elec       q    Type
REMARK                         _______ _______ _______ _____ _____    ______ ____
ROOT
ATOM      1  S   UNL     1       4.280  -4.104  -1.477  0.00  0.00    +0.065 S 
ATOM      2  O   UNL     1       4.796  -4.387  -0.184  0.00  0.00    -0.153 OA
ATOM      3  O   UNL     1       3.430  -5.006  -2.172  0.00  0.00    -0.153 OA
ENDROOT
BRANCH   1   4
ATOM      4  C   UNL     1       5.669  -3.813  -2.521  0.00  0.00    +0.143 A 
ATOM      5  C   UNL     1       6.921  -3.416  -2.186  0.00  0.00    +0.036 A 
ATOM      6  C   UNL     1       7.862  -3.251  -3.185  0.00  0.00    +0.011 A 
ATOM      7  C   UNL     1       7.505  -3.491  -4.470  0.00  0.00    -0.026 A 
ATOM      8  S   UNL     1       5.795  -3.973  -4.295  0.00  0.00    -0.075 S 
BRANCH   7   9
ATOM      9  C   UNL     1       8.337  -3.385  -5.722  0.00  0.00    -0.043 C 
BRANCH   9  10
ATOM     10  N   UNL     1       8.990  -4.674  -5.987  0.00  0.00    +0.381 N 
ATOM     11  H   UNL     1       8.287  -5.387  -6.111  0.00  0.00    -0.090 HD
ATOM     12  H   UNL     1       9.547  -4.602  -6.826  0.00  0.00    -0.090 HD
ATOM     13  H   UNL     1       9.583  -4.917  -5.209  0.00  0.00    -0.090 HD
ENDBRANCH   9  10
ENDBRANCH   7   9
ENDBRANCH   1   4
BRANCH   1  14
ATOM     14  N   UNL     1       3.452  -2.674  -1.354  0.00  0.00    -0.186 NA
ATOM     15  H   UNL     1       3.389  -2.223  -0.498  0.00  0.00    +0.148 HD
BRANCH  14  19
ATOM     16  C   UNL     1       0.718  -0.497  -1.257  0.00  0.00    -0.011 C 
ATOM     17  C   UNL     1       2.187  -0.073  -1.207  0.00  0.00    +0.005 C 
ATOM     18  C   UNL     1       2.904  -0.566  -2.466  0.00  0.00    +0.020 C 
ATOM     19  C   UNL     1       2.816  -2.092  -2.538  0.00  0.00    +0.077 C 
ATOM     20  C   UNL     1       1.347  -2.517  -2.587  0.00  0.00    +0.020 C 
ATOM     21  C   UNL     1       0.630  -2.023  -1.329  0.00  0.00    +0.005 C 
BRANCH  16  23
ATOM     22  C   UNL     1      -0.019   1.526   0.010  0.00  0.00    +0.004 C 
ATOM     23  C   UNL     1       0.002  -0.004   0.002  0.00  0.00    -0.000 C 
ENDBRANCH  16  23
ENDBRANCH  14  19
ENDBRANCH   1  14
TORSDOF 6
