REMARK  Name = ZINC61185509
REMARK  9 active torsions:
REMARK  status: ('A' for Active; 'I' for Inactive)
REMARK    1  A    between atoms: C_1  and  C_2
REMARK    2  A    between atoms: C_4  and  C_25
REMARK    3  A    between atoms: C_9  and  C_10
REMARK    4  A    between atoms: C_10  and  N_11
REMARK    5  A    between atoms: N_14  and  C_15
REMARK    6  A    between atoms: C_15  and  C_16
REMARK    7  A    between atoms: C_16  and  C_17
REMARK    8  A    between atoms: C_16  and  C_18
REMARK    9  A    between atoms: C_16  and  N_19
REMARK                            x       y       z     vdW  Elec       q    Type
REMARK                         _______ _______ _______ _____ _____    ______ ____
ROOT
ATOM      1  N   UNL     1      -1.507  -0.304   3.075  0.00  0.00    -0.295 N 
ATOM      2  C   UNL     1      -1.690   0.445   4.181  0.00  0.00    +0.300 C 
ATOM      3  O   UNL     1      -0.733   0.943   4.743  0.00  0.00    -0.253 OA
ATOM      4  N   UNL     1      -2.933   0.642   4.663  0.00  0.00    -0.301 N 
ATOM      5  H   UNL     1      -2.269  -0.702   2.627  0.00  0.00    +0.151 HD
ATOM      6  H   UNL     1      -3.695   0.244   4.214  0.00  0.00    +0.150 HD
ENDROOT
BRANCH   1   7
ATOM      7  C   UNL     1      -0.155  -0.519   2.551  0.00  0.00    +0.146 C 
BRANCH   7  16
ATOM      8  C   UNL     1      -0.234   0.683  -0.074  0.00  0.00    +0.044 C 
ATOM      9  C   UNL     1      -0.263  -0.816   0.079  0.00  0.00    -0.039 A 
ATOM     10  C   UNL     1      -0.323  -1.643  -1.052  0.00  0.00    +0.024 A 
ATOM     11  C   UNL     1      -0.349  -2.988  -0.905  0.00  0.00    +0.016 A 
ATOM     12  N   UNL     1      -0.317  -3.551   0.330  0.00  0.00    -0.326 N 
ATOM     13  H   UNL     1      -0.336  -4.517   0.417  0.00  0.00    +0.169 HD
ATOM     14  C   UNL     1      -0.259  -2.784   1.435  0.00  0.00    +0.254 A 
ATOM     15  O   UNL     1      -0.230  -3.305   2.539  0.00  0.00    -0.268 OA
ATOM     16  C   UNL     1      -0.226  -1.384   1.319  0.00  0.00    +0.037 A 
ATOM     17  C   UNL     1      -0.414  -3.870  -2.125  0.00  0.00    +0.063 C 
ENDBRANCH   7  16
ENDBRANCH   1   7
BRANCH   4  18
ATOM     18  C   UNL     1      -3.131   1.456   5.864  0.00  0.00    +0.093 C 
BRANCH  18  19
ATOM     19  C   UNL     1      -4.630   1.628   6.122  0.00  0.00    -0.055 C 
ATOM     20  C   UNL     1      -5.249   0.269   6.456  0.00  0.00    -0.008 C 
ATOM     21  C   UNL     1      -4.839   2.587   7.295  0.00  0.00    -0.008 C 
BRANCH  19  22
ATOM     22  N   UNL     1      -5.273   2.177   4.920  0.00  0.00    +0.384 N 
ATOM     23  C   UNL     1      -4.648   3.459   4.575  0.00  0.00    -0.078 C 
ATOM     24  C   UNL     1      -5.259   3.996   3.279  0.00  0.00    -0.019 C 
ATOM     25  C   UNL     1      -6.764   4.197   3.475  0.00  0.00    -0.004 C 
ATOM     26  C   UNL     1      -7.394   2.869   3.907  0.00  0.00    -0.019 C 
ATOM     27  C   UNL     1      -6.704   2.374   5.180  0.00  0.00    -0.078 C 
ATOM     28  H   UNL     1      -5.157   1.531   4.153  0.00  0.00    -0.081 HD
ENDBRANCH  19  22
ENDBRANCH  18  19
ENDBRANCH   4  18
TORSDOF 5
