REMARK  Name = ZINC36500477
REMARK  11 active torsions:
REMARK  status: ('A' for Active; 'I' for Inactive)
REMARK    1  A    between atoms: C_1  and  C_2
REMARK    2  A    between atoms: C_5  and  C_9
REMARK    3  A    between atoms: C_6  and  C_8
REMARK    4  A    between atoms: C_9  and  C_11
REMARK    5  A    between atoms: C_9  and  N_20
REMARK    6  A    between atoms: N_13  and  C_14
REMARK    7  A    between atoms: N_20  and  C_21
REMARK    8  A    between atoms: C_21  and  C_22
REMARK    9  A    between atoms: C_27  and  C_29
REMARK   10  A    between atoms: C_30  and  O_36
REMARK   11  A    between atoms: C_34  and  O_35
REMARK                            x       y       z     vdW  Elec       q    Type
REMARK                         _______ _______ _______ _____ _____    ______ ____
ROOT
ATOM      1  C   UNL     1       0.149  -4.425   0.089  0.00  0.00    +0.193 C 
ENDROOT
BRANCH   1   6
ATOM      2  C   UNL     1       1.157   1.141  -1.092  0.00  0.00    +0.044 C 
ATOM      3  C   UNL     1       0.895  -0.311  -0.784  0.00  0.00    -0.050 A 
ATOM      4  C   UNL     1       1.891  -1.250  -0.976  0.00  0.00    +0.004 A 
ATOM      5  C   UNL     1       1.650  -2.581  -0.693  0.00  0.00    +0.006 A 
ATOM      6  C   UNL     1       0.412  -2.974  -0.218  0.00  0.00    -0.015 A 
ATOM      7  C   UNL     1      -0.584  -2.035  -0.026  0.00  0.00    -0.045 A 
ATOM      8  C   UNL     1      -0.341  -0.703  -0.304  0.00  0.00    +0.007 A 
ATOM      9  C   UNL     1      -1.933  -2.463   0.491  0.00  0.00    +0.044 C 
ENDBRANCH   1   6
BRANCH   1  10
ATOM     10  C   UNL     1       1.459  -5.164   0.185  0.00  0.00    +0.238 C 
ATOM     11  O   UNL     1       1.815  -5.888  -0.720  0.00  0.00    -0.273 OA
ATOM     12  N   UNL     1       2.235  -5.020   1.278  0.00  0.00    -0.311 N 
ATOM     13  H   UNL     1       1.919  -4.499   2.033  0.00  0.00    +0.149 HD
BRANCH  12  14
ATOM     14  C   UNL     1       3.557  -5.649   1.325  0.00  0.00    +0.073 C 
ATOM     15  C   UNL     1       3.416  -7.098   1.797  0.00  0.00    +0.022 C 
ATOM     16  C   UNL     1       4.796  -7.755   1.847  0.00  0.00    +0.002 C 
ATOM     17  C   UNL     1       5.692  -6.987   2.820  0.00  0.00    +0.000 C 
ATOM     18  C   UNL     1       5.834  -5.539   2.348  0.00  0.00    +0.002 C 
ATOM     19  C   UNL     1       4.453  -4.881   2.299  0.00  0.00    +0.022 C 
ENDBRANCH  12  14
ENDBRANCH   1  10
BRANCH   1  20
ATOM     20  N   UNL     1      -0.664  -5.011  -0.979  0.00  0.00    -0.274 N 
ATOM     21  C   UNL     1      -1.171  -6.252  -0.837  0.00  0.00    +0.255 C 
ATOM     22  O   UNL     1      -0.953  -6.885   0.178  0.00  0.00    -0.270 OA
BRANCH  21  23
ATOM     23  C   UNL     1      -1.989  -6.840  -1.911  0.00  0.00    +0.119 A 
ATOM     24  C   UNL     1      -1.383  -7.593  -2.928  0.00  0.00    +0.133 A 
ATOM     25  C   UNL     1      -2.162  -8.143  -3.933  0.00  0.00    +0.046 A 
ATOM     26  C   UNL     1      -3.531  -7.951  -3.937  0.00  0.00    +0.007 A 
ATOM     27  C   UNL     1      -4.138  -7.211  -2.940  0.00  0.00    +0.046 A 
ATOM     28  C   UNL     1      -3.379  -6.657  -1.921  0.00  0.00    +0.133 A 
BRANCH  28  29
ATOM     29  O   UNL     1      -3.978  -5.936  -0.941  0.00  0.00    -0.506 OA
ATOM     30  H   UNL     1      -4.051  -4.991  -1.136  0.00  0.00    +0.292 HD
ENDBRANCH  28  29
BRANCH  24  31
ATOM     31  O   UNL     1      -0.040  -7.782  -2.927  0.00  0.00    -0.506 OA
ATOM     32  H   UNL     1       0.246  -8.570  -2.446  0.00  0.00    +0.292 HD
ENDBRANCH  24  31
ENDBRANCH  21  23
BRANCH  20  33
ATOM     33  C   UNL     1      -0.927  -4.248  -2.202  0.00  0.00    +0.183 C 
BRANCH  33  34
ATOM     34  C   UNL     1       0.223  -4.424  -3.161  0.00  0.00    +0.122 A 
ATOM     35  C   UNL     1       0.272  -5.304  -4.177  0.00  0.00    +0.046 A 
ATOM     36  C   UNL     1       1.524  -5.128  -4.810  0.00  0.00    +0.041 A 
ATOM     37  C   UNL     1       2.165  -4.152  -4.143  0.00  0.00    +0.195 A 
ATOM     38  O   UNL     1       1.369  -3.725  -3.149  0.00  0.00    -0.466 OA
ENDBRANCH  33  34
ENDBRANCH  20  33
ENDBRANCH   1  20
TORSDOF 9
