REMARK  Name = ZINC22821844
REMARK  7 active torsions:
REMARK  status: ('A' for Active; 'I' for Inactive)
REMARK    1  A    between atoms: C_1  and  C_2
REMARK    2  A    between atoms: C_2  and  C_3
REMARK    3  A    between atoms: C_3  and  C_4
REMARK    4  A    between atoms: C_12  and  N_16
REMARK    5  A    between atoms: C_17  and  C_19
REMARK    6  A    between atoms: C_20  and  C_21
REMARK    7  A    between atoms: C_24  and  C_26
REMARK                            x       y       z     vdW  Elec       q    Type
REMARK                         _______ _______ _______ _____ _____    ______ ____
ROOT
ATOM      1  N   UNL     1       1.497 -10.353   2.240  0.00  0.00    -0.282 N 
ATOM      2  C   UNL     1       0.920 -11.262   1.429  0.00  0.00    +0.241 C 
ATOM      3  O   UNL     1       0.330 -10.898   0.427  0.00  0.00    -0.270 OA
ATOM      4  H   UNL     1       2.024 -10.646   3.000  0.00  0.00    +0.155 HD
ENDROOT
BRANCH   1  13
ATOM      5  C   UNL     1       0.540  -2.248   0.139  0.00  0.00    +0.219 C 
ATOM      6  O   UNL     1       0.574  -2.397   1.342  0.00  0.00    -0.275 OA
ATOM      7  N   UNL     1       0.650  -3.315  -0.676  0.00  0.00    -0.265 N 
ATOM      8  C   UNL     1       0.803  -4.584  -0.140  0.00  0.00    +0.165 A 
ATOM      9  N   UNL     1       0.856  -4.943   1.121  0.00  0.00    -0.225 NA
ATOM     10  C   UNL     1       1.009  -6.230   1.504  0.00  0.00    +0.080 A 
ATOM     11  C   UNL     1       1.082  -6.747   2.818  0.00  0.00    +0.031 A 
ATOM     12  C   UNL     1       1.239  -8.079   3.038  0.00  0.00    +0.025 A 
ATOM     13  C   UNL     1       1.334  -8.986   1.985  0.00  0.00    +0.035 A 
ATOM     14  C   UNL     1       1.267  -8.517   0.679  0.00  0.00    +0.040 A 
ATOM     15  C   UNL     1       1.108  -7.173   0.455  0.00  0.00    +0.043 A 
ATOM     16  S   UNL     1       0.969  -6.147  -0.990  0.00  0.00    -0.052 S 
ATOM     17  H   UNL     1       0.622  -3.195  -1.639  0.00  0.00    +0.157 HD
BRANCH   5  18
ATOM     18  C   UNL     1       0.374  -0.868  -0.444  0.00  0.00    +0.096 C 
BRANCH  18  20
ATOM     19  C   UNL     1       0.104   1.556   0.096  0.00  0.00    +0.004 C 
ATOM     20  C   UNL     1       0.273   0.156   0.688  0.00  0.00    +0.006 C 
ENDBRANCH  18  20
ENDBRANCH   5  18
ENDBRANCH   1  13
BRANCH   2  21
ATOM     21  C   UNL     1       1.001 -12.639   1.741  0.00  0.00    +0.071 C 
ATOM     22  C   UNL     1       0.420 -13.556   0.924  0.00  0.00    +0.051 C 
BRANCH  22  23
ATOM     23  C   UNL     1       0.501 -14.932   1.235  0.00  0.00    +0.129 A 
ATOM     24  C   UNL     1      -0.038 -15.964   0.490  0.00  0.00    +0.050 A 
ATOM     25  C   UNL     1       0.277 -17.151   1.158  0.00  0.00    +0.050 A 
ATOM     26  C   UNL     1       0.993 -16.803   2.280  0.00  0.00    +0.137 A 
ATOM     27  O   UNL     1       1.122 -15.465   2.308  0.00  0.00    -0.455 OA
BRANCH  26  28
ATOM     28  C   UNL     1       1.533 -17.742   3.283  0.00  0.00    +0.037 A 
ATOM     29  C   UNL     1       0.711 -18.727   3.837  0.00  0.00    +0.013 A 
ATOM     30  C   UNL     1       1.221 -19.601   4.774  0.00  0.00    +0.002 A 
ATOM     31  C   UNL     1       2.545 -19.506   5.166  0.00  0.00    +0.021 A 
ATOM     32  C   UNL     1       3.367 -18.533   4.622  0.00  0.00    +0.060 A 
ATOM     33  C   UNL     1       2.871 -17.654   3.678  0.00  0.00    +0.070 A 
ATOM     34 CL   UNL     1       3.904 -16.441   2.991  0.00  0.00    -0.081 Cl
ATOM     35 CL   UNL     1       5.026 -18.422   5.122  0.00  0.00    -0.082 Cl
ENDBRANCH  26  28
ENDBRANCH  22  23
ENDBRANCH   2  21
TORSDOF 6
