REMARK  Name = ZINC66245470
REMARK  9 active torsions:
REMARK  status: ('A' for Active; 'I' for Inactive)
REMARK    1  A    between atoms: C_1  and  C_2
REMARK    2  A    between atoms: C_2  and  C_3
REMARK    3  A    between atoms: C_2  and  C_4
REMARK    4  A    between atoms: C_2  and  O_5
REMARK    5  A    between atoms: O_5  and  C_6
REMARK    6  A    between atoms: C_11  and  C_14
REMARK    7  A    between atoms: C_14  and  N_15
REMARK    8  A    between atoms: N_17  and  C_18
REMARK    9  A    between atoms: C_18  and  C_19
REMARK                            x       y       z     vdW  Elec       q    Type
REMARK                         _______ _______ _______ _____ _____    ______ ____
ROOT
ATOM      1  C   UNL     1       5.163  -3.374  -4.267  0.00  0.00    +0.119 C 
ENDROOT
BRANCH   1   7
ATOM      2  C   UNL     1       1.952  -0.085  -1.337  0.00  0.00    +0.403 C 
ATOM      3  O   UNL     1       2.488   0.619  -0.503  0.00  0.00    -0.226 OA
ATOM      4  N   UNL     1       2.641  -0.485  -2.424  0.00  0.00    -0.267 N 
ATOM      5  C   UNL     1       2.005  -1.331  -3.443  0.00  0.00    +0.111 C 
ATOM      6  C   UNL     1       2.874  -2.573  -3.666  0.00  0.00    +0.024 C 
ATOM      7  C   UNL     1       4.300  -2.137  -4.011  0.00  0.00    +0.011 C 
ATOM      8  C   UNL     1       4.888  -1.339  -2.845  0.00  0.00    +0.024 C 
ATOM      9  C   UNL     1       4.040  -0.078  -2.616  0.00  0.00    +0.111 C 
BRANCH   2  10
ATOM     10  O   UNL     1       0.671  -0.465  -1.174  0.00  0.00    -0.445 OA
BRANCH  10  12
ATOM     11  C   UNL     1      -0.019   1.526   0.010  0.00  0.00    +0.055 C 
ATOM     12  C   UNL     1       0.002  -0.004   0.002  0.00  0.00    +0.107 C 
ATOM     13  C   UNL     1       0.742  -0.511   1.242  0.00  0.00    +0.055 C 
ATOM     14  C   UNL     1      -1.433  -0.534   0.013  0.00  0.00    +0.055 C 
ENDBRANCH  10  12
ENDBRANCH   2  10
ENDBRANCH   1   7
BRANCH   1  15
ATOM     15  N   UNL     1       6.494  -2.957  -4.713  0.00  0.00    -0.357 N 
ATOM     16  C   UNL     1       7.449  -3.902  -5.006  0.00  0.00    +0.169 C 
ATOM     17  N   UNL     1       8.633  -3.531  -5.403  0.00  0.00    -0.355 N 
ATOM     18  N   UNL     1       7.154  -5.239  -4.881  0.00  0.00    -0.371 N 
ATOM     19  H   UNL     1       6.703  -2.014  -4.802  0.00  0.00    +0.162 HD
ATOM     20  H   UNL     1       6.272  -5.515  -4.585  0.00  0.00    +0.159 HD
ATOM     21  H   UNL     1       7.827  -5.906  -5.088  0.00  0.00    +0.159 HD
ATOM     22  H   UNL     1       8.842  -2.588  -5.492  0.00  0.00    +0.162 HD
BRANCH  17  23
ATOM     23  C   UNL     1       9.650  -4.538  -5.716  0.00  0.00    +0.147 C 
BRANCH  23  24
ATOM     24  C   UNL     1      10.940  -3.842  -6.154  0.00  0.00    +0.137 C 
ATOM     25  C   UNL     1      11.978  -4.894  -6.600  0.00  0.00    +0.035 C 
ATOM     26  C   UNL     1      13.302  -4.312  -6.035  0.00  0.00    +0.031 C 
ATOM     27  C   UNL     1      12.798  -3.650  -4.728  0.00  0.00    +0.160 C 
ATOM     28  O   UNL     1      11.501  -3.119  -5.052  0.00  0.00    -0.375 OA
ENDBRANCH  23  24
ENDBRANCH  17  23
ENDBRANCH   1  15
TORSDOF 6
