REMARK  Name = ZINC12457364
REMARK  13 active torsions:
REMARK  status: ('A' for Active; 'I' for Inactive)
REMARK    1  A    between atoms: C_1  and  C_2
REMARK    2  A    between atoms: C_6  and  C_9
REMARK    3  A    between atoms: C_7  and  C_8
REMARK    4  A    between atoms: N_11  and  C_12
REMARK    5  A    between atoms: C_16  and  C_25
REMARK    6  A    between atoms: C_20  and  C_21
REMARK    7  A    between atoms: C_21  and  O_23
REMARK    8  A    between atoms: O_23  and  C_24
REMARK    9  A    between atoms: C_25  and  N_61
REMARK   10  A    between atoms: C_26  and  N_61
REMARK   11  A    between atoms: C_27  and  C_29
REMARK   12  A    between atoms: C_27  and  C_30
REMARK   13  A    between atoms: C_27  and  N_61
REMARK                            x       y       z     vdW  Elec       q    Type
REMARK                         _______ _______ _______ _____ _____    ______ ____
ROOT
ATOM      1  C   UNL     1      -3.945   1.682  -0.621  0.00  0.00    +0.064 A 
ATOM      2  C   UNL     1      -5.085   0.878  -1.035  0.00  0.00    +0.030 A 
ATOM      3  C   UNL     1      -5.118  -0.495  -1.386  0.00  0.00    +0.014 A 
ATOM      4  C   UNL     1      -6.317  -1.060  -1.751  0.00  0.00    +0.022 A 
ATOM      5  C   UNL     1      -7.475  -0.296  -1.775  0.00  0.00    +0.026 A 
ATOM      6  N   UNL     1      -7.440   0.981  -1.448  0.00  0.00    -0.246 NA
ATOM      7  C   UNL     1      -6.317   1.567  -1.092  0.00  0.00    +0.111 A 
ATOM      8  S   UNL     1      -5.904   3.223  -0.599  0.00  0.00    -0.060 S 
ATOM      9  C   UNL     1      -4.156   3.010  -0.322  0.00  0.00    +0.120 A 
ENDROOT
BRANCH   1  12
ATOM     10  C   UNL     1      -2.506  -0.059   0.102  0.00  0.00    +0.249 C 
ATOM     11  O   UNL     1      -3.473  -0.682   0.497  0.00  0.00    -0.270 OA
ATOM     12  N   UNL     1      -2.676   1.122  -0.524  0.00  0.00    -0.280 N 
ATOM     13  H   UNL     1      -1.913   1.582  -0.908  0.00  0.00    +0.155 HD
BRANCH  10  19
ATOM     14  C   UNL     1       0.524  -3.490   2.087  0.00  0.00    +0.044 C 
ATOM     15  C   UNL     1       0.317  -2.244   1.265  0.00  0.00    -0.047 A 
ATOM     16  C   UNL     1       1.406  -1.597   0.707  0.00  0.00    +0.003 A 
ATOM     17  C   UNL     1       1.225  -0.452  -0.049  0.00  0.00    +0.001 A 
ATOM     18  C   UNL     1      -0.043   0.052  -0.251  0.00  0.00    +0.013 A 
ATOM     19  C   UNL     1      -1.145  -0.596   0.309  0.00  0.00    +0.040 A 
ATOM     20  C   UNL     1      -0.956  -1.751   1.071  0.00  0.00    -0.035 A 
ATOM     21  C   UNL     1      -2.140  -2.457   1.680  0.00  0.00    +0.045 C 
ENDBRANCH  10  19
ENDBRANCH   1  12
BRANCH   9  22
ATOM     22  C   UNL     1      -3.210   3.976   0.104  0.00  0.00    +0.348 C 
ATOM     23  O   UNL     1      -2.029   3.688   0.157  0.00  0.00    -0.244 OA
BRANCH  22  24
ATOM     24  O   UNL     1      -3.619   5.214   0.451  0.00  0.00    -0.464 OA
ATOM     25  C   UNL     1      -2.612   6.136   0.870  0.00  0.00    +0.280 C 
ENDBRANCH  22  24
ENDBRANCH   9  22
BRANCH   5  26
ATOM     26  C   UNL     1      -8.782  -0.930  -2.176  0.00  0.00    -0.022 C 
BRANCH  26  28
ATOM     27  C   UNL     1      -8.791  -2.443  -0.286  0.00  0.00    -0.095 C 
ATOM     28  N   UNL     1      -9.509  -1.339  -0.956  0.00  0.00    +0.386 N 
ATOM     29  H   UNL     1      -9.561  -0.538  -0.316  0.00  0.00    -0.081 HD
BRANCH  28  30
ATOM     30  C   UNL     1     -10.880  -1.765  -1.304  0.00  0.00    -0.034 C 
ATOM     31  C   UNL     1     -11.624  -0.583  -1.929  0.00  0.00    -0.008 C 
BRANCH  30  32
ATOM     32  C   UNL     1     -11.592  -2.200  -0.049  0.00  0.00    -0.024 A 
ATOM     33  C   UNL     1     -12.453  -3.231   0.131  0.00  0.00    +0.009 A 
ATOM     34  C   UNL     1     -12.988  -3.446   1.387  0.00  0.00    +0.008 A 
ATOM     35  C   UNL     1     -12.644  -2.613   2.400  0.00  0.00    +0.045 A 
ATOM     36  S   UNL     1     -11.525  -1.485   1.586  0.00  0.00    -0.103 S 
ENDBRANCH  30  32
ENDBRANCH  28  30
ENDBRANCH  26  28
ENDBRANCH   5  26
TORSDOF 8
