REMARK  Name = ZINC63514837
REMARK  12 active torsions:
REMARK  status: ('A' for Active; 'I' for Inactive)
REMARK    1  A    between atoms: C_1  and  C_2
REMARK    2  A    between atoms: C_4  and  C_35
REMARK    3  A    between atoms: C_9  and  C_14
REMARK    4  A    between atoms: C_11  and  N_13
REMARK    5  A    between atoms: N_16  and  C_17
REMARK    6  A    between atoms: C_17  and  C_18
REMARK    7  A    between atoms: C_18  and  C_19
REMARK    8  A    between atoms: C_22  and  O_30
REMARK    9  A    between atoms: C_27  and  C_29
REMARK   10  A    between atoms: O_30  and  C_31
REMARK   11  A    between atoms: C_35  and  O_36
REMARK   12  A    between atoms: O_36  and  C_37
REMARK                            x       y       z     vdW  Elec       q    Type
REMARK                         _______ _______ _______ _____ _____    ______ ____
ROOT
ATOM      1  C   UNL     1       0.797  -5.506   2.205  0.00  0.00    +0.228 C 
ATOM      2  O   UNL     1       1.950  -5.697   1.881  0.00  0.00    -0.275 OA
ATOM      3  N   UNL     1       0.231  -6.266   3.164  0.00  0.00    -0.314 N 
ATOM      4  H   UNL     1      -0.691  -6.113   3.422  0.00  0.00    +0.149 HD
ENDROOT
BRANCH   1  13
ATOM      5  C   UNL     1       0.206   1.571  -0.678  0.00  0.00    +0.065 C 
ATOM      6  C   UNL     1       0.277   0.072  -0.530  0.00  0.00    +0.040 A 
ATOM      7  C   UNL     1       0.344  -0.730  -1.652  0.00  0.00    +0.029 A 
ATOM      8  C   UNL     1       0.419  -2.104  -1.514  0.00  0.00    -0.013 A 
ATOM      9  C   UNL     1       0.422  -2.667  -0.235  0.00  0.00    +0.008 A 
ATOM     10  C   UNL     1       0.335  -1.781   0.839  0.00  0.00    +0.103 A 
ATOM     11  N   UNL     1       0.281  -0.474   0.671  0.00  0.00    -0.245 NA
ATOM     12  S   UNL     1       0.308  -2.780   2.312  0.00  0.00    -0.091 S 
ATOM     13  C   UNL     1      -0.004  -4.419   1.535  0.00  0.00    +0.160 C 
ATOM     14  C   UNL     1       0.518  -4.131   0.109  0.00  0.00    +0.106 C 
BRANCH  14  15
ATOM     15  N   UNL     1      -0.276  -4.903  -0.857  0.00  0.00    -0.322 NA
ATOM     16  H   UNL     1      -0.157  -5.895  -0.712  0.00  0.00    +0.119 HD
ATOM     17  H   UNL     1      -1.251  -4.646  -0.811  0.00  0.00    +0.119 HD
ENDBRANCH  14  15
BRANCH   8  18
ATOM     18  C   UNL     1       0.496  -2.987  -2.733  0.00  0.00    +0.195 C 
BRANCH  18  19
ATOM     19  O   UNL     1       0.584  -2.174  -3.905  0.00  0.00    -0.378 OA
ATOM     20  C   UNL     1       0.662  -2.917  -5.123  0.00  0.00    +0.194 C 
ENDBRANCH  18  19
ENDBRANCH   8  18
ENDBRANCH   1  13
BRANCH   3  21
ATOM     21  C   UNL     1       1.009  -7.323   3.815  0.00  0.00    +0.108 C 
BRANCH  21  22
ATOM     22  C   UNL     1       0.139  -8.029   4.856  0.00  0.00    +0.052 C 
BRANCH  22  23
ATOM     23  C   UNL     1       0.939  -9.116   5.526  0.00  0.00    -0.037 C 
ATOM     24  C   UNL     1       2.228  -9.445   5.281  0.00  0.00    +0.003 A 
ATOM     25  C   UNL     1       3.232  -8.912   4.354  0.00  0.00    +0.056 A 
ATOM     26  C   UNL     1       4.472  -9.457   4.330  0.00  0.00    +0.131 A 
ATOM     27  C   UNL     1       4.840 -10.524   5.167  0.00  0.00    +0.048 A 
ATOM     28  C   UNL     1       3.986 -11.082   6.052  0.00  0.00    +0.029 A 
ATOM     29  C   UNL     1       2.616 -10.570   6.163  0.00  0.00    +0.043 A 
ATOM     30  N   UNL     1       1.609 -10.922   6.922  0.00  0.00    -0.378 N 
ATOM     31  C   UNL     1       0.466 -10.055   6.613  0.00  0.00    +0.103 C 
ATOM     32  C   UNL     1      -0.709 -10.896   6.108  0.00  0.00    +0.035 C 
ATOM     33  H   UNL     1       1.618 -11.634   7.580  0.00  0.00    +0.160 HD
BRANCH  26  34
ATOM     34  O   UNL     1       5.393  -8.953   3.465  0.00  0.00    -0.406 OA
BRANCH  34  35
ATOM     35  C   UNL     1       6.688  -9.557   3.473  0.00  0.00    +0.575 C 
ATOM     36  F   UNL     1       6.572 -10.914   3.150  0.00  0.00    -0.133 F 
ATOM     37  F   UNL     1       7.504  -8.922   2.530  0.00  0.00    -0.133 F 
ATOM     38  F   UNL     1       7.256  -9.427   4.745  0.00  0.00    -0.133 F 
ENDBRANCH  34  35
ENDBRANCH  26  34
ENDBRANCH  22  23
ENDBRANCH  21  22
ENDBRANCH   3  21
TORSDOF 9
