REMARK  Name = ZINC39421745
REMARK  8 active torsions:
REMARK  status: ('A' for Active; 'I' for Inactive)
REMARK    1  A    between atoms: C_1  and  C_2
REMARK    2  A    between atoms: C_2  and  C_3
REMARK    3  A    between atoms: C_8  and  C_12
REMARK    4  A    between atoms: C_12  and  C_14
REMARK    5  A    between atoms: C_14  and  C_16
REMARK    6  A    between atoms: C_14  and  S_22
REMARK    7  A    between atoms: S_22  and  C_23
REMARK    8  A    between atoms: N_28  and  C_29
REMARK                            x       y       z     vdW  Elec       q    Type
REMARK                         _______ _______ _______ _____ _____    ______ ____
ROOT
ATOM      1  C   UNL     1       6.604  -1.554  -2.885  0.00  0.00    +0.150 C 
ENDROOT
BRANCH   1   2
ATOM      2  C   UNL     1       7.174  -0.176  -3.106  0.00  0.00    -0.027 A 
ATOM      3  C   UNL     1       7.149   0.388  -4.367  0.00  0.00    +0.005 A 
ATOM      4  C   UNL     1       7.671   1.652  -4.570  0.00  0.00    +0.000 A 
ATOM      5  C   UNL     1       8.218   2.352  -3.510  0.00  0.00    +0.000 A 
ATOM      6  C   UNL     1       8.242   1.788  -2.248  0.00  0.00    +0.000 A 
ATOM      7  C   UNL     1       7.716   0.526  -2.045  0.00  0.00    +0.005 A 
ENDBRANCH   1   2
BRANCH   1   8
ATOM      8  C   UNL     1       5.146  -1.561  -3.264  0.00  0.00    +0.179 C 
ATOM      9  O   UNL     1       4.809  -1.916  -4.375  0.00  0.00    -0.291 OA
BRANCH   8  15
ATOM     10  C   UNL     1       0.707  -0.490  -1.238  0.00  0.00    -0.024 A 
ATOM     11  C   UNL     1       0.003  -0.812  -2.344  0.00  0.00    +0.005 A 
ATOM     12  C   UNL     1       0.628  -1.268  -3.517  0.00  0.00    +0.001 A 
ATOM     13  C   UNL     1       1.968  -1.413  -3.615  0.00  0.00    +0.010 A 
ATOM     14  C   UNL     1       2.802  -1.105  -2.514  0.00  0.00    +0.006 A 
ATOM     15  C   UNL     1       4.172  -1.156  -2.327  0.00  0.00    +0.025 C 
ATOM     16  C   UNL     1       4.406  -0.688  -0.908  0.00  0.00    +0.152 C 
ATOM     17  N   UNL     1       3.082  -0.386  -0.356  0.00  0.00    -0.380 N 
ATOM     18  C   UNL     1       2.174  -0.615  -1.262  0.00  0.00    +0.046 A 
ATOM     19  H   UNL     1       2.908  -0.062   0.542  0.00  0.00    +0.160 HD
BRANCH  10  21
ATOM     20  C   UNL     1      -0.019   1.526   0.010  0.00  0.00    +0.009 C 
ATOM     21  C   UNL     1       0.002  -0.004   0.002  0.00  0.00    +0.034 C 
ENDBRANCH  10  21
ENDBRANCH   8  15
ENDBRANCH   1   8
BRANCH   1  22
ATOM     22  S   UNL     1       7.502  -2.751  -3.912  0.00  0.00    -0.111 S 
BRANCH  22  23
ATOM     23  C   UNL     1       9.186  -2.731  -3.237  0.00  0.00    +0.184 C 
ATOM     24  N   UNL     1       9.162  -3.078  -1.797  0.00  0.00    -0.323 NA
ATOM     25  N   UNL     1      10.189  -2.209  -1.201  0.00  0.00    +0.409 N 
ATOM     26  N   UNL     1      10.038  -0.951  -1.948  0.00  0.00    -0.280 NA
ATOM     27  N   UNL     1       9.753  -1.369  -3.325  0.00  0.00    -0.234 NA
ATOM     28  C   UNL     1      10.973  -1.358  -4.143  0.00  0.00    +0.124 C 
ATOM     29  H   UNL     1       8.255  -2.893  -1.396  0.00  0.00    +0.106 HD
ATOM     30  H   UNL     1      10.007  -2.064  -0.219  0.00  0.00    -0.032 HD
ATOM     31  H   UNL     1      10.883  -0.402  -1.905  0.00  0.00    +0.121 HD
ATOM     32  H   UNL     1      11.109  -2.598  -1.341  0.00  0.00    -0.032 HD
ENDBRANCH  22  23
ENDBRANCH   1  22
TORSDOF 6
