REMARK  Name = ZINC67299207
REMARK  6 active torsions:
REMARK  status: ('A' for Active; 'I' for Inactive)
REMARK    1  A    between atoms: C_3  and  C_6
REMARK    2  A    between atoms: C_6  and  N_7
REMARK    3  A    between atoms: C_8  and  C_10
REMARK    4  A    between atoms: C_15  and  O_30
REMARK    5  A    between atoms: N_20  and  C_21
REMARK    6  A    between atoms: C_24  and  C_27
REMARK                            x       y       z     vdW  Elec       q    Type
REMARK                         _______ _______ _______ _____ _____    ______ ____
ROOT
ATOM      1  C   UNL     1       5.837   0.219   2.895  0.00  0.00    +0.097 A 
ATOM      2  C   UNL     1       7.214   0.217   3.070  0.00  0.00    +0.030 A 
ATOM      3  C   UNL     1       7.721   0.301   4.390  0.00  0.00    +0.018 A 
ATOM      4  C   UNL     1       9.092   0.505   4.613  0.00  0.00    +0.015 A 
ATOM      5  C   UNL     1       9.562   0.626   5.887  0.00  0.00    +0.046 A 
ATOM      6  C   UNL     1       8.692   0.542   6.974  0.00  0.00    +0.120 A 
ATOM      7  C   UNL     1       7.338   0.321   6.774  0.00  0.00    +0.092 A 
ATOM      8  C   UNL     1       6.844   0.188   5.487  0.00  0.00    +0.141 A 
ATOM      9  O   UNL     1       5.529  -0.071   5.282  0.00  0.00    -0.438 OA
ATOM     10  C   UNL     1       5.000   0.348   4.103  0.00  0.00    +0.212 A 
ATOM     11  N   UNL     1       3.782   0.849   4.038  0.00  0.00    -0.325 N 
ATOM     12  H   UNL     1       3.456   1.225   3.205  0.00  0.00    +0.169 HD
ENDROOT
BRANCH  11  13
ATOM     13  C   UNL     1       2.982   0.837   5.140  0.00  0.00    +0.042 A 
ATOM     14  C   UNL     1       2.895  -0.316   5.931  0.00  0.00    +0.026 A 
ATOM     15  C   UNL     1       2.094  -0.326   7.035  0.00  0.00    +0.015 A 
ATOM     16  C   UNL     1       1.358   0.814   7.377  0.00  0.00    +0.037 A 
ATOM     17  C   UNL     1       1.445   1.966   6.587  0.00  0.00    +0.015 A 
ATOM     18  C   UNL     1       2.250   1.980   5.486  0.00  0.00    +0.026 A 
BRANCH  16  19
ATOM     19  C   UNL     1       0.492   0.802   8.569  0.00  0.00    +0.242 C 
ATOM     20  O   UNL     1       0.417  -0.199   9.256  0.00  0.00    -0.270 OA
ATOM     21  N   UNL     1      -0.216   1.900   8.899  0.00  0.00    -0.325 N 
ATOM     22  H   UNL     1      -0.156   2.698   8.351  0.00  0.00    +0.145 HD
ATOM     23  H   UNL     1      -0.786   1.892   9.684  0.00  0.00    +0.145 HD
ENDBRANCH  16  19
ENDBRANCH  11  13
BRANCH   1  25
ATOM     24  N   UNL     1       6.024  -0.034   0.472  0.00  0.00    -0.304 N 
ATOM     25  C   UNL     1       5.235   0.102   1.557  0.00  0.00    +0.250 C 
ATOM     26  O   UNL     1       4.026   0.129   1.429  0.00  0.00    -0.270 OA
ATOM     27  H   UNL     1       6.988   0.025   0.564  0.00  0.00    +0.149 HD
BRANCH  24  28
ATOM     28  C   UNL     1       5.426  -0.271  -0.844  0.00  0.00    +0.179 C 
BRANCH  28  31
ATOM     29  C   UNL     1       8.081  -1.171  -3.236  0.00  0.00    +0.041 A 
ATOM     30  C   UNL     1       7.135  -1.522  -2.246  0.00  0.00    +0.046 A 
ATOM     31  C   UNL     1       6.516  -0.386  -1.878  0.00  0.00    +0.122 A 
ATOM     32  O   UNL     1       7.035   0.629  -2.588  0.00  0.00    -0.466 OA
ATOM     33  C   UNL     1       7.984   0.159  -3.413  0.00  0.00    +0.195 A 
ENDBRANCH  28  31
ENDBRANCH  24  28
ENDBRANCH   1  25
BRANCH   6  34
ATOM     34  O   UNL     1       9.175   0.676   8.235  0.00  0.00    -0.507 OA
ATOM     35  H   UNL     1       9.179   1.587   8.559  0.00  0.00    +0.292 HD
ENDBRANCH   6  34
TORSDOF 6
