REMARK  Name = ZINC29787670
REMARK  9 active torsions:
REMARK  status: ('A' for Active; 'I' for Inactive)
REMARK    1  A    between atoms: C_1  and  C_2
REMARK    2  A    between atoms: C_2  and  C_28
REMARK    3  A    between atoms: C_4  and  N_10
REMARK    4  A    between atoms: C_6  and  C_8
REMARK    5  A    between atoms: C_6  and  C_9
REMARK    6  A    between atoms: C_11  and  C_13
REMARK    7  A    between atoms: C_13  and  C_14
REMARK    8  A    between atoms: C_14  and  N_15
REMARK    9  A    between atoms: C_16  and  C_18
REMARK                            x       y       z     vdW  Elec       q    Type
REMARK                         _______ _______ _______ _____ _____    ______ ____
ROOT
ATOM      1  N   UNL     1      -2.571  -2.730   0.012  0.00  0.00    -0.313 N 
ATOM      2  C   UNL     1      -1.413  -2.041   0.005  0.00  0.00    +0.215 C 
ATOM      3  O   UNL     1      -0.354  -2.632  -0.009  0.00  0.00    -0.276 OA
ATOM      4  H   UNL     1      -3.531  -2.193   0.024  0.00  0.00    +0.149 HD
ENDROOT
BRANCH   1   8
ATOM      5  C   UNL     1      -2.924  -6.782   1.699  0.00  0.00    -0.010 C 
ATOM      6  C   UNL     1      -3.862  -6.249   0.609  0.00  0.00    -0.072 C 
ATOM      7  C   UNL     1      -3.846  -4.723   0.623  0.00  0.00    +0.009 C 
ATOM      8  C   UNL     1      -2.551  -4.198   0.004  0.00  0.00    +0.070 C 
ATOM      9  C   UNL     1      -2.468  -4.693  -1.440  0.00  0.00    +0.009 C 
ATOM     10  C   UNL     1      -2.469  -6.219  -1.481  0.00  0.00    -0.072 C 
ATOM     11  N   UNL     1      -3.528  -6.805  -0.686  0.00  0.00    +0.386 N 
ATOM     12  C   UNL     1      -1.095  -6.744  -1.047  0.00  0.00    -0.010 C 
ATOM     13  C   UNL     1      -2.678  -6.645  -2.951  0.00  0.00    -0.010 C 
ATOM     14  C   UNL     1      -5.293  -6.703   0.974  0.00  0.00    -0.010 C 
ATOM     15  H   UNL     1      -3.216  -7.853  -0.565  0.00  0.00    -0.084 HD
ATOM     16  H   UNL     1      -4.408  -6.758  -1.343  0.00  0.00    -0.084 HD
ENDBRANCH   1   8
BRANCH   2  17
ATOM     17  C   UNL     1      -1.433  -0.534   0.013  0.00  0.00    +0.114 C 
BRANCH  17  18
ATOM     18  C   UNL     1       0.002  -0.004   0.002  0.00  0.00    +0.113 C 
BRANCH  18  19
ATOM     19  N   UNL     1      -0.018   1.461   0.010  0.00  0.00    -0.314 N 
ATOM     20  C   UNL     1       1.140   2.151   0.003  0.00  0.00    +0.219 C 
ATOM     21  O   UNL     1       2.199   1.558  -0.011  0.00  0.00    -0.275 OA
ATOM     22  H   UNL     1      -0.978   1.998   0.022  0.00  0.00    +0.149 HD
BRANCH  20  23
ATOM     23  C   UNL     1       1.120   3.657   0.011  0.00  0.00    +0.048 C 
ATOM     24  C   UNL     1       0.380   4.164  -1.228  0.00  0.00    +0.019 C 
ATOM     25  C   UNL     1       0.359   5.694  -1.220  0.00  0.00    -0.009 C 
ATOM     26  C   UNL     1       1.794   6.224  -1.231  0.00  0.00    +0.007 C 
ATOM     27  C   UNL     1       2.534   5.717   0.009  0.00  0.00    -0.009 C 
ATOM     28  C   UNL     1       2.555   4.187   0.000  0.00  0.00    +0.019 C 
ATOM     29  C   UNL     1       1.818   6.210   1.267  0.00  0.00    +0.007 C 
ATOM     30  C   UNL     1       0.383   5.681   1.278  0.00  0.00    -0.009 C 
ATOM     31  C   UNL     1      -0.357   6.187   0.039  0.00  0.00    +0.007 C 
ATOM     32  C   UNL     1       0.404   4.151   1.270  0.00  0.00    +0.019 C 
ENDBRANCH  20  23
ENDBRANCH  18  19
ENDBRANCH  17  18
ENDBRANCH   2  17
TORSDOF 5
