REMARK  Name = ZINC59045733
REMARK  10 active torsions:
REMARK  status: ('A' for Active; 'I' for Inactive)
REMARK    1  A    between atoms: C_4  and  C_7
REMARK    2  A    between atoms: C_7  and  S_8
REMARK    3  A    between atoms: S_8  and  C_9
REMARK    4  A    between atoms: C_14  and  N_15
REMARK    5  A    between atoms: C_16  and  C_18
REMARK    6  A    between atoms: C_18  and  S_19
REMARK    7  A    between atoms: S_19  and  C_20
REMARK    8  A    between atoms: C_23  and  C_26
REMARK    9  A    between atoms: N_24  and  N_25
REMARK   10  A    between atoms: C_31  and  O_32
REMARK                            x       y       z     vdW  Elec       q    Type
REMARK                         _______ _______ _______ _____ _____    ______ ____
ROOT
ATOM      1  N   UNL     1       6.030  -2.003   3.886  0.00  0.00    -0.284 N 
ATOM      2  C   UNL     1       6.674  -2.474   4.972  0.00  0.00    +0.228 C 
ATOM      3  O   UNL     1       7.729  -3.058   4.846  0.00  0.00    -0.275 OA
ATOM      4  H   UNL     1       5.229  -1.467   3.991  0.00  0.00    +0.155 HD
ENDROOT
BRANCH   1  10
ATOM      5  C   UNL     1       6.216  -1.444   1.536  0.00  0.00    +0.029 A 
ATOM      6  C   UNL     1       6.707  -1.730   0.269  0.00  0.00    +0.016 A 
ATOM      7  C   UNL     1       7.490  -2.851   0.069  0.00  0.00    +0.001 A 
ATOM      8  C   UNL     1       7.785  -3.692   1.127  0.00  0.00    +0.002 A 
ATOM      9  C   UNL     1       7.299  -3.415   2.392  0.00  0.00    +0.024 A 
ATOM     10  C   UNL     1       6.519  -2.289   2.604  0.00  0.00    +0.047 A 
BRANCH   5  11
ATOM     11  S   UNL     1       5.219  -0.014   1.794  0.00  0.00    -0.119 S 
BRANCH  11  12
ATOM     12  C   UNL     1       5.107   0.746   0.151  0.00  0.00    +0.109 C 
BRANCH  12  16
ATOM     13  C   UNL     1       2.732   4.290   0.379  0.00  0.00    +0.000 A 
ATOM     14  C   UNL     1       4.099   4.360   0.573  0.00  0.00    +0.000 A 
ATOM     15  C   UNL     1       4.868   3.213   0.500  0.00  0.00    +0.004 A 
ATOM     16  C   UNL     1       4.269   1.996   0.232  0.00  0.00    -0.037 A 
ATOM     17  C   UNL     1       2.902   1.926   0.038  0.00  0.00    +0.004 A 
ATOM     18  C   UNL     1       2.134   3.073   0.110  0.00  0.00    +0.000 A 
ENDBRANCH  12  16
ENDBRANCH  11  12
ENDBRANCH   5  11
ENDBRANCH   1  10
BRANCH   2  19
ATOM     19  C   UNL     1       6.082  -2.275   6.344  0.00  0.00    +0.173 C 
BRANCH  19  20
ATOM     20  S   UNL     1       7.175  -3.016   7.588  0.00  0.00    -0.075 S 
BRANCH  20  21
ATOM     21  C   UNL     1       6.355  -2.704   9.116  0.00  0.00    +0.209 A 
ATOM     22  N   UNL     1       5.210  -2.079   9.272  0.00  0.00    -0.121 NA
ATOM     23  N   UNL     1       4.902  -2.027  10.519  0.00  0.00    -0.127 NA
ATOM     24  C   UNL     1       5.832  -2.615  11.235  0.00  0.00    +0.185 A 
ATOM     25  N   UNL     1       6.788  -3.072  10.358  0.00  0.00    -0.224 N 
BRANCH  24  26
ATOM     26  C   UNL     1       5.846  -2.764  12.705  0.00  0.00    +0.062 A 
ATOM     27  C   UNL     1       6.979  -2.405  13.436  0.00  0.00    +0.015 A 
ATOM     28  C   UNL     1       6.987  -2.546  14.808  0.00  0.00    +0.001 A 
ATOM     29  C   UNL     1       5.873  -3.042  15.464  0.00  0.00    +0.004 A 
ATOM     30  C   UNL     1       4.745  -3.401  14.751  0.00  0.00    +0.046 A 
ATOM     31  C   UNL     1       4.720  -3.259  13.373  0.00  0.00    +0.128 A 
BRANCH  31  32
ATOM     32  O   UNL     1       3.608  -3.606  12.673  0.00  0.00    -0.506 OA
ATOM     33  H   UNL     1       3.598  -4.528  12.384  0.00  0.00    +0.292 HD
ENDBRANCH  31  32
ENDBRANCH  24  26
BRANCH  25  34
ATOM     34  N   UNL     1       7.934  -3.749  10.665  0.00  0.00    -0.295 N 
ATOM     35  H   UNL     1       8.716  -3.117  10.748  0.00  0.00    +0.163 HD
ATOM     36  H   UNL     1       7.818  -4.293  11.507  0.00  0.00    +0.163 HD
ENDBRANCH  25  34
ENDBRANCH  20  21
ENDBRANCH  19  20
ENDBRANCH   2  19
TORSDOF 10
