REMARK  Name = ZINC52861224
REMARK  13 active torsions:
REMARK  status: ('A' for Active; 'I' for Inactive)
REMARK    1  A    between atoms: C_1  and  C_2
REMARK    2  A    between atoms: C_2  and  C_3
REMARK    3  A    between atoms: C_2  and  C_4
REMARK    4  A    between atoms: C_2  and  C_5
REMARK    5  A    between atoms: C_5  and  C_7
REMARK    6  A    between atoms: C_5  and  N_12
REMARK    7  A    between atoms: N_12  and  C_13
REMARK    8  A    between atoms: C_13  and  C_14
REMARK    9  A    between atoms: N_16  and  C_17
REMARK   10  A    between atoms: C_17  and  C_18
REMARK   11  A    between atoms: C_21  and  N_24
REMARK   12  A    between atoms: C_25  and  O_27
REMARK   13  A    between atoms: O_27  and  C_28
REMARK                            x       y       z     vdW  Elec       q    Type
REMARK                         _______ _______ _______ _____ _____    ______ ____
ROOT
ATOM      1  C   UNL     1      -0.404  -4.005  -1.047  0.00  0.00    +0.196 C 
ATOM      2  O   UNL     1       0.666  -4.558  -0.908  0.00  0.00    -0.278 OA
ATOM      3  N   UNL     1      -1.534  -4.735  -1.131  0.00  0.00    -0.313 N 
ATOM      4  H   UNL     1      -2.390  -4.293  -1.242  0.00  0.00    +0.149 HD
ENDROOT
BRANCH   1   5
ATOM      5  C   UNL     1      -0.471  -2.502  -1.127  0.00  0.00    +0.016 C 
BRANCH   5   6
ATOM      6  N   UNL     1       0.884  -1.945  -1.012  0.00  0.00    +0.390 N 
ATOM      7  H   UNL     1       1.478  -2.356  -1.716  0.00  0.00    -0.084 HD
ATOM      8  H   UNL     1       1.255  -2.151  -0.097  0.00  0.00    -0.084 HD
BRANCH   6   9
ATOM      9  C   UNL     1       0.833  -0.489  -1.202  0.00  0.00    -0.028 C 
BRANCH   9  10
ATOM     10  C   UNL     1       0.400  -0.182  -2.613  0.00  0.00    -0.024 A 
ATOM     11  C   UNL     1      -0.435   0.788  -3.058  0.00  0.00    +0.009 A 
ATOM     12  C   UNL     1      -0.691   0.884  -4.413  0.00  0.00    +0.008 A 
ATOM     13  C   UNL     1      -0.098   0.004  -5.257  0.00  0.00    +0.045 A 
ATOM     14  S   UNL     1       0.861  -0.997  -4.133  0.00  0.00    -0.103 S 
ENDBRANCH   9  10
BRANCH   9  16
ATOM     15  C   UNL     1       2.144   1.632  -1.052  0.00  0.00    +0.009 C 
ATOM     16  C   UNL     1       2.219   0.107  -0.953  0.00  0.00    -0.046 C 
ATOM     17  C   UNL     1       3.199  -0.425  -2.001  0.00  0.00    +0.009 C 
ATOM     18  C   UNL     1       2.702  -0.290   0.444  0.00  0.00    +0.009 C 
ENDBRANCH   9  16
ENDBRANCH   6   9
ENDBRANCH   5   6
ENDBRANCH   1   5
BRANCH   3  19
ATOM     19  C   UNL     1      -1.469  -6.196  -1.053  0.00  0.00    +0.139 C 
BRANCH  19  20
ATOM     20  C   UNL     1      -2.859  -6.768  -1.171  0.00  0.00    -0.030 A 
ATOM     21  C   UNL     1      -3.622  -6.966  -0.036  0.00  0.00    +0.007 A 
ATOM     22  C   UNL     1      -4.896  -7.490  -0.141  0.00  0.00    +0.024 A 
ATOM     23  C   UNL     1      -5.410  -7.817  -1.389  0.00  0.00    +0.036 A 
ATOM     24  C   UNL     1      -4.641  -7.616  -2.528  0.00  0.00    +0.024 A 
ATOM     25  C   UNL     1      -3.370  -7.087  -2.416  0.00  0.00    +0.007 A 
BRANCH  23  26
ATOM     26  N   UNL     1      -6.700  -8.349  -1.499  0.00  0.00    -0.251 N 
ATOM     27  C   UNL     1      -7.668  -7.949  -0.651  0.00  0.00    +0.404 C 
ATOM     28  O   UNL     1      -7.447  -7.060   0.148  0.00  0.00    -0.226 OA
ATOM     29  H   UNL     1      -6.897  -9.005  -2.186  0.00  0.00    +0.158 HD
BRANCH  27  30
ATOM     30  O   UNL     1      -8.880  -8.533  -0.690  0.00  0.00    -0.453 OA
ATOM     31  C   UNL     1      -9.859  -8.059   0.238  0.00  0.00    +0.282 C 
ENDBRANCH  27  30
ENDBRANCH  23  26
ENDBRANCH  19  20
ENDBRANCH   3  19
TORSDOF 9
