REMARK  Name = ZINC12497178
REMARK  10 active torsions:
REMARK  status: ('A' for Active; 'I' for Inactive)
REMARK    1  A    between atoms: C_1  and  C_2
REMARK    2  A    between atoms: C_2  and  O_3
REMARK    3  A    between atoms: O_3  and  C_4
REMARK    4  A    between atoms: C_4  and  C_6
REMARK    5  A    between atoms: C_6  and  C_31
REMARK    6  A    between atoms: C_11  and  C_13
REMARK    7  A    between atoms: C_16  and  O_19
REMARK    8  A    between atoms: N_22  and  C_25
REMARK    9  A    between atoms: C_31  and  C_32
REMARK   10  A    between atoms: C_35  and  O_38
REMARK                            x       y       z     vdW  Elec       q    Type
REMARK                         _______ _______ _______ _____ _____    ______ ____
ROOT
ATOM      1  C   UNL     1       4.572   1.731  -0.129  0.00  0.00    +0.048 C 
ATOM      2  C   UNL     1       4.586   0.696   0.994  0.00  0.00    +0.086 C 
ATOM      3  C   UNL     1       3.300   1.206   1.763  0.00  0.00    +0.077 C 
ATOM      4  C   UNL     1       2.323   1.300   0.660  0.00  0.00    -0.027 C 
ATOM      5  C   UNL     1       3.461   0.527   3.028  0.00  0.00    +0.229 C 
ATOM      6  O   UNL     1       2.594   0.052   3.730  0.00  0.00    -0.275 OA
ATOM      7  N   UNL     1       4.808   0.537   3.265  0.00  0.00    -0.210 N 
ATOM      8  C   UNL     1       5.532   0.861   2.152  0.00  0.00    +0.229 C 
ATOM      9  O   UNL     1       6.693   1.208   2.107  0.00  0.00    -0.275 OA
ATOM     10  N   UNL     1       3.131   1.979  -0.401  0.00  0.00    +0.396 N 
ATOM     11  H   UNL     1       2.883   1.598  -1.322  0.00  0.00    -0.083 HD
ATOM     12  H   UNL     1       2.944   2.988  -0.386  0.00  0.00    -0.083 HD
ENDROOT
BRANCH   4  13
ATOM     13  C   UNL     1       1.136   2.137   1.062  0.00  0.00    -0.060 A 
ATOM     14  C   UNL     1      -0.084   1.533   1.305  0.00  0.00    +0.005 A 
ATOM     15  C   UNL     1      -1.175   2.299   1.667  0.00  0.00    +0.045 A 
ATOM     16  C   UNL     1      -1.042   3.674   1.799  0.00  0.00    +0.117 A 
ATOM     17  C   UNL     1       0.183   4.277   1.554  0.00  0.00    +0.045 A 
ATOM     18  C   UNL     1       1.269   3.508   1.187  0.00  0.00    +0.005 A 
BRANCH  16  19
ATOM     19  O   UNL     1      -2.113   4.429   2.160  0.00  0.00    -0.507 OA
ATOM     20  H   UNL     1      -2.640   4.746   1.415  0.00  0.00    +0.292 HD
ENDBRANCH  16  19
ENDBRANCH   4  13
BRANCH   7  21
ATOM     21  C   UNL     1       5.385   0.237   4.507  0.00  0.00    +0.044 A 
ATOM     22  C   UNL     1       6.766   0.253   4.654  0.00  0.00    +0.024 A 
ATOM     23  C   UNL     1       7.331  -0.040   5.880  0.00  0.00    +0.002 A 
ATOM     24  C   UNL     1       6.524  -0.357   6.957  0.00  0.00    +0.000 A 
ATOM     25  C   UNL     1       5.149  -0.378   6.812  0.00  0.00    +0.002 A 
ATOM     26  C   UNL     1       4.578  -0.082   5.590  0.00  0.00    +0.024 A 
ENDBRANCH   7  21
BRANCH   1  27
ATOM     27  C   UNL     1       5.255   1.182  -1.354  0.00  0.00    +0.297 C 
ATOM     28  O   UNL     1       6.083   0.309  -1.244  0.00  0.00    -0.252 OA
BRANCH  27  29
ATOM     29  O   UNL     1       4.943   1.662  -2.568  0.00  0.00    -0.466 OA
BRANCH  29  31
ATOM     30  C   UNL     1       5.157   1.754  -4.993  0.00  0.00    +0.048 C 
ATOM     31  C   UNL     1       5.641   1.086  -3.704  0.00  0.00    +0.228 C 
ENDBRANCH  29  31
ENDBRANCH  27  29
ENDBRANCH   1  27
BRANCH   1  32
ATOM     32  C   UNL     1       5.257   3.020   0.329  0.00  0.00    +0.034 C 
BRANCH  32  33
ATOM     33  C   UNL     1       5.219   4.033  -0.786  0.00  0.00    -0.048 A 
ATOM     34  C   UNL     1       6.306   4.174  -1.628  0.00  0.00    +0.007 A 
ATOM     35  C   UNL     1       6.271   5.098  -2.655  0.00  0.00    +0.045 A 
ATOM     36  C   UNL     1       5.148   5.893  -2.833  0.00  0.00    +0.117 A 
ATOM     37  C   UNL     1       4.061   5.753  -1.982  0.00  0.00    +0.045 A 
ATOM     38  C   UNL     1       4.098   4.824  -0.961  0.00  0.00    +0.007 A 
BRANCH  36  39
ATOM     39  O   UNL     1       5.114   6.807  -3.837  0.00  0.00    -0.507 OA
ATOM     40  H   UNL     1       5.449   7.679  -3.588  0.00  0.00    +0.292 HD
ENDBRANCH  36  39
ENDBRANCH  32  33
ENDBRANCH   1  32
TORSDOF 9
