REMARK  Name = ZINC55269541
REMARK  5 active torsions:
REMARK  status: ('A' for Active; 'I' for Inactive)
REMARK    1  A    between atoms: C_1  and  C_2
REMARK    2  A    between atoms: C_7  and  N_8
REMARK    3  A    between atoms: C_9  and  C_11
REMARK    4  A    between atoms: C_14  and  C_20
REMARK    5  A    between atoms: C_21  and  C_26
REMARK                            x       y       z     vdW  Elec       q    Type
REMARK                         _______ _______ _______ _____ _____    ______ ____
ROOT
ATOM      1  N   UNL     1       0.025   0.002   2.420  0.00  0.00    -0.284 N 
ATOM      2  C   UNL     1      -0.632  -0.494   3.487  0.00  0.00    +0.238 C 
ATOM      3  O   UNL     1      -1.149  -1.589   3.426  0.00  0.00    -0.273 OA
ATOM      4  H   UNL     1       0.494   0.848   2.489  0.00  0.00    +0.155 HD
ENDROOT
BRANCH   1  11
ATOM      5  C   UNL     1      -0.011   1.493   0.004  0.00  0.00    +0.046 C 
ATOM      6  C   UNL     1       0.015  -0.014   0.002  0.00  0.00    -0.026 A 
ATOM      7  C   UNL     1       0.026  -0.695  -1.196  0.00  0.00    +0.052 A 
ATOM      8  C   UNL     1       0.049  -2.084  -1.207  0.00  0.00    +0.140 A 
ATOM      9  C   UNL     1       0.060  -2.787   0.011  0.00  0.00    +0.022 A 
ATOM     10  C   UNL     1       0.048  -2.088   1.222  0.00  0.00    +0.035 A 
ATOM     11  C   UNL     1       0.031  -0.706   1.211  0.00  0.00    +0.037 A 
ATOM     12  C   UNL     1       0.084  -4.253  -0.014  0.00  0.00    -0.033 A 
ATOM     13  C   UNL     1       0.094  -4.873  -1.221  0.00  0.00    +0.096 A 
ATOM     14  C   UNL     1       0.082  -4.104  -2.405  0.00  0.00    +0.337 A 
ATOM     15  O   UNL     1       0.091  -4.673  -3.482  0.00  0.00    -0.245 OA
ATOM     16  O   UNL     1       0.060  -2.763  -2.375  0.00  0.00    -0.422 OA
ATOM     17  C   UNL     1       0.098  -5.048   1.266  0.00  0.00    +0.045 C 
ENDBRANCH   1  11
BRANCH   2  18
ATOM     18  C   UNL     1      -0.725   0.313   4.757  0.00  0.00    +0.160 C 
ATOM     19  C   UNL     1       0.580   0.175   5.548  0.00  0.00    +0.053 C 
ATOM     20  C   UNL     1       0.735  -1.287   5.981  0.00  0.00    +0.071 C 
ATOM     21  N   UNL     1      -0.455  -1.695   6.729  0.00  0.00    -0.324 N 
ATOM     22  C   UNL     1      -1.653  -1.142   6.490  0.00  0.00    +0.131 C 
ATOM     23  S   UNL     1      -3.003  -1.680   7.395  0.00  0.00    -0.019 S 
ATOM     24  N   UNL     1      -1.837  -0.181   5.570  0.00  0.00    -0.315 N 
ATOM     25  C   UNL     1       1.973  -1.429   6.870  0.00  0.00    +0.028 C 
ATOM     26  H   UNL     1      -0.376  -2.380   7.411  0.00  0.00    +0.148 HD
ATOM     27  H   UNL     1      -2.722   0.194   5.442  0.00  0.00    +0.148 HD
ENDBRANCH   2  18
TORSDOF 2
