REMARK  Name = ZINC39710544
REMARK  14 active torsions:
REMARK  status: ('A' for Active; 'I' for Inactive)
REMARK    1  A    between atoms: C_1  and  C_2
REMARK    2  A    between atoms: C_2  and  C_3
REMARK    3  A    between atoms: C_10  and  C_15
REMARK    4  A    between atoms: C_15  and  C_17
REMARK    5  A    between atoms: C_15  and  N_27
REMARK    6  A    between atoms: N_22  and  C_23
REMARK    7  A    between atoms: C_23  and  C_24
REMARK    8  A    between atoms: C_23  and  C_25
REMARK    9  A    between atoms: C_23  and  C_26
REMARK   10  A    between atoms: N_27  and  C_28
REMARK   11  A    between atoms: N_27  and  C_36
REMARK   12  A    between atoms: C_28  and  C_29
REMARK   13  A    between atoms: C_29  and  C_30
REMARK   14  A    between atoms: C_36  and  C_37
REMARK                            x       y       z     vdW  Elec       q    Type
REMARK                         _______ _______ _______ _____ _____    ______ ____
ROOT
ATOM      1  C   UNL     1       0.051  -2.964   5.315  0.00  0.00    +0.115 C 
ENDROOT
BRANCH   1   9
ATOM      2  C   UNL     1      -0.892  -0.381   0.169  0.00  0.00    -0.047 A 
ATOM      3  C   UNL     1       0.445   0.001   0.061  0.00  0.00    +0.005 A 
ATOM      4  C   UNL     1       1.315  -0.074   1.102  0.00  0.00    +0.024 A 
ATOM      5  C   UNL     1       0.889  -0.552   2.355  0.00  0.00    +0.040 A 
ATOM      6  N   UNL     1       1.752  -0.621   3.369  0.00  0.00    -0.284 N 
ATOM      7  C   UNL     1       1.418  -1.060   4.572  0.00  0.00    +0.226 C 
ATOM      8  O   UNL     1       2.250  -1.101   5.459  0.00  0.00    -0.275 OA
ATOM      9  C   UNL     1       0.000  -1.511   4.839  0.00  0.00    +0.119 C 
ATOM     10  C   UNL     1      -0.985  -1.433   3.689  0.00  0.00    -0.003 C 
ATOM     11  C   UNL     1      -0.518  -0.963   2.498  0.00  0.00    -0.007 A 
ATOM     12  C   UNL     1      -1.402  -0.850   1.337  0.00  0.00    +0.013 A 
ATOM     13  H   UNL     1       2.667  -0.337   3.218  0.00  0.00    +0.155 HD
BRANCH   2  15
ATOM     14  C   UNL     1      -2.443   1.119  -1.053  0.00  0.00    +0.009 C 
ATOM     15  C   UNL     1      -1.792  -0.265  -1.035  0.00  0.00    +0.032 C 
ENDBRANCH   2  15
ENDBRANCH   1   9
BRANCH   1  16
ATOM     16  C   UNL     1       0.994  -3.075   6.515  0.00  0.00    +0.236 C 
ATOM     17  N   UNL     1       2.394  -3.013   6.074  0.00  0.00    -0.148 NA
ATOM     18  N   UNL     1       2.957  -4.066   6.383  0.00  0.00    -0.069 NA
ATOM     19  N   UNL     1       2.111  -4.961   7.037  0.00  0.00    -0.179 N 
ATOM     20  N   UNL     1       0.863  -4.401   7.154  0.00  0.00    -0.179 NA
ATOM     21  H   UNL     1       2.364  -5.840   7.358  0.00  0.00    +0.191 HD
BRANCH  20  22
ATOM     22  C   UNL     1       0.472  -4.269   8.564  0.00  0.00    +0.035 C 
ATOM     23  C   UNL     1      -0.810  -3.442   8.663  0.00  0.00    +0.029 C 
ATOM     24  C   UNL     1       0.230  -5.659   9.158  0.00  0.00    +0.029 C 
ATOM     25  C   UNL     1       1.591  -3.571   9.340  0.00  0.00    +0.029 C 
ENDBRANCH  20  22
ENDBRANCH   1  16
BRANCH   1  26
ATOM     26  N   UNL     1      -1.296  -3.398   5.709  0.00  0.00    -0.290 NA
BRANCH  26  27
ATOM     27  C   UNL     1      -1.991  -4.041   4.587  0.00  0.00    +0.090 C 
BRANCH  27  28
ATOM     28  C   UNL     1      -1.434  -5.451   4.381  0.00  0.00    +0.050 C 
BRANCH  28  29
ATOM     29  C   UNL     1      -2.063  -6.067   3.158  0.00  0.00    -0.046 A 
ATOM     30  C   UNL     1      -3.235  -6.791   3.274  0.00  0.00    +0.003 A 
ATOM     31  C   UNL     1      -3.812  -7.356   2.152  0.00  0.00    +0.000 A 
ATOM     32  C   UNL     1      -3.217  -7.196   0.914  0.00  0.00    +0.000 A 
ATOM     33  C   UNL     1      -2.046  -6.471   0.798  0.00  0.00    +0.000 A 
ATOM     34  C   UNL     1      -1.471  -5.902   1.920  0.00  0.00    +0.003 A 
ENDBRANCH  28  29
ENDBRANCH  27  28
ENDBRANCH  26  27
BRANCH  26  35
ATOM     35  C   UNL     1      -2.078  -2.272   6.238  0.00  0.00    +0.127 C 
BRANCH  35  36
ATOM     36  C   UNL     1      -3.418  -2.771   6.712  0.00  0.00    +0.004 A 
ATOM     37  C   UNL     1      -3.801  -3.138   7.960  0.00  0.00    +0.012 A 
ATOM     38  C   UNL     1      -5.098  -3.568   8.164  0.00  0.00    +0.008 A 
ATOM     39  C   UNL     1      -5.950  -3.611   7.110  0.00  0.00    +0.045 A 
ATOM     40  S   UNL     1      -4.918  -3.025   5.777  0.00  0.00    -0.100 S 
ENDBRANCH  35  36
ENDBRANCH  26  35
ENDBRANCH   1  26
TORSDOF 10
