REMARK  Name = ZINC63589259
REMARK  9 active torsions:
REMARK  status: ('A' for Active; 'I' for Inactive)
REMARK    1  A    between atoms: C_1  and  C_2
REMARK    2  A    between atoms: C_2  and  C_3
REMARK    3  A    between atoms: C_8  and  N_9
REMARK    4  A    between atoms: N_11  and  C_12
REMARK    5  A    between atoms: C_12  and  C_13
REMARK    6  A    between atoms: C_13  and  C_14
REMARK    7  A    between atoms: N_23  and  C_24
REMARK    8  A    between atoms: C_24  and  C_26
REMARK    9  A    between atoms: C_30  and  C_32
REMARK                            x       y       z     vdW  Elec       q    Type
REMARK                         _______ _______ _______ _____ _____    ______ ____
ROOT
ATOM      1  N   UNL     1      -1.803  -1.532  -3.301  0.00  0.00    -0.328 N 
ATOM      2  C   UNL     1      -2.373  -0.730  -4.247  0.00  0.00    +0.194 C 
ATOM      3  N   UNL     1      -1.596   0.122  -4.976  0.00  0.00    -0.357 N 
ATOM      4  N   UNL     1      -3.680  -0.778  -4.457  0.00  0.00    -0.143 NA
ATOM      5  H   UNL     1      -2.006   0.726  -5.615  0.00  0.00    +0.162 HD
ATOM      6  H   UNL     1      -1.712  -2.484  -3.463  0.00  0.00    +0.169 HD
ENDROOT
BRANCH   1  12
ATOM      7  C   UNL     1      -0.640  -1.764  -1.197  0.00  0.00    -0.024 A 
ATOM      8  C   UNL     1      -0.191  -1.216  -0.012  0.00  0.00    +0.005 A 
ATOM      9  C   UNL     1      -0.453   0.109   0.282  0.00  0.00    +0.000 A 
ATOM     10  C   UNL     1      -1.165   0.890  -0.610  0.00  0.00    +0.002 A 
ATOM     11  C   UNL     1      -1.618   0.348  -1.796  0.00  0.00    +0.026 A 
ATOM     12  C   UNL     1      -1.351  -0.981  -2.097  0.00  0.00    +0.045 A 
BRANCH   7  14
ATOM     13  C   UNL     1       0.912  -3.301  -2.372  0.00  0.00    +0.009 C 
ATOM     14  C   UNL     1      -0.354  -3.209  -1.517  0.00  0.00    +0.034 C 
ENDBRANCH   7  14
ENDBRANCH   1  12
BRANCH   4  15
ATOM     15  C   UNL     1      -4.467  -1.468  -3.621  0.00  0.00    +0.270 C 
ATOM     16  O   UNL     1      -4.002  -1.950  -2.604  0.00  0.00    -0.268 OA
BRANCH  15  17
ATOM     17  C   UNL     1      -5.904  -1.646  -3.935  0.00  0.00    +0.039 A 
ATOM     18  C   UNL     1      -6.415  -1.200  -5.154  0.00  0.00    +0.013 A 
ATOM     19  C   UNL     1      -7.754  -1.368  -5.440  0.00  0.00    +0.001 A 
ATOM     20  C   UNL     1      -8.589  -1.978  -4.521  0.00  0.00    +0.003 A 
ATOM     21  C   UNL     1      -8.088  -2.423  -3.311  0.00  0.00    -0.050 A 
ATOM     22  C   UNL     1      -6.750  -2.265  -3.015  0.00  0.00    +0.016 A 
ATOM     23  C   UNL     1      -9.005  -3.086  -2.315  0.00  0.00    +0.044 C 
ENDBRANCH  15  17
ENDBRANCH   4  15
BRANCH   3  24
ATOM     24  C   UNL     1      -0.142   0.125  -4.795  0.00  0.00    +0.120 C 
BRANCH  24  25
ATOM     25  C   UNL     1       0.481   1.199  -5.689  0.00  0.00    +0.054 C 
BRANCH  25  26
ATOM     26  C   UNL     1       1.983   1.123  -5.592  0.00  0.00    -0.040 C 
ATOM     27  C   UNL     1       2.802   0.295  -6.280  0.00  0.00    -0.001 A 
ATOM     28  C   UNL     1       2.549  -0.744  -7.285  0.00  0.00    +0.010 A 
ATOM     29  C   UNL     1       3.597  -1.422  -7.806  0.00  0.00    +0.001 A 
ATOM     30  C   UNL     1       4.915  -1.159  -7.410  0.00  0.00    +0.002 A 
ATOM     31  C   UNL     1       5.227  -0.220  -6.492  0.00  0.00    +0.026 A 
ATOM     32  C   UNL     1       4.203   0.554  -5.879  0.00  0.00    +0.043 A 
ATOM     33  N   UNL     1       4.249   1.506  -4.978  0.00  0.00    -0.380 N 
ATOM     34  C   UNL     1       2.881   1.962  -4.710  0.00  0.00    +0.144 C 
ATOM     35  H   UNL     1       5.053   1.853  -4.562  0.00  0.00    +0.160 HD
ENDBRANCH  25  26
ENDBRANCH  24  25
ENDBRANCH   3  24
TORSDOF 7
