REMARK  Name = ZINC50594865
REMARK  12 active torsions:
REMARK  status: ('A' for Active; 'I' for Inactive)
REMARK    1  A    between atoms: C_1  and  C_2
REMARK    2  A    between atoms: C_4  and  C_19
REMARK    3  A    between atoms: N_5  and  C_7
REMARK    4  A    between atoms: C_7  and  C_8
REMARK    5  A    between atoms: C_8  and  C_9
REMARK    6  A    between atoms: C_9  and  C_10
REMARK    7  A    between atoms: C_10  and  C_11
REMARK    8  A    between atoms: C_10  and  C_12
REMARK    9  A    between atoms: C_10  and  N_15
REMARK   10  A    between atoms: N_15  and  C_16
REMARK   11  A    between atoms: C_16  and  C_17
REMARK   12  A    between atoms: C_16  and  C_18
REMARK                            x       y       z     vdW  Elec       q    Type
REMARK                         _______ _______ _______ _____ _____    ______ ____
ROOT
ATOM      1  C   UNL     1       2.782  -5.972   3.182  0.00  0.00    +0.007 C 
ATOM      2  C   UNL     1       2.824  -4.520   3.662  0.00  0.00    -0.001 C 
ENDROOT
BRANCH   1   3
ATOM      3  C   UNL     1       3.387  -6.064   1.805  0.00  0.00    +0.199 C 
ATOM      4  O   UNL     1       3.557  -5.059   1.149  0.00  0.00    -0.278 OA
ATOM      5  N   UNL     1       3.740  -7.264   1.303  0.00  0.00    -0.330 N 
ATOM      6  H   UNL     1       3.605  -8.069   1.828  0.00  0.00    +0.145 HD
ATOM      7  H   UNL     1       4.130  -7.323   0.416  0.00  0.00    +0.145 HD
ENDBRANCH   1   3
BRANCH   1   8
ATOM      8  N   UNL     1       3.546  -6.817   4.110  0.00  0.00    +0.390 N 
ATOM      9  H   UNL     1       3.079  -6.843   5.004  0.00  0.00    -0.084 HD
ATOM     10  H   UNL     1       3.612  -7.752   3.737  0.00  0.00    -0.084 HD
BRANCH   8  11
ATOM     11  C   UNL     1       4.896  -6.261   4.280  0.00  0.00    -0.077 C 
ATOM     12  C   UNL     1       5.603  -6.982   5.429  0.00  0.00    -0.014 C 
ATOM     13  C   UNL     1       5.693  -6.454   2.988  0.00  0.00    -0.014 C 
ENDBRANCH   8  11
ENDBRANCH   1   8
BRANCH   1  14
ATOM     14  C   UNL     1       1.330  -6.452   3.134  0.00  0.00    -0.002 C 
BRANCH  14  15
ATOM     15  C   UNL     1       0.534  -5.573   2.168  0.00  0.00    +0.022 C 
BRANCH  15  16
ATOM     16  C   UNL     1      -0.918  -6.052   2.119  0.00  0.00    +0.144 C 
BRANCH  16  21
ATOM     17  C   UNL     1      -3.761  -2.318   0.340  0.00  0.00    +0.068 C 
ATOM     18  C   UNL     1      -2.924  -3.568   0.437  0.00  0.00    +0.074 A 
ATOM     19  C   UNL     1      -2.609  -4.428  -0.621  0.00  0.00    +0.061 A 
ATOM     20  C   UNL     1      -1.843  -5.429  -0.128  0.00  0.00    +0.050 A 
ATOM     21  N   UNL     1      -1.680  -5.210   1.194  0.00  0.00    -0.267 N 
ATOM     22  N   UNL     1      -2.364  -4.033   1.524  0.00  0.00    -0.175 NA
ATOM     23  C   UNL     1      -1.275  -6.582  -0.915  0.00  0.00    +0.066 C 
ATOM     24 BR   UNL     1      -3.156  -4.227  -2.420  0.00  0.00    -0.047 Br
ENDBRANCH  16  21
ENDBRANCH  15  16
ENDBRANCH  14  15
ENDBRANCH   1  14
TORSDOF 7
