REMARK  Name = ZINC39631250
REMARK  13 active torsions:
REMARK  status: ('A' for Active; 'I' for Inactive)
REMARK    1  A    between atoms: C_1  and  C_2
REMARK    2  A    between atoms: C_2  and  C_4
REMARK    3  A    between atoms: C_2  and  N_11
REMARK    4  A    between atoms: C_4  and  C_5
REMARK    5  A    between atoms: C_5  and  C_6
REMARK    6  A    between atoms: C_6  and  C_7
REMARK    7  A    between atoms: C_7  and  C_8
REMARK    8  A    between atoms: C_7  and  C_9
REMARK    9  A    between atoms: C_7  and  O_10
REMARK   10  A    between atoms: C_12  and  C_14
REMARK   11  A    between atoms: C_25  and  C_27
REMARK   12  A    between atoms: C_31  and  O_33
REMARK   13  A    between atoms: O_33  and  C_34
REMARK                            x       y       z     vdW  Elec       q    Type
REMARK                         _______ _______ _______ _____ _____    ______ ____
ROOT
ATOM      1  C   UNL     1       0.374  -1.527   3.259  0.00  0.00    +0.100 C 
ATOM      2  C   UNL     1       1.079  -2.902   3.231  0.00  0.00    +0.121 C 
ATOM      3  N   UNL     1       0.902  -3.441   4.600  0.00  0.00    -0.296 N 
ATOM      4  C   UNL     1      -0.480  -3.053   4.973  0.00  0.00    +0.115 C 
ATOM      5  C   UNL     1      -0.649  -1.631   4.403  0.00  0.00    -0.004 C 
ATOM      6  C   UNL     1      -2.064  -1.443   3.865  0.00  0.00    -0.010 C 
ATOM      7  C   UNL     1      -3.058  -1.492   5.029  0.00  0.00    -0.082 C 
ATOM      8  N   UNL     1      -2.736  -0.435   5.995  0.00  0.00    +0.379 N 
ATOM      9  C   UNL     1      -1.410  -0.675   6.576  0.00  0.00    -0.082 C 
ATOM     10  C   UNL     1      -0.346  -0.592   5.478  0.00  0.00    -0.010 C 
ATOM     11  C   UNL     1       1.794  -4.129   5.338  0.00  0.00    +0.247 C 
ATOM     12  O   UNL     1       2.932  -4.276   4.936  0.00  0.00    -0.270 OA
ATOM     13  H   UNL     1      -2.740   0.459   5.527  0.00  0.00    -0.086 HD
ATOM     14  H   UNL     1      -3.428  -0.430   6.729  0.00  0.00    -0.086 HD
ENDROOT
BRANCH  11  15
ATOM     15  C   UNL     1       1.390  -4.706   6.639  0.00  0.00    +0.040 A 
ATOM     16  C   UNL     1       0.042  -4.946   6.910  0.00  0.00    +0.013 A 
ATOM     17  C   UNL     1      -0.332  -5.484   8.124  0.00  0.00    +0.004 A 
ATOM     18  C   UNL     1       0.626  -5.786   9.075  0.00  0.00    +0.045 A 
ATOM     19  C   UNL     1       1.969  -5.551   8.814  0.00  0.00    +0.121 A 
ATOM     20  C   UNL     1       2.355  -5.017   7.596  0.00  0.00    +0.058 A 
BRANCH  19  21
ATOM     21  O   UNL     1       2.905  -5.850   9.753  0.00  0.00    -0.495 OA
ATOM     22  C   UNL     1       2.436  -6.403  10.984  0.00  0.00    +0.277 C 
ENDBRANCH  19  21
ENDBRANCH  11  15
BRANCH   1  24
ATOM     23  N   UNL     1      -0.499  -0.006   1.515  0.00  0.00    -0.312 N 
ATOM     24  C   UNL     1      -0.327  -1.270   1.950  0.00  0.00    +0.218 C 
ATOM     25  O   UNL     1      -0.736  -2.200   1.288  0.00  0.00    -0.275 OA
ATOM     26  H   UNL     1      -0.172   0.738   2.044  0.00  0.00    +0.149 HD
BRANCH  23  28
ATOM     27  C   UNL     1      -2.694   0.272   0.471  0.00  0.00    +0.028 C 
ATOM     28  C   UNL     1      -1.181   0.244   0.242  0.00  0.00    +0.070 C 
BRANCH  28  29
ATOM     29  C   UNL     1      -0.726   1.590  -0.325  0.00  0.00    +0.022 C 
BRANCH  29  30
ATOM     30  C   UNL     1       0.763   1.521  -0.670  0.00  0.00    +0.005 C 
BRANCH  30  31
ATOM     31  C   UNL     1       1.219   2.867  -1.236  0.00  0.00    +0.034 C 
BRANCH  31  32
ATOM     32  C   UNL     1       2.708   2.797  -1.582  0.00  0.00    +0.061 C 
ATOM     33  C   UNL     1       3.192   4.178  -2.031  0.00  0.00    +0.041 C 
ATOM     34  C   UNL     1       3.497   2.357  -0.347  0.00  0.00    +0.041 C 
BRANCH  32  35
ATOM     35  O   UNL     1       2.909   1.855  -2.637  0.00  0.00    -0.389 OA
ATOM     36  H   UNL     1       2.436   2.072  -3.453  0.00  0.00    +0.210 HD
ENDBRANCH  32  35
ENDBRANCH  31  32
ENDBRANCH  30  31
ENDBRANCH  29  30
ENDBRANCH  28  29
ENDBRANCH  23  28
ENDBRANCH   1  24
TORSDOF 9
