REMARK  Name = ZINC49688717
REMARK  7 active torsions:
REMARK  status: ('A' for Active; 'I' for Inactive)
REMARK    1  A    between atoms: C_1  and  C_2
REMARK    2  A    between atoms: C_2  and  C_4
REMARK    3  A    between atoms: C_2  and  O_16
REMARK    4  A    between atoms: N_6  and  C_7
REMARK    5  A    between atoms: C_10  and  N_14
REMARK    6  A    between atoms: O_16  and  C_17
REMARK    7  A    between atoms: C_17  and  C_18
REMARK                            x       y       z     vdW  Elec       q    Type
REMARK                         _______ _______ _______ _____ _____    ______ ____
ROOT
ATOM      1  C   UNL     1      -0.442  -1.072   1.590  0.00  0.00    +0.246 C 
ATOM      2  O   UNL     1      -0.427  -2.275   1.740  0.00  0.00    -0.273 OA
ATOM      3  N   UNL     1       0.223  -0.277   2.451  0.00  0.00    -0.281 N 
ATOM      4  H   UNL     1       0.272   0.679   2.289  0.00  0.00    +0.155 HD
ENDROOT
BRANCH   3   5
ATOM      5  C   UNL     1       0.844  -0.830   3.580  0.00  0.00    +0.071 A 
ATOM      6  C   UNL     1       2.170  -1.240   3.512  0.00  0.00    +0.065 A 
ATOM      7  C   UNL     1       2.782  -1.786   4.625  0.00  0.00    +0.044 A 
ATOM      8  C   UNL     1       2.072  -1.924   5.810  0.00  0.00    +0.027 A 
ATOM      9  C   UNL     1       0.746  -1.514   5.878  0.00  0.00    +0.044 A 
ATOM     10  C   UNL     1       0.136  -0.963   4.767  0.00  0.00    +0.065 A 
ATOM     11 CL   UNL     1      -1.518  -0.443   4.854  0.00  0.00    -0.082 Cl
ATOM     12 CL   UNL     1       3.057  -1.069   2.030  0.00  0.00    -0.082 Cl
BRANCH   8  13
ATOM     13  N   UNL     1       2.691  -2.476   6.936  0.00  0.00    -0.358 N 
ATOM     14  H   UNL     1       3.617  -2.762   6.889  0.00  0.00    +0.142 HD
ATOM     15  H   UNL     1       2.195  -2.572   7.764  0.00  0.00    +0.142 HD
ENDBRANCH   8  13
ENDBRANCH   3   5
BRANCH   1  17
ATOM     16  C   UNL     1      -0.225   0.215  -0.519  0.00  0.00    +0.048 C 
ATOM     17  C   UNL     1      -1.204  -0.466   0.439  0.00  0.00    +0.201 C 
BRANCH  17  18
ATOM     18  O   UNL     1      -1.914  -1.493  -0.256  0.00  0.00    -0.367 OA
BRANCH  18  19
ATOM     19  C   UNL     1      -3.126  -1.049  -0.869  0.00  0.00    +0.166 C 
BRANCH  19  20
ATOM     20  C   UNL     1      -3.798  -2.225  -1.580  0.00  0.00    +0.043 C 
ATOM     21  C   UNL     1      -5.148  -1.791  -2.212  0.00  0.00    +0.036 C 
ATOM     22  C   UNL     1      -5.256  -2.790  -3.391  0.00  0.00    +0.160 C 
ATOM     23  O   UNL     1      -3.911  -2.958  -3.866  0.00  0.00    -0.379 OA
ATOM     24  C   UNL     1      -2.979  -2.663  -2.814  0.00  0.00    +0.165 C 
ENDBRANCH  19  20
ENDBRANCH  18  19
ENDBRANCH  17  18
ENDBRANCH   1  17
TORSDOF 6
