REMARK  Name = ZINC45563263
REMARK  11 active torsions:
REMARK  status: ('A' for Active; 'I' for Inactive)
REMARK    1  A    between atoms: C_1  and  C_2
REMARK    2  A    between atoms: C_2  and  C_3
REMARK    3  A    between atoms: C_2  and  C_4
REMARK    4  A    between atoms: C_2  and  N_23
REMARK    5  A    between atoms: C_4  and  N_5
REMARK    6  A    between atoms: N_8  and  C_9
REMARK    7  A    between atoms: C_9  and  C_10
REMARK    8  A    between atoms: C_10  and  N_11
REMARK    9  A    between atoms: C_15  and  C_18
REMARK   10  A    between atoms: N_23  and  C_24
REMARK   11  A    between atoms: N_23  and  C_25
REMARK                            x       y       z     vdW  Elec       q    Type
REMARK                         _______ _______ _______ _____ _____    ______ ____
ROOT
ATOM      1  C   UNL     1      -4.218  -4.165  -0.998  0.00  0.00    +0.124 C 
ENDROOT
BRANCH   1   5
ATOM      2  N   UNL     1      -1.558  -1.740  -0.246  0.00  0.00    -0.301 N 
ATOM      3  C   UNL     1      -2.771  -2.267  -0.505  0.00  0.00    +0.300 C 
ATOM      4  O   UNL     1      -3.751  -1.548  -0.546  0.00  0.00    -0.253 OA
ATOM      5  N   UNL     1      -2.899  -3.592  -0.717  0.00  0.00    -0.298 N 
ATOM      6  H   UNL     1      -0.777  -2.314  -0.213  0.00  0.00    +0.150 HD
ATOM      7  H   UNL     1      -2.118  -4.166  -0.684  0.00  0.00    +0.150 HD
BRANCH   2   8
ATOM      8  C   UNL     1      -1.419  -0.300  -0.016  0.00  0.00    +0.093 C 
BRANCH   8  10
ATOM      9  C   UNL     1       0.811  -0.220  -1.140  0.00  0.00    -0.008 C 
ATOM     10  C   UNL     1       0.060   0.047   0.166  0.00  0.00    -0.056 C 
ATOM     11  C   UNL     1       0.195   1.525   0.539  0.00  0.00    -0.008 C 
BRANCH  10  12
ATOM     12  N   UNL     1       0.629  -0.781   1.237  0.00  0.00    +0.380 N 
ATOM     13  C   UNL     1       2.044  -0.433   1.426  0.00  0.00    -0.096 C 
ATOM     14  C   UNL     1      -0.106  -0.541   2.486  0.00  0.00    -0.096 C 
ATOM     15  H   UNL     1       0.554  -1.756   0.985  0.00  0.00    -0.082 HD
ENDBRANCH  10  12
ENDBRANCH   8  10
ENDBRANCH   2   8
ENDBRANCH   1   5
BRANCH   1  16
ATOM     16  C   UNL     1      -4.085  -5.676  -1.198  0.00  0.00    +0.121 C 
BRANCH  16  17
ATOM     17  N   UNL     1      -5.404  -6.249  -1.479  0.00  0.00    -0.326 N 
ATOM     18  C   UNL     1      -5.536  -7.616  -1.698  0.00  0.00    +0.137 A 
ATOM     19  C   UNL     1      -6.791  -8.153  -1.970  0.00  0.00    +0.081 A 
ATOM     20  C   UNL     1      -6.907  -9.515  -2.186  0.00  0.00    +0.037 A 
ATOM     21  C   UNL     1      -5.760 -10.296  -2.123  0.00  0.00    +0.074 A 
ATOM     22  C   UNL     1      -4.548  -9.696  -1.849  0.00  0.00    +0.125 A 
ATOM     23  N   UNL     1      -4.466  -8.394  -1.651  0.00  0.00    -0.238 NA
ATOM     24 CL   UNL     1      -8.191  -7.129  -2.036  0.00  0.00    -0.080 Cl
ATOM     25  H   UNL     1      -6.185  -5.675  -1.512  0.00  0.00    +0.148 HD
BRANCH  21  26
ATOM     26  C   UNL     1      -5.839 -11.784  -2.351  0.00  0.00    +0.419 C 
ATOM     27  F   UNL     1      -5.665 -12.056  -3.712  0.00  0.00    -0.166 F 
ATOM     28  F   UNL     1      -4.835 -12.422  -1.615  0.00  0.00    -0.166 F 
ATOM     29  F   UNL     1      -7.090 -12.253  -1.938  0.00  0.00    -0.166 F 
ENDBRANCH  21  26
ENDBRANCH  16  17
ENDBRANCH   1  16
TORSDOF 7
