REMARK  Name = ZINC12507754
REMARK  5 active torsions:
REMARK  status: ('A' for Active; 'I' for Inactive)
REMARK    1  A    between atoms: C_3  and  C_15
REMARK    2  A    between atoms: C_4  and  O_11
REMARK    3  A    between atoms: C_6  and  O_7
REMARK    4  A    between atoms: O_7  and  C_8
REMARK    5  A    between atoms: O_11  and  C_12
REMARK                            x       y       z     vdW  Elec       q    Type
REMARK                         _______ _______ _______ _____ _____    ______ ____
ROOT
ATOM      1  C   UNL     1       3.670   2.196  -0.022  0.00  0.00    +0.212 C 
ATOM      2  N   UNL     1       3.423   3.584  -0.455  0.00  0.00    -0.294 N 
ATOM      3  C   UNL     1       2.967   4.508   0.448  0.00  0.00    +0.160 C 
ATOM      4  N   UNL     1       3.269   4.426   1.732  0.00  0.00    -0.302 N 
ATOM      5  C   UNL     1       3.996   3.365   2.155  0.00  0.00    +0.213 A 
ATOM      6  N   UNL     1       4.220   2.271   1.336  0.00  0.00    -0.286 N 
ATOM      7  C   UNL     1       4.995   1.374   2.033  0.00  0.00    +0.076 A 
ATOM      8  C   UNL     1       5.542   0.132   1.738  0.00  0.00    +0.077 A 
ATOM      9  C   UNL     1       6.298  -0.530   2.686  0.00  0.00    +0.164 A 
ATOM     10  C   UNL     1       6.516   0.039   3.938  0.00  0.00    +0.164 A 
ATOM     11  C   UNL     1       5.979   1.271   4.248  0.00  0.00    +0.079 A 
ATOM     12  C   UNL     1       5.211   1.952   3.298  0.00  0.00    +0.095 A 
ATOM     13  N   UNL     1       4.566   3.158   3.313  0.00  0.00    -0.212 NA
ATOM     14  O   UNL     1       7.269  -0.630   4.860  0.00  0.00    -0.488 OA
ATOM     15  C   UNL     1       6.693  -1.826   5.390  0.00  0.00    +0.232 C 
ATOM     16  C   UNL     1       6.968  -3.008   4.474  0.00  0.00    +0.082 C 
ATOM     17  C   UNL     1       6.294  -2.860   3.119  0.00  0.00    +0.232 C 
ATOM     18  O   UNL     1       6.838  -1.752   2.400  0.00  0.00    -0.488 OA
ATOM     19  N   UNL     1       2.182   5.540   0.009  0.00  0.00    -0.332 N 
ATOM     20  H   UNL     1       1.954   5.611  -0.931  0.00  0.00    +0.145 HD
ATOM     21  H   UNL     1       1.853   6.201   0.639  0.00  0.00    +0.145 HD
ATOM     22  H   UNL     1       3.583   3.841  -1.376  0.00  0.00    +0.151 HD
ATOM     23  H   UNL     1       2.978   5.109   2.355  0.00  0.00    +0.171 HD
ENDROOT
BRANCH   1  26
ATOM     24  C   UNL     1      -0.017   1.383   0.010  0.00  0.00    +0.046 A 
ATOM     25  C   UNL     1       1.170   2.092   0.002  0.00  0.00    +0.014 A 
ATOM     26  C   UNL     1       2.377   1.421  -0.013  0.00  0.00    +0.035 A 
ATOM     27  C   UNL     1       2.402   0.033  -0.021  0.00  0.00    +0.137 A 
ATOM     28  C   UNL     1       1.213  -0.680  -0.013  0.00  0.00    +0.092 A 
ATOM     29  C   UNL     1       0.002  -0.004   0.002  0.00  0.00    +0.130 A 
BRANCH  29  30
ATOM     30  O   UNL     1      -1.165  -0.700   0.010  0.00  0.00    -0.434 OA
BRANCH  30  31
ATOM     31  C   UNL     1      -2.374   0.061   0.026  0.00  0.00    +0.541 C 
ATOM     32  F   UNL     1      -2.406   0.862   1.173  0.00  0.00    -0.166 F 
ATOM     33  F   UNL     1      -2.429   0.874  -1.112  0.00  0.00    -0.166 F 
ENDBRANCH  30  31
ENDBRANCH  29  30
BRANCH  27  34
ATOM     34  O   UNL     1       3.590  -0.626  -0.036  0.00  0.00    -0.434 OA
BRANCH  34  35
ATOM     35  C   UNL     1       3.539  -2.054  -0.043  0.00  0.00    +0.541 C 
ATOM     36  F   UNL     1       2.875  -2.503   1.103  0.00  0.00    -0.166 F 
ATOM     37  F   UNL     1       2.852  -2.491  -1.181  0.00  0.00    -0.166 F 
ENDBRANCH  34  35
ENDBRANCH  27  34
ENDBRANCH   1  26
TORSDOF 5
