REMARK  Name = ZINC01890146
REMARK  7 active torsions:
REMARK  status: ('A' for Active; 'I' for Inactive)
REMARK    1  A    between atoms: C_4  and  S_7
REMARK    2  A    between atoms: S_7  and  C_8
REMARK    3  A    between atoms: C_8  and  C_9
REMARK    4  A    between atoms: C_10  and  C_20
REMARK    5  A    between atoms: N_22  and  N_23
REMARK    6  A    between atoms: C_24  and  C_25
REMARK    7  A    between atoms: C_29  and  N_31
REMARK                            x       y       z     vdW  Elec       q    Type
REMARK                         _______ _______ _______ _____ _____    ______ ____
ROOT
ATOM      1  C   UNL     1       1.272   1.805  -0.000  0.00  0.00    +0.089 A 
ATOM      2  C   UNL     1       2.042   0.677  -0.014  0.00  0.00    +0.173 A 
ATOM      3  N   UNL     1       1.229  -0.394  -0.012  0.00  0.00    -0.124 NA
ATOM      4  N   UNL     1       0.002  -0.004   0.002  0.00  0.00    -0.058 NA
ATOM      5  N   UNL     1      -0.017   1.398   0.010  0.00  0.00    -0.191 N 
ATOM      6  C   UNL     1      -1.151   2.217   0.020  0.00  0.00    +0.240 A 
ATOM      7  C   UNL     1      -2.543   1.756   0.025  0.00  0.00    +0.206 A 
ATOM      8  N   UNL     1      -3.322   2.803   0.034  0.00  0.00    -0.032 NA
ATOM      9  O   UNL     1      -2.499   3.956   0.036  0.00  0.00    -0.239 OA
ATOM     10  N   UNL     1      -1.151   3.520   0.032  0.00  0.00    -0.027 NA
ATOM     11  N   UNL     1      -2.961   0.430   0.020  0.00  0.00    -0.337 N 
ATOM     12  H   UNL     1      -2.305  -0.285   0.013  0.00  0.00    +0.144 HD
ATOM     13  H   UNL     1      -3.908   0.220   0.024  0.00  0.00    +0.144 HD
ENDROOT
BRANCH   2  14
ATOM     14  C   UNL     1       3.516   0.640  -0.029  0.00  0.00    +0.285 C 
ATOM     15  O   UNL     1       4.151   1.678  -0.030  0.00  0.00    -0.267 OA
ATOM     16  N   UNL     1       4.161  -0.543  -0.042  0.00  0.00    -0.202 N 
ATOM     17  H   UNL     1       3.655  -1.371  -0.041  0.00  0.00    +0.178 HD
BRANCH  16  18
ATOM     18  N   UNL     1       5.561  -0.579  -0.056  0.00  0.00    -0.187 NA
ATOM     19  C   UNL     1       6.181  -1.718  -0.068  0.00  0.00    +0.138 C 
BRANCH  19  20
ATOM     20  C   UNL     1       7.656  -1.755  -0.083  0.00  0.00    -0.003 A 
ATOM     21  C   UNL     1       8.387  -0.565  -0.090  0.00  0.00    +0.011 A 
ATOM     22  C   UNL     1       9.765  -0.607  -0.099  0.00  0.00    +0.023 A 
ATOM     23  C   UNL     1      10.425  -1.825  -0.112  0.00  0.00    +0.071 A 
ATOM     24  C   UNL     1       9.705  -3.008  -0.111  0.00  0.00    +0.145 A 
ATOM     25  C   UNL     1       8.326  -2.981  -0.096  0.00  0.00    +0.043 A 
ATOM     26 CL   UNL     1      12.160  -1.868  -0.130  0.00  0.00    -0.081 Cl
BRANCH  24  27
ATOM     27  N   UNL     1      10.418  -4.306  -0.125  0.00  0.00    +0.058 N 
ATOM     28  O   UNL     1       9.787  -5.347  -0.124  0.00  0.00    -0.126 OA
ATOM     29  O   UNL     1      11.636  -4.331  -0.138  0.00  0.00    -0.126 OA
ENDBRANCH  24  27
ENDBRANCH  19  20
ENDBRANCH  16  18
ENDBRANCH   2  14
BRANCH   1  30
ATOM     30  C   UNL     1       1.764   3.230   0.002  0.00  0.00    +0.132 C 
BRANCH  30  31
ATOM     31  S   UNL     1       1.978   3.793   1.713  0.00  0.00    -0.119 S 
BRANCH  31  35
ATOM     32  C   UNL     1       3.446   8.056   1.289  0.00  0.00    +0.000 A 
ATOM     33  C   UNL     1       3.271   7.509   2.547  0.00  0.00    +0.001 A 
ATOM     34  C   UNL     1       2.824   6.209   2.680  0.00  0.00    +0.015 A 
ATOM     35  C   UNL     1       2.549   5.451   1.548  0.00  0.00    +0.008 A 
ATOM     36  C   UNL     1       2.732   6.003   0.286  0.00  0.00    +0.015 A 
ATOM     37  C   UNL     1       3.173   7.305   0.160  0.00  0.00    +0.001 A 
ENDBRANCH  31  35
ENDBRANCH  30  31
ENDBRANCH   1  30
TORSDOF 7
