REMARK  Name = ZINC02852616
REMARK  12 active torsions:
REMARK  status: ('A' for Active; 'I' for Inactive)
REMARK    1  A    between atoms: C_1  and  C_2
REMARK    2  A    between atoms: C_5  and  C_29
REMARK    3  A    between atoms: C_6  and  O_8
REMARK    4  A    between atoms: O_8  and  C_9
REMARK    5  A    between atoms: C_9  and  C_10
REMARK    6  A    between atoms: C_13  and  C_15
REMARK    7  A    between atoms: N_17  and  N_18
REMARK    8  A    between atoms: N_18  and  C_19
REMARK    9  A    between atoms: C_19  and  N_21
REMARK   10  A    between atoms: N_21  and  C_22
REMARK   11  A    between atoms: C_29  and  C_30
REMARK   12  A    between atoms: C_29  and  C_31
REMARK                            x       y       z     vdW  Elec       q    Type
REMARK                         _______ _______ _______ _____ _____    ______ ____
ROOT
ATOM      1  C   UNL     1       0.490   2.920  -1.041  0.00  0.00    +0.143 A 
ATOM      2  C   UNL     1       0.953   1.668  -0.831  0.00  0.00    +0.049 A 
ATOM      3  C   UNL     1      -0.130   0.897  -0.380  0.00  0.00    +0.055 A 
ATOM      4  C   UNL     1      -1.214   1.726  -0.344  0.00  0.00    +0.191 A 
ATOM      5  O   UNL     1      -0.816   2.952  -0.744  0.00  0.00    -0.452 OA
ENDROOT
BRANCH   4   6
ATOM      6  C   UNL     1      -2.573   1.352   0.061  0.00  0.00    +0.295 C 
ATOM      7  O   UNL     1      -2.812   0.209   0.406  0.00  0.00    -0.265 OA
ATOM      8  N   UNL     1      -3.557   2.272   0.051  0.00  0.00    -0.229 N 
ATOM      9  H   UNL     1      -3.367   3.183  -0.224  0.00  0.00    +0.173 HD
BRANCH   8  10
ATOM     10  N   UNL     1      -4.855   1.915   0.439  0.00  0.00    -0.245 N 
ATOM     11  H   UNL     1      -5.045   1.004   0.714  0.00  0.00    +0.172 HD
BRANCH  10  12
ATOM     12  C   UNL     1      -5.839   2.835   0.429  0.00  0.00    +0.151 C 
ATOM     13  S   UNL     1      -7.425   2.398   0.902  0.00  0.00    -0.017 S 
BRANCH  12  14
ATOM     14  N   UNL     1      -5.575   4.100   0.047  0.00  0.00    -0.296 N 
ATOM     15  H   UNL     1      -4.665   4.364  -0.161  0.00  0.00    +0.154 HD
BRANCH  14  16
ATOM     16  C   UNL     1      -6.613   5.034  -0.049  0.00  0.00    +0.033 A 
ATOM     17  C   UNL     1      -6.699   5.867  -1.157  0.00  0.00    +0.024 A 
ATOM     18  C   UNL     1      -7.728   6.783  -1.252  0.00  0.00    +0.017 A 
ATOM     19  C   UNL     1      -8.666   6.880  -0.240  0.00  0.00    +0.018 A 
ATOM     20  C   UNL     1      -8.579   6.055   0.868  0.00  0.00    +0.017 A 
ATOM     21  C   UNL     1      -7.556   5.133   0.965  0.00  0.00    +0.024 A 
ATOM     22 BR   UNL     1     -10.069   8.141  -0.370  0.00  0.00    -0.050 Br
ENDBRANCH  14  16
ENDBRANCH  12  14
ENDBRANCH  10  12
ENDBRANCH   8  10
ENDBRANCH   4   6
BRANCH   1  23
ATOM     23  C   UNL     1       1.308   4.087  -1.530  0.00  0.00    +0.303 C 
BRANCH  23  24
ATOM     24  O   UNL     1       1.268   4.132  -2.958  0.00  0.00    -0.484 OA
BRANCH  24  30
ATOM     25  C   UNL     1       4.127   8.070  -2.586  0.00  0.00    +0.044 C 
ATOM     26  C   UNL     1       3.365   7.070  -3.416  0.00  0.00    -0.047 A 
ATOM     27  C   UNL     1       3.369   7.170  -4.795  0.00  0.00    +0.004 A 
ATOM     28  C   UNL     1       2.670   6.255  -5.559  0.00  0.00    +0.008 A 
ATOM     29  C   UNL     1       1.970   5.232  -4.947  0.00  0.00    -0.003 A 
ATOM     30  C   UNL     1       1.960   5.133  -3.563  0.00  0.00    +0.125 A 
ATOM     31  C   UNL     1       2.662   6.053  -2.798  0.00  0.00    +0.049 A 
BRANCH  29  32
ATOM     32  C   UNL     1       1.214   4.231  -5.780  0.00  0.00    +0.016 C 
ATOM     33  C   UNL     1       0.159   4.957  -6.618  0.00  0.00    +0.012 C 
ATOM     34  C   UNL     1       2.188   3.501  -6.708  0.00  0.00    +0.012 C 
ENDBRANCH  29  32
ENDBRANCH  24  30
ENDBRANCH  23  24
ENDBRANCH   1  23
TORSDOF 9
