REMARK  Name = ZINC08636728
REMARK  5 active torsions:
REMARK  status: ('A' for Active; 'I' for Inactive)
REMARK    1  A    between atoms: C_4  and  N_7
REMARK    2  A    between atoms: N_14  and  N_17
REMARK    3  A    between atoms: N_17  and  C_18
REMARK    4  A    between atoms: C_18  and  N_20
REMARK    5  A    between atoms: N_20  and  C_21
REMARK                            x       y       z     vdW  Elec       q    Type
REMARK                         _______ _______ _______ _____ _____    ______ ____
ROOT
ATOM      1  N   UNL     1       2.484   3.421  -1.032  0.00  0.00    -0.214 N 
ATOM      2  C   UNL     1       1.387   2.625  -0.895  0.00  0.00    +0.168 A 
ATOM      3  C   UNL     1       0.357   3.444  -0.416  0.00  0.00    +0.080 A 
ATOM      4  C   UNL     1       0.880   4.740  -0.277  0.00  0.00    +0.148 A 
ATOM      5  N   UNL     1       2.134   4.720  -0.641  0.00  0.00    -0.172 NA
ATOM      6  C   UNL     1      -0.958   2.832  -0.175  0.00  0.00    +0.136 A 
ATOM      7  N   UNL     1      -1.968   3.537   0.272  0.00  0.00    -0.383 N 
ATOM      8  N   UNL     1      -1.086   1.481  -0.446  0.00  0.00    -0.233 N 
ATOM      9  C   UNL     1      -0.015   0.781  -0.905  0.00  0.00    +0.223 A 
ATOM     10  N   UNL     1       1.147   1.321  -1.117  0.00  0.00    -0.216 NA
ATOM     11  H   UNL     1      -2.942   3.056   0.444  0.00  0.00    +0.157 HD
ATOM     12  H   UNL     1      -1.841   4.611   0.476  0.00  0.00    +0.157 HD
ENDROOT
BRANCH   1  16
ATOM     13  C   UNL     1       6.235   2.202  -2.379  0.00  0.00    +0.000 A 
ATOM     14  C   UNL     1       5.765   3.464  -2.694  0.00  0.00    +0.002 A 
ATOM     15  C   UNL     1       4.523   3.871  -2.249  0.00  0.00    +0.028 A 
ATOM     16  C   UNL     1       3.745   3.011  -1.485  0.00  0.00    +0.068 A 
ATOM     17  C   UNL     1       4.222   1.747  -1.165  0.00  0.00    +0.028 A 
ATOM     18  C   UNL     1       5.463   1.344  -1.618  0.00  0.00    +0.002 A 
ENDBRANCH   1  16
BRANCH   8  19
ATOM     19  N   UNL     1      -2.313   0.837  -0.244  0.00  0.00    -0.231 N 
ATOM     20  H   UNL     1      -3.252   1.347  -0.506  0.00  0.00    +0.175 HD
BRANCH  19  21
ATOM     21  C   UNL     1      -2.344  -0.408   0.272  0.00  0.00    +0.153 C 
ATOM     22  S   UNL     1      -0.887  -1.175   0.744  0.00  0.00    -0.017 S 
BRANCH  21  23
ATOM     23  N   UNL     1      -3.520  -1.049   0.417  0.00  0.00    -0.294 N 
ATOM     24  H   UNL     1      -4.450  -0.578   0.066  0.00  0.00    +0.154 HD
BRANCH  23  25
ATOM     25  C   UNL     1      -3.559  -2.314   1.014  0.00  0.00    +0.051 A 
ATOM     26  C   UNL     1      -2.732  -2.600   2.092  0.00  0.00    +0.026 A 
ATOM     27  C   UNL     1      -2.772  -3.850   2.680  0.00  0.00    +0.022 A 
ATOM     28  C   UNL     1      -3.636  -4.816   2.197  0.00  0.00    +0.042 A 
ATOM     29  C   UNL     1      -4.462  -4.535   1.123  0.00  0.00    +0.041 A 
ATOM     30  C   UNL     1      -4.430  -3.285   0.534  0.00  0.00    +0.063 A 
ATOM     31 CL   UNL     1      -5.471  -2.929  -0.809  0.00  0.00    -0.082 Cl
ATOM     32 CL   UNL     1      -3.684  -6.385   2.939  0.00  0.00    -0.083 Cl
ENDBRANCH  23  25
ENDBRANCH  21  23
ENDBRANCH  19  21
ENDBRANCH   8  19
TORSDOF 5
