REMARK  Name = ZINC50015761
REMARK  8 active torsions:
REMARK  status: ('A' for Active; 'I' for Inactive)
REMARK    1  A    between atoms: C_4  and  N_19
REMARK    2  A    between atoms: C_5  and  C_7
REMARK    3  A    between atoms: C_7  and  N_8
REMARK    4  A    between atoms: N_8  and  C_9
REMARK    5  A    between atoms: C_9  and  C_10
REMARK    6  A    between atoms: C_10  and  C_12
REMARK    7  A    between atoms: C_10  and  O_18
REMARK    8  A    between atoms: C_12  and  N_13
REMARK                            x       y       z     vdW  Elec       q    Type
REMARK                         _______ _______ _______ _____ _____    ______ ____
ROOT
ATOM      1  N   UNL     1       1.490  -2.680   1.338  0.00  0.00    +0.383 N 
ATOM      2  H   UNL     1       2.383  -2.333   1.656  0.00  0.00    -0.085 HD
ATOM      3  H   UNL     1       0.764  -2.357   1.959  0.00  0.00    -0.085 HD
ENDROOT
BRANCH   1   4
ATOM      4  C   UNL     1       1.229  -2.186  -0.020  0.00  0.00    -0.044 C 
BRANCH   4   9
ATOM      5  C   UNL     1      -0.017   1.378   0.010  0.00  0.00    +0.000 A 
ATOM      6  C   UNL     1       1.171   2.085   0.002  0.00  0.00    +0.002 A 
ATOM      7  C   UNL     1       2.377   1.411  -0.013  0.00  0.00    +0.033 A 
ATOM      8  C   UNL     1       2.396   0.028  -0.020  0.00  0.00    +0.128 A 
ATOM      9  C   UNL     1       1.209  -0.679  -0.012  0.00  0.00    -0.034 A 
ATOM     10  C   UNL     1       0.002  -0.004   0.002  0.00  0.00    +0.004 A 
BRANCH   8  11
ATOM     11  N   UNL     1       3.688  -0.694  -0.037  0.00  0.00    +0.057 N 
ATOM     12  O   UNL     1       4.726  -0.076  -0.045  0.00  0.00    -0.126 OA
ATOM     13  O   UNL     1       3.704  -1.903  -0.043  0.00  0.00    -0.126 OA
ENDBRANCH   8  11
ENDBRANCH   4   9
ENDBRANCH   1   4
BRANCH   1  14
ATOM     14  C   UNL     1       1.510  -4.149   1.330  0.00  0.00    -0.052 C 
BRANCH  14  15
ATOM     15  C   UNL     1       1.783  -4.663   2.744  0.00  0.00    +0.081 C 
BRANCH  15  16
ATOM     16  O   UNL     1       3.047  -4.172   3.195  0.00  0.00    -0.395 OA
ATOM     17  H   UNL     1       3.793  -4.444   2.644  0.00  0.00    +0.210 HD
ENDBRANCH  15  16
BRANCH  15  18
ATOM     18  C   UNL     1       1.803  -6.193   2.736  0.00  0.00    -0.049 C 
BRANCH  18  19
ATOM     19  N   UNL     1       1.945  -6.689   4.111  0.00  0.00    +0.381 N 
ATOM     20  C   UNL     1       0.713  -6.402   4.889  0.00  0.00    -0.079 C 
ATOM     21  C   UNL     1       0.777  -7.428   6.047  0.00  0.00    -0.020 C 
ATOM     22  C   UNL     1       1.361  -8.686   5.363  0.00  0.00    -0.020 C 
ATOM     23  C   UNL     1       2.087  -8.161   4.111  0.00  0.00    -0.079 C 
ATOM     24  H   UNL     1       2.745  -6.262   4.554  0.00  0.00    -0.082 HD
ENDBRANCH  18  19
ENDBRANCH  15  18
ENDBRANCH  14  15
ENDBRANCH   1  14
TORSDOF 8
