REMARK  Name = ZINC61882435
REMARK  6 active torsions:
REMARK  status: ('A' for Active; 'I' for Inactive)
REMARK    1  A    between atoms: C_1  and  N_2
REMARK    2  A    between atoms: C_5  and  C_8
REMARK    3  A    between atoms: C_8  and  N_9
REMARK    4  A    between atoms: N_9  and  S_10
REMARK    5  A    between atoms: S_10  and  C_13
REMARK    6  A    between atoms: C_17  and  N_20
REMARK                            x       y       z     vdW  Elec       q    Type
REMARK                         _______ _______ _______ _____ _____    ______ ____
ROOT
ATOM      1  S   UNL     1       1.679  -6.183   1.630  0.00  0.00    +0.060 S 
ATOM      2  O   UNL     1       2.423  -6.484   2.802  0.00  0.00    -0.153 OA
ATOM      3  O   UNL     1       0.258  -6.204   1.603  0.00  0.00    -0.153 OA
ENDROOT
BRANCH   1   4
ATOM      4  C   UNL     1       2.222  -7.306   0.386  0.00  0.00    +0.122 A 
ATOM      5  C   UNL     1       1.296  -8.023  -0.349  0.00  0.00    +0.049 A 
ATOM      6  C   UNL     1       1.719  -8.906  -1.327  0.00  0.00    +0.045 A 
ATOM      7  C   UNL     1       3.069  -9.073  -1.573  0.00  0.00    +0.044 A 
ATOM      8  C   UNL     1       4.001  -8.355  -0.836  0.00  0.00    +0.042 A 
ATOM      9  C   UNL     1       3.573  -7.465   0.142  0.00  0.00    +0.065 A 
ATOM     10 BR   UNL     1       4.838  -6.477   1.143  0.00  0.00    -0.046 Br
ATOM     11 CL   UNL     1       0.553  -9.805  -2.247  0.00  0.00    -0.083 Cl
BRANCH   8  12
ATOM     12  N   UNL     1       5.367  -8.522  -1.081  0.00  0.00    -0.357 N 
ATOM     13  H   UNL     1       5.664  -9.140  -1.766  0.00  0.00    +0.142 HD
ATOM     14  H   UNL     1       6.017  -8.019  -0.566  0.00  0.00    +0.142 HD
ENDBRANCH   8  12
ENDBRANCH   1   4
BRANCH   1  15
ATOM     15  N   UNL     1       2.139  -4.665   1.154  0.00  0.00    -0.190 NA
ATOM     16  H   UNL     1       2.786  -4.168   1.678  0.00  0.00    +0.148 HD
BRANCH  15  17
ATOM     17  C   UNL     1       1.569  -4.073  -0.059  0.00  0.00    +0.109 C 
BRANCH  17  22
ATOM     18  C   UNL     1       0.918   1.588  -0.272  0.00  0.00    -0.096 C 
ATOM     19  N   UNL     1       0.786   0.125  -0.249  0.00  0.00    +0.378 N 
ATOM     20  C   UNL     1       1.554  -0.451  -1.360  0.00  0.00    -0.079 C 
ATOM     21  C   UNL     1       1.354  -1.968  -1.390  0.00  0.00    -0.014 C 
ATOM     22  C   UNL     1       1.839  -2.567  -0.067  0.00  0.00    +0.001 C 
ATOM     23  C   UNL     1       1.083  -1.905   1.089  0.00  0.00    -0.014 C 
ATOM     24  C   UNL     1       1.293  -0.391   1.028  0.00  0.00    -0.079 C 
ATOM     25  H   UNL     1      -0.186  -0.125  -0.350  0.00  0.00    -0.082 HD
ENDBRANCH  17  22
ENDBRANCH  15  17
ENDBRANCH   1  15
TORSDOF 5
