REMARK  Name = ZINC08594750
REMARK  8 active torsions:
REMARK  status: ('A' for Active; 'I' for Inactive)
REMARK    1  A    between atoms: C_1  and  C_2
REMARK    2  A    between atoms: C_6  and  C_8
REMARK    3  A    between atoms: C_8  and  S_9
REMARK    4  A    between atoms: S_9  and  C_10
REMARK    5  A    between atoms: C_15  and  C_31
REMARK    6  A    between atoms: C_17  and  C_21
REMARK    7  A    between atoms: C_18  and  C_20
REMARK    8  A    between atoms: N_23  and  C_24
REMARK                            x       y       z     vdW  Elec       q    Type
REMARK                         _______ _______ _______ _____ _____    ______ ____
ROOT
ATOM      1  C   UNL     1       1.514  -3.871   4.593  0.00  0.00    +0.211 A 
ATOM      2  N   UNL     1       0.396  -4.298   5.199  0.00  0.00    -0.187 NA
ATOM      3  C   UNL     1       0.711  -4.961   6.277  0.00  0.00    +0.219 A 
ATOM      4  N   UNL     1       2.062  -4.978   6.383  0.00  0.00    -0.219 N 
ATOM      5  N   UNL     1       2.557  -4.272   5.287  0.00  0.00    -0.141 NA
ATOM      6  C   UNL     1       2.780  -5.642   7.467  0.00  0.00    +0.184 C 
ATOM      7  C   UNL     1       1.810  -6.017   8.555  0.00  0.00    +0.061 C 
ATOM      8  C   UNL     1       0.479  -5.978   8.395  0.00  0.00    +0.018 C 
ATOM      9  N   UNL     1      -0.104  -5.577   7.217  0.00  0.00    -0.287 N 
ATOM     10  C   UNL     1      -0.406  -6.387   9.544  0.00  0.00    +0.061 C 
ATOM     11  H   UNL     1      -1.049  -5.719   7.049  0.00  0.00    +0.155 HD
ENDROOT
BRANCH   6  12
ATOM     12  C   UNL     1       3.449  -6.885   6.940  0.00  0.00    +0.019 A 
ATOM     13  C   UNL     1       4.766  -7.206   6.929  0.00  0.00    +0.013 A 
ATOM     14  C   UNL     1       5.156  -8.417   6.387  0.00  0.00    +0.008 A 
ATOM     15  C   UNL     1       4.210  -9.247   5.883  0.00  0.00    +0.045 A 
ATOM     16  S   UNL     1       2.712  -8.319   6.174  0.00  0.00    -0.099 S 
ENDBRANCH   6  12
BRANCH   7  17
ATOM     17  C   UNL     1       2.326  -6.432   9.806  0.00  0.00    +0.248 C 
ATOM     18  O   UNL     1       2.786  -5.610  10.577  0.00  0.00    -0.270 OA
ATOM     19  N   UNL     1       2.308  -7.737  10.143  0.00  0.00    -0.282 N 
ATOM     20  H   UNL     1       2.001  -8.399   9.504  0.00  0.00    +0.155 HD
BRANCH  19  21
ATOM     21  C   UNL     1       2.731  -8.136  11.415  0.00  0.00    +0.034 A 
ATOM     22  C   UNL     1       2.112  -9.205  12.051  0.00  0.00    +0.025 A 
ATOM     23  C   UNL     1       2.533  -9.597  13.306  0.00  0.00    +0.022 A 
ATOM     24  C   UNL     1       3.569  -8.926  13.931  0.00  0.00    +0.041 A 
ATOM     25  C   UNL     1       4.187  -7.861  13.300  0.00  0.00    +0.022 A 
ATOM     26  C   UNL     1       3.775  -7.468  12.043  0.00  0.00    +0.025 A 
ATOM     27 CL   UNL     1       4.094  -9.422  15.510  0.00  0.00    -0.084 Cl
ENDBRANCH  19  21
ENDBRANCH   7  17
BRANCH   1  28
ATOM     28  S   UNL     1       1.575  -2.933   3.103  0.00  0.00    -0.080 S 
BRANCH  28  29
ATOM     29  C   UNL     1      -0.167  -2.710   2.652  0.00  0.00    +0.112 C 
BRANCH  29  35
ATOM     30  C   UNL     1      -0.505   1.704   0.316  0.00  0.00    +0.044 C 
ATOM     31  C   UNL     1      -0.420   0.200   0.260  0.00  0.00    -0.050 A 
ATOM     32  C   UNL     1      -0.426  -0.447  -0.962  0.00  0.00    +0.003 A 
ATOM     33  C   UNL     1      -0.349  -1.826  -1.014  0.00  0.00    +0.001 A 
ATOM     34  C   UNL     1      -0.265  -2.558   0.156  0.00  0.00    +0.004 A 
ATOM     35  C   UNL     1      -0.258  -1.911   1.377  0.00  0.00    -0.037 A 
ATOM     36  C   UNL     1      -0.332  -0.532   1.429  0.00  0.00    +0.007 A 
ENDBRANCH  29  35
ENDBRANCH  28  29
ENDBRANCH   1  28
TORSDOF 6
