REMARK  Name = ZINC61770134
REMARK  6 active torsions:
REMARK  status: ('A' for Active; 'I' for Inactive)
REMARK    1  A    between atoms: C_1  and  C_2
REMARK    2  A    between atoms: C_2  and  C_3
REMARK    3  A    between atoms: C_2  and  N_4
REMARK    4  A    between atoms: C_8  and  S_11
REMARK    5  A    between atoms: S_11  and  C_12
REMARK    6  A    between atoms: C_17  and  N_22
REMARK                            x       y       z     vdW  Elec       q    Type
REMARK                         _______ _______ _______ _____ _____    ______ ____
ROOT
ATOM      1  C   UNL     1      -5.506  -3.118  -1.726  0.00  0.00    +0.174 A 
ATOM      2  N   UNL     1      -6.401  -3.884  -2.421  0.00  0.00    -0.333 N 
ATOM      3  H   UNL     1      -6.237  -4.341  -3.260  0.00  0.00    +0.168 HD
ATOM      4  C   UNL     1      -7.584  -3.886  -1.702  0.00  0.00    +0.069 A 
ATOM      5  C   UNL     1      -8.825  -4.473  -1.897  0.00  0.00    +0.050 A 
ATOM      6  C   UNL     1      -9.833  -4.278  -0.967  0.00  0.00    +0.027 A 
ATOM      7  C   UNL     1      -9.605  -3.495   0.162  0.00  0.00    +0.025 A 
ATOM      8  C   UNL     1      -8.377  -2.907   0.366  0.00  0.00    +0.032 A 
ATOM      9  C   UNL     1      -7.352  -3.095  -0.564  0.00  0.00    +0.090 A 
ATOM     10  N   UNL     1      -6.065  -2.661  -0.634  0.00  0.00    -0.222 NA
ENDROOT
BRANCH   6  11
ATOM     11  N   UNL     1     -11.086  -4.870  -1.163  0.00  0.00    -0.358 N 
ATOM     12  H   UNL     1     -11.247  -5.415  -1.948  0.00  0.00    +0.142 HD
ATOM     13  H   UNL     1     -11.793  -4.734  -0.513  0.00  0.00    +0.142 HD
ENDBRANCH   6  11
BRANCH   1  14
ATOM     14  S   UNL     1      -3.845  -2.801  -2.223  0.00  0.00    -0.027 S 
BRANCH  14  19
ATOM     15  N   UNL     1      -1.372  -0.511   0.012  0.00  0.00    -0.309 N 
ATOM     16  C   UNL     1      -2.216  -0.200   1.038  0.00  0.00    +0.109 A 
ATOM     17  C   UNL     1      -3.484  -0.662   1.056  0.00  0.00    +0.130 A 
ATOM     18  N   UNL     1      -3.962  -1.436   0.083  0.00  0.00    -0.242 NA
ATOM     19  C   UNL     1      -3.205  -1.777  -0.939  0.00  0.00    +0.169 A 
ATOM     20  C   UNL     1      -1.823  -1.290  -0.997  0.00  0.00    +0.284 A 
ATOM     21  O   UNL     1      -1.096  -1.583  -1.931  0.00  0.00    -0.265 OA
BRANCH  15  23
ATOM     22  C   UNL     1      -0.019   1.526   0.010  0.00  0.00    +0.030 C 
ATOM     23  C   UNL     1       0.002  -0.004   0.002  0.00  0.00    +0.084 C 
ATOM     24  C   UNL     1       0.742  -0.511   1.242  0.00  0.00    +0.030 C 
ENDBRANCH  15  23
ENDBRANCH  14  19
ENDBRANCH   1  14
TORSDOF 4
