REMARK  Name = ZINC57335071
REMARK  9 active torsions:
REMARK  status: ('A' for Active; 'I' for Inactive)
REMARK    1  A    between atoms: C_1  and  C_2
REMARK    2  A    between atoms: C_2  and  C_3
REMARK    3  A    between atoms: N_8  and  C_11
REMARK    4  A    between atoms: C_11  and  C_12
REMARK    5  A    between atoms: N_14  and  C_15
REMARK    6  A    between atoms: C_17  and  C_24
REMARK    7  A    between atoms: C_20  and  O_21
REMARK    8  A    between atoms: O_21  and  C_22
REMARK    9  A    between atoms: C_27  and  C_32
REMARK                            x       y       z     vdW  Elec       q    Type
REMARK                         _______ _______ _______ _____ _____    ______ ____
ROOT
ATOM      1  C   UNL     1      -5.043  -8.062  -2.015  0.00  0.00    +0.078 A 
ATOM      2  C   UNL     1      -6.131  -7.449  -1.418  0.00  0.00    +0.037 A 
ATOM      3  C   UNL     1      -7.242  -8.209  -1.052  0.00  0.00    +0.012 A 
ATOM      4  C   UNL     1      -7.253  -9.584  -1.290  0.00  0.00    +0.034 A 
ATOM      5  C   UNL     1      -6.166 -10.191  -1.885  0.00  0.00    +0.085 A 
ATOM      6  C   UNL     1      -5.062  -9.435  -2.255  0.00  0.00    +0.159 A 
ATOM      7 CL   UNL     1      -6.182 -11.902  -2.179  0.00  0.00    -0.080 Cl
ENDROOT
BRANCH   3   8
ATOM      8  C   UNL     1      -8.406  -7.558  -0.413  0.00  0.00    +0.132 A 
ATOM      9  N   UNL     1      -9.525  -8.097   0.002  0.00  0.00    -0.156 NA
ATOM     10  N   UNL     1     -10.521  -7.326   0.586  0.00  0.00    -0.190 N 
ATOM     11  C   UNL     1     -11.780  -7.470   1.131  0.00  0.00    +0.153 A 
ATOM     12  N   UNL     1     -12.188  -6.294   1.519  0.00  0.00    -0.132 NA
ATOM     13  N   UNL     1     -11.289  -5.409   1.264  0.00  0.00    -0.120 NA
ATOM     14  C   UNL     1     -10.267  -5.982   0.703  0.00  0.00    +0.218 A 
ATOM     15  S   UNL     1      -8.644  -5.837  -0.001  0.00  0.00    -0.026 S 
ATOM     16  C   UNL     1     -12.550  -8.759   1.257  0.00  0.00    +0.090 C 
ENDBRANCH   3   8
BRANCH   1  19
ATOM     17  C   UNL     1      -3.547  -6.250  -1.632  0.00  0.00    +0.231 C 
ATOM     18  O   UNL     1      -4.221  -5.911  -0.681  0.00  0.00    -0.274 OA
ATOM     19  N   UNL     1      -3.925  -7.302  -2.385  0.00  0.00    -0.281 N 
ATOM     20  H   UNL     1      -3.423  -7.533  -3.182  0.00  0.00    +0.155 HD
BRANCH  17  21
ATOM     21  C   UNL     1      -2.288  -5.494  -1.971  0.00  0.00    +0.180 C 
BRANCH  21  27
ATOM     22  C   UNL     1      -1.447  -0.505  -0.010  0.00  0.00    +0.215 C 
ATOM     23  O   UNL     1      -2.384   0.265   0.005  0.00  0.00    -0.276 OA
ATOM     24  N   UNL     1      -1.666  -1.834  -0.012  0.00  0.00    -0.299 N 
ATOM     25  C   UNL     1      -0.544  -2.785  -0.024  0.00  0.00    +0.123 C 
ATOM     26  C   UNL     1      -0.771  -3.792  -1.157  0.00  0.00    +0.104 C 
ATOM     27  N   UNL     1      -2.099  -4.401  -1.008  0.00  0.00    -0.291 NA
ATOM     28  C   UNL     1      -3.164  -3.397  -1.135  0.00  0.00    +0.104 C 
ATOM     29  C   UNL     1      -3.035  -2.374   0.005  0.00  0.00    +0.123 C 
BRANCH  22  31
ATOM     30  C   UNL     1      -0.067   1.556  -0.022  0.00  0.00    +0.013 C 
ATOM     31  C   UNL     1      -0.036   0.026  -0.028  0.00  0.00    +0.092 C 
ENDBRANCH  22  31
ENDBRANCH  21  27
ENDBRANCH  17  21
ENDBRANCH   1  19
BRANCH   6  32
ATOM     32  O   UNL     1      -3.996 -10.036  -2.847  0.00  0.00    -0.492 OA
ATOM     33  C   UNL     1      -2.968 -10.529  -1.985  0.00  0.00    +0.277 C 
ENDBRANCH   6  32
TORSDOF 6
