REMARK  Name = ZINC63446115
REMARK  7 active torsions:
REMARK  status: ('A' for Active; 'I' for Inactive)
REMARK    1  A    between atoms: C_1  and  C_2
REMARK    2  A    between atoms: C_6  and  C_8
REMARK    3  A    between atoms: C_12  and  S_21
REMARK    4  A    between atoms: N_14  and  C_15
REMARK    5  A    between atoms: C_15  and  C_16
REMARK    6  A    between atoms: S_21  and  C_22
REMARK    7  A    between atoms: C_22  and  C_23
REMARK                            x       y       z     vdW  Elec       q    Type
REMARK                         _______ _______ _______ _____ _____    ______ ____
ROOT
ATOM      1  C   UNL     1       0.054  -2.845   2.489  0.00  0.00    +0.172 C 
ATOM      2  N   UNL     1      -0.690  -2.093   3.525  0.00  0.00    -0.233 NA
ATOM      3  N   UNL     1      -2.042  -2.675   3.502  0.00  0.00    -0.229 NA
ATOM      4  C   UNL     1      -1.781  -4.120   3.272  0.00  0.00    +0.200 C 
ATOM      5  N   UNL     1      -0.639  -4.139   2.327  0.00  0.00    -0.250 NA
ATOM      6  H   UNL     1      -0.263  -2.208   4.432  0.00  0.00    +0.143 HD
ATOM      7  H   UNL     1      -2.591  -2.283   2.751  0.00  0.00    +0.143 HD
ENDROOT
BRANCH   1  13
ATOM      8  C   UNL     1      -0.018   1.503   0.010  0.00  0.00    +0.044 C 
ATOM      9  C   UNL     1       0.002  -0.004   0.002  0.00  0.00    -0.050 A 
ATOM     10  C   UNL     1       0.006  -0.689  -1.199  0.00  0.00    +0.003 A 
ATOM     11  C   UNL     1       0.025  -2.071  -1.207  0.00  0.00    +0.001 A 
ATOM     12  C   UNL     1       0.040  -2.768  -0.013  0.00  0.00    +0.006 A 
ATOM     13  C   UNL     1       0.037  -2.084   1.188  0.00  0.00    -0.015 A 
ATOM     14  C   UNL     1       0.023  -0.702   1.195  0.00  0.00    +0.010 A 
ENDBRANCH   1  13
BRANCH   5  15
ATOM     15  C   UNL     1       0.265  -5.260   2.615  0.00  0.00    +0.163 C 
BRANCH  15  16
ATOM     16  C   UNL     1      -0.392  -6.554   2.207  0.00  0.00    +0.119 A 
ATOM     17  C   UNL     1      -0.297  -7.138   0.999  0.00  0.00    +0.046 A 
ATOM     18  C   UNL     1      -1.065  -8.324   1.056  0.00  0.00    +0.041 A 
ATOM     19  C   UNL     1      -1.583  -8.394   2.295  0.00  0.00    +0.195 A 
ATOM     20  O   UNL     1      -1.167  -7.322   2.990  0.00  0.00    -0.467 OA
ENDBRANCH  15  16
ENDBRANCH   5  15
BRANCH   4  21
ATOM     21  S   UNL     1      -3.234  -4.918   2.535  0.00  0.00    -0.121 S 
BRANCH  21  22
ATOM     22  C   UNL     1      -3.507  -3.997   0.997  0.00  0.00    +0.118 C 
BRANCH  22  23
ATOM     23  C   UNL     1      -4.721  -4.574   0.265  0.00  0.00    +0.184 C 
ATOM     24  N   UNL     1      -4.520  -6.006   0.010  0.00  0.00    -0.363 N 
ATOM     25  C   UNL     1      -5.472  -6.649   0.623  0.00  0.00    +0.060 A 
ATOM     26  C   UNL     1      -5.800  -8.076   0.738  0.00  0.00    +0.027 A 
ATOM     27  C   UNL     1      -6.874  -8.456   1.459  0.00  0.00    +0.002 A 
ATOM     28  C   UNL     1      -7.710  -7.535   2.116  0.00  0.00    +0.002 A 
ATOM     29  C   UNL     1      -7.498  -6.205   2.076  0.00  0.00    +0.027 A 
ATOM     30  C   UNL     1      -6.356  -5.675   1.320  0.00  0.00    +0.060 A 
ATOM     31  N   UNL     1      -5.917  -4.467   1.110  0.00  0.00    -0.363 N 
ATOM     32  H   UNL     1      -3.810  -6.401  -0.519  0.00  0.00    +0.162 HD
ATOM     33  H   UNL     1      -6.308  -3.647   1.450  0.00  0.00    +0.162 HD
ENDBRANCH  22  23
ENDBRANCH  21  22
ENDBRANCH   4  21
TORSDOF 6
