REMARK  Name = ZINC25925715
REMARK  8 active torsions:
REMARK  status: ('A' for Active; 'I' for Inactive)
REMARK    1  A    between atoms: C_1  and  C_2
REMARK    2  A    between atoms: C_2  and  C_3
REMARK    3  A    between atoms: C_2  and  N_4
REMARK    4  A    between atoms: C_5  and  C_7
REMARK    5  A    between atoms: C_12  and  N_13
REMARK    6  A    between atoms: C_14  and  C_16
REMARK    7  A    between atoms: C_16  and  N_17
REMARK    8  A    between atoms: C_26  and  C_28
REMARK                            x       y       z     vdW  Elec       q    Type
REMARK                         _______ _______ _______ _____ _____    ______ ____
ROOT
ATOM      1  N   UNL     1       2.978   0.948  -1.662  0.00  0.00    -0.286 N 
ATOM      2  C   UNL     1       1.991   1.597  -1.014  0.00  0.00    +0.201 C 
ATOM      3  O   UNL     1       1.416   2.519  -1.554  0.00  0.00    -0.278 OA
ATOM      4  H   UNL     1       3.446   0.063  -1.205  0.00  0.00    +0.155 HD
ENDROOT
BRANCH   1  10
ATOM      5  C   UNL     1       4.755   1.279  -3.275  0.00  0.00    +0.058 A 
ATOM      6  C   UNL     1       5.172   1.733  -4.529  0.00  0.00    +0.015 A 
ATOM      7  C   UNL     1       4.258   2.291  -5.396  0.00  0.00    +0.001 A 
ATOM      8  C   UNL     1       2.926   2.405  -5.032  0.00  0.00    +0.002 A 
ATOM      9  C   UNL     1       2.499   1.956  -3.798  0.00  0.00    +0.024 A 
ATOM     10  C   UNL     1       3.407   1.396  -2.909  0.00  0.00    +0.045 A 
BRANCH   5  12
ATOM     11  N   UNL     1       6.996   0.455  -2.742  0.00  0.00    -0.309 N 
ATOM     12  C   UNL     1       5.729   0.680  -2.342  0.00  0.00    +0.246 C 
ATOM     13  O   UNL     1       5.387   0.389  -1.212  0.00  0.00    -0.270 OA
ATOM     14  H   UNL     1       7.304   0.719  -3.765  0.00  0.00    +0.149 HD
BRANCH  11  16
ATOM     15  C   UNL     1       9.061  -0.849  -2.610  0.00  0.00    +0.027 C 
ATOM     16  C   UNL     1       7.962  -0.140  -1.816  0.00  0.00    +0.067 C 
ATOM     17  C   UNL     1       8.585   0.960  -0.953  0.00  0.00    +0.027 C 
ENDBRANCH  11  16
ENDBRANCH   5  12
ENDBRANCH   1  10
BRANCH   2  18
ATOM     18  C   UNL     1       1.601   1.178   0.380  0.00  0.00    +0.020 C 
BRANCH  18  19
ATOM     19  N   UNL     1       0.509   2.036   0.861  0.00  0.00    +0.396 N 
ATOM     20  C   UNL     1       0.998   3.381   1.177  0.00  0.00    -0.041 C 
ATOM     21  C   UNL     1      -0.108   4.221   1.760  0.00  0.00    -0.061 A 
ATOM     22  C   UNL     1       0.049   5.599   1.781  0.00  0.00    +0.002 A 
ATOM     23  C   UNL     1      -0.936   6.406   2.313  0.00  0.00    +0.000 A 
ATOM     24  C   UNL     1      -2.086   5.839   2.830  0.00  0.00    +0.000 A 
ATOM     25  C   UNL     1      -2.245   4.468   2.809  0.00  0.00    +0.004 A 
ATOM     26  C   UNL     1      -1.256   3.656   2.273  0.00  0.00    -0.047 A 
ATOM     27  C   UNL     1      -1.475   2.165   2.267  0.00  0.00    +0.029 C 
ATOM     28  C   UNL     1      -0.147   1.443   2.037  0.00  0.00    +0.024 C 
ATOM     29  H   UNL     1      -0.231   2.119   0.051  0.00  0.00    -0.080 HD
BRANCH  28  30
ATOM     30  C   UNL     1      -0.403  -0.021   1.790  0.00  0.00    +0.197 C 
ATOM     31  O   UNL     1      -0.675  -0.409   0.673  0.00  0.00    -0.278 OA
ATOM     32  N   UNL     1      -0.330  -0.900   2.809  0.00  0.00    -0.331 N 
ATOM     33  H   UNL     1      -0.517  -1.969   2.629  0.00  0.00    +0.145 HD
ATOM     34  H   UNL     1      -0.084  -0.548   3.822  0.00  0.00    +0.145 HD
ENDBRANCH  28  30
ENDBRANCH  18  19
ENDBRANCH   2  18
TORSDOF 6
