REMARK  Name = ZINC45699689
REMARK  8 active torsions:
REMARK  status: ('A' for Active; 'I' for Inactive)
REMARK    1  A    between atoms: C_3  and  C_6
REMARK    2  A    between atoms: C_6  and  C_8
REMARK    3  A    between atoms: C_6  and  N_24
REMARK    4  A    between atoms: C_8  and  N_9
REMARK    5  A    between atoms: N_12  and  C_13
REMARK    6  A    between atoms: C_16  and  O_19
REMARK    7  A    between atoms: O_19  and  C_20
REMARK    8  A    between atoms: C_20  and  C_21
REMARK                            x       y       z     vdW  Elec       q    Type
REMARK                         _______ _______ _______ _____ _____    ______ ____
ROOT
ATOM      1  N   UNL     1       5.798   2.324  -1.218  0.00  0.00    -0.300 N 
ATOM      2  C   UNL     1       6.556   2.474  -2.323  0.00  0.00    +0.304 C 
ATOM      3  O   UNL     1       6.106   2.177  -3.413  0.00  0.00    -0.253 OA
ATOM      4  N   UNL     1       7.811   2.954  -2.220  0.00  0.00    -0.269 N 
ATOM      5  H   UNL     1       6.157   2.561  -0.349  0.00  0.00    +0.150 HD
ATOM      6  H   UNL     1       8.145   3.257  -1.361  0.00  0.00    +0.156 HD
ENDROOT
BRANCH   4   7
ATOM      7  C   UNL     1       8.633   3.015  -3.353  0.00  0.00    +0.035 A 
ATOM      8  C   UNL     1       9.996   2.777  -3.235  0.00  0.00    +0.027 A 
ATOM      9  C   UNL     1      10.806   2.837  -4.352  0.00  0.00    +0.047 A 
ATOM     10  C   UNL     1      10.258   3.135  -5.591  0.00  0.00    +0.121 A 
ATOM     11  C   UNL     1       8.897   3.375  -5.709  0.00  0.00    +0.047 A 
ATOM     12  C   UNL     1       8.085   3.309  -4.594  0.00  0.00    +0.027 A 
BRANCH  10  13
ATOM     13  O   UNL     1      11.056   3.195  -6.691  0.00  0.00    -0.483 OA
BRANCH  13  14
ATOM     14  C   UNL     1      10.425   3.507  -7.934  0.00  0.00    +0.324 C 
BRANCH  14  15
ATOM     15  C   UNL     1      11.459   3.528  -9.030  0.00  0.00    +0.248 C 
ATOM     16  O   UNL     1      12.621   3.297  -8.773  0.00  0.00    -0.272 OA
ATOM     17  N   UNL     1      11.092   3.803 -10.298  0.00  0.00    -0.327 N 
ATOM     18  H   UNL     1      10.162   3.987 -10.504  0.00  0.00    +0.145 HD
ATOM     19  H   UNL     1      11.757   3.816 -11.004  0.00  0.00    +0.145 HD
ENDBRANCH  14  15
ENDBRANCH  13  14
ENDBRANCH  10  13
ENDBRANCH   4   7
BRANCH   1  20
ATOM     20  C   UNL     1       4.434   1.802  -1.331  0.00  0.00    +0.095 C 
BRANCH  20  21
ATOM     21  C   UNL     1       3.755   1.850   0.039  0.00  0.00    -0.013 C 
BRANCH  21  22
ATOM     22  N   UNL     1       2.428   1.225  -0.050  0.00  0.00    +0.386 N 
ATOM     23  C   UNL     1       2.564  -0.232  -0.304  0.00  0.00    -0.078 C 
ATOM     24  C   UNL     1       1.210  -0.805   0.183  0.00  0.00    -0.020 C 
ATOM     25  C   UNL     1       0.898   0.056   1.429  0.00  0.00    -0.020 C 
ATOM     26  C   UNL     1       1.721   1.344   1.244  0.00  0.00    -0.078 C 
ATOM     27  H   UNL     1       1.888   1.659  -0.783  0.00  0.00    -0.081 HD
ENDBRANCH  21  22
BRANCH  21  30
ATOM     28  C   UNL     1       4.043   5.316   1.593  0.00  0.00    +0.008 A 
ATOM     29  C   UNL     1       4.370   3.997   1.340  0.00  0.00    +0.009 A 
ATOM     30  C   UNL     1       3.607   3.284   0.476  0.00  0.00    -0.022 A 
ATOM     31  S   UNL     1       2.380   4.487  -0.010  0.00  0.00    -0.103 S 
ATOM     32  C   UNL     1       2.967   5.858   0.971  0.00  0.00    +0.045 A 
ENDBRANCH  21  30
ENDBRANCH  20  21
ENDBRANCH   1  20
TORSDOF 8
