REMARK  Name = ZINC39678937
REMARK  10 active torsions:
REMARK  status: ('A' for Active; 'I' for Inactive)
REMARK    1  A    between atoms: C_1  and  N_2
REMARK    2  A    between atoms: N_2  and  C_3
REMARK    3  A    between atoms: N_2  and  C_4
REMARK    4  A    between atoms: C_4  and  C_5
REMARK    5  A    between atoms: C_5  and  C_6
REMARK    6  A    between atoms: C_6  and  C_7
REMARK    7  A    between atoms: C_7  and  N_8
REMARK    8  A    between atoms: C_9  and  C_11
REMARK    9  A    between atoms: C_22  and  C_24
REMARK   10  A    between atoms: C_28  and  C_30
REMARK                            x       y       z     vdW  Elec       q    Type
REMARK                         _______ _______ _______ _____ _____    ______ ____
ROOT
ATOM      1  C   UNL     1      -6.484  -6.422  -0.284  0.00  0.00    +0.100 C 
ATOM      2  C   UNL     1      -6.975  -5.715  -1.566  0.00  0.00    +0.121 C 
ATOM      3  N   UNL     1      -6.808  -6.724  -2.639  0.00  0.00    -0.296 N 
ATOM      4  C   UNL     1      -7.211  -8.003  -2.007  0.00  0.00    +0.115 C 
ATOM      5  C   UNL     1      -6.643  -7.924  -0.576  0.00  0.00    -0.004 C 
ATOM      6  C   UNL     1      -5.288  -8.622  -0.507  0.00  0.00    -0.010 C 
ATOM      7  C   UNL     1      -5.480 -10.123  -0.745  0.00  0.00    -0.082 C 
ATOM      8  N   UNL     1      -6.386 -10.669   0.272  0.00  0.00    +0.379 N 
ATOM      9  C   UNL     1      -7.715 -10.058   0.140  0.00  0.00    -0.082 C 
ATOM     10  C   UNL     1      -7.617  -8.555   0.414  0.00  0.00    -0.010 C 
ATOM     11  C   UNL     1      -6.385  -6.524  -3.903  0.00  0.00    +0.247 C 
ATOM     12  O   UNL     1      -5.969  -5.432  -4.239  0.00  0.00    -0.270 OA
ATOM     13  H   UNL     1      -6.463 -11.668   0.151  0.00  0.00    -0.086 HD
ATOM     14  H   UNL     1      -6.017 -10.472   1.190  0.00  0.00    -0.086 HD
ENDROOT
BRANCH  11  15
ATOM     15  C   UNL     1      -6.428  -7.631  -4.880  0.00  0.00    +0.038 A 
ATOM     16  C   UNL     1      -7.275  -8.721  -4.667  0.00  0.00    +0.016 A 
ATOM     17  C   UNL     1      -7.311  -9.751  -5.582  0.00  0.00    +0.039 A 
ATOM     18  C   UNL     1      -6.508  -9.707  -6.712  0.00  0.00    +0.135 A 
ATOM     19  C   UNL     1      -5.666  -8.627  -6.928  0.00  0.00    +0.091 A 
ATOM     20  C   UNL     1      -5.626  -7.588  -6.022  0.00  0.00    +0.028 A 
ATOM     21  F   UNL     1      -6.547 -10.719  -7.605  0.00  0.00    -0.205 F 
BRANCH  19  22
ATOM     22  C   UNL     1      -4.796  -8.586  -8.158  0.00  0.00    +0.420 C 
ATOM     23  F   UNL     1      -4.041  -7.408  -8.156  0.00  0.00    -0.166 F 
ATOM     24  F   UNL     1      -3.938  -9.690  -8.159  0.00  0.00    -0.166 F 
ATOM     25  F   UNL     1      -5.603  -8.620  -9.301  0.00  0.00    -0.166 F 
ENDBRANCH  19  22
ENDBRANCH  11  15
BRANCH   1  27
ATOM     26  N   UNL     1      -4.540  -6.180   1.227  0.00  0.00    -0.315 N 
ATOM     27  C   UNL     1      -5.037  -6.089  -0.022  0.00  0.00    +0.218 C 
ATOM     28  O   UNL     1      -4.321  -5.739  -0.936  0.00  0.00    -0.275 OA
ATOM     29  H   UNL     1      -5.114  -6.460   1.958  0.00  0.00    +0.149 HD
BRANCH  26  30
ATOM     30  C   UNL     1      -3.135  -5.856   1.482  0.00  0.00    +0.104 C 
BRANCH  30  31
ATOM     31  C   UNL     1      -2.830  -6.040   2.970  0.00  0.00    +0.017 C 
BRANCH  31  32
ATOM     32  C   UNL     1      -1.362  -5.702   3.236  0.00  0.00    -0.017 C 
BRANCH  32  33
ATOM     33  C   UNL     1      -1.057  -5.886   4.724  0.00  0.00    -0.080 C 
BRANCH  33  35
ATOM     34  C   UNL     1       0.616  -5.622   6.423  0.00  0.00    -0.097 C 
ATOM     35  N   UNL     1       0.353  -5.561   4.979  0.00  0.00    +0.376 N 
ATOM     36  C   UNL     1       1.212  -6.529   4.284  0.00  0.00    -0.097 C 
ATOM     37  H   UNL     1       0.550  -4.632   4.639  0.00  0.00    -0.083 HD
ENDBRANCH  33  35
ENDBRANCH  32  33
ENDBRANCH  31  32
ENDBRANCH  30  31
ENDBRANCH  26  30
ENDBRANCH   1  27
TORSDOF 8
