REMARK  Name = ZINC34834651
REMARK  12 active torsions:
REMARK  status: ('A' for Active; 'I' for Inactive)
REMARK    1  A    between atoms: C_1  and  C_2
REMARK    2  A    between atoms: C_3  and  C_20
REMARK    3  A    between atoms: C_4  and  N_13
REMARK    4  A    between atoms: N_5  and  C_7
REMARK    5  A    between atoms: N_16  and  C_19
REMARK    6  A    between atoms: C_20  and  N_21
REMARK    7  A    between atoms: N_21  and  C_22
REMARK    8  A    between atoms: C_22  and  C_23
REMARK    9  A    between atoms: C_23  and  C_24
REMARK   10  A    between atoms: C_24  and  C_25
REMARK   11  A    between atoms: C_24  and  C_26
REMARK   12  A    between atoms: C_27  and  C_29
REMARK                            x       y       z     vdW  Elec       q    Type
REMARK                         _______ _______ _______ _____ _____    ______ ____
ROOT
ATOM      1  C   UNL     1       0.085   1.812  -1.692  0.00  0.00    +0.068 C 
ATOM      2  C   UNL     1      -0.010   0.325  -1.921  0.00  0.00    +0.067 A 
ATOM      3  C   UNL     1       0.553  -0.374  -2.993  0.00  0.00    +0.032 A 
ATOM      4  C   UNL     1       0.245  -1.692  -2.840  0.00  0.00    +0.130 A 
ATOM      5  N   UNL     1      -0.492  -1.809  -1.702  0.00  0.00    -0.218 N 
ATOM      6  N   UNL     1      -0.629  -0.530  -1.148  0.00  0.00    -0.170 NA
ENDROOT
BRANCH   4   7
ATOM      7  N   UNL     1       0.615  -2.728  -3.692  0.00  0.00    -0.318 N 
ATOM      8  C   UNL     1       1.774  -3.581  -3.386  0.00  0.00    +0.088 C 
ATOM      9  C   UNL     1       1.341  -5.046  -3.497  0.00  0.00    -0.060 C 
ATOM     10  N   UNL     1       0.747  -5.282  -4.819  0.00  0.00    +0.380 N 
ATOM     11  C   UNL     1      -0.484  -4.495  -4.961  0.00  0.00    -0.060 C 
ATOM     12  C   UNL     1      -0.145  -3.005  -4.921  0.00  0.00    +0.088 C 
ATOM     13  C   UNL     1       0.433  -6.710  -4.965  0.00  0.00    -0.096 C 
ATOM     14  H   UNL     1       1.404  -5.010  -5.535  0.00  0.00    -0.082 HD
ENDBRANCH   4   7
BRANCH   5  15
ATOM     15  C   UNL     1      -1.015  -2.998  -1.176  0.00  0.00    +0.067 A 
ATOM     16  C   UNL     1      -1.702  -3.880  -1.999  0.00  0.00    +0.028 A 
ATOM     17  C   UNL     1      -2.216  -5.051  -1.478  0.00  0.00    +0.002 A 
ATOM     18  C   UNL     1      -2.047  -5.345  -0.137  0.00  0.00    +0.000 A 
ATOM     19  C   UNL     1      -1.364  -4.469   0.685  0.00  0.00    +0.002 A 
ATOM     20  C   UNL     1      -0.842  -3.299   0.169  0.00  0.00    +0.028 A 
ENDBRANCH   5  15
BRANCH   3  21
ATOM     21  C   UNL     1       1.358   0.225  -4.117  0.00  0.00    +0.148 C 
BRANCH  21  22
ATOM     22  N   UNL     1       2.753   0.371  -3.695  0.00  0.00    -0.293 N 
ATOM     23  C   UNL     1       3.159   1.504  -3.088  0.00  0.00    +0.247 C 
ATOM     24  O   UNL     1       2.342   2.342  -2.759  0.00  0.00    -0.270 OA
BRANCH  23  25
ATOM     25  C   UNL     1       4.595   1.727  -2.824  0.00  0.00    +0.038 A 
ATOM     26  C   UNL     1       5.540   0.793  -3.253  0.00  0.00    +0.014 A 
ATOM     27  C   UNL     1       6.880   1.006  -3.003  0.00  0.00    +0.022 A 
ATOM     28  C   UNL     1       7.289   2.143  -2.327  0.00  0.00    +0.059 A 
ATOM     29  C   UNL     1       6.356   3.075  -1.898  0.00  0.00    +0.060 A 
ATOM     30  C   UNL     1       5.013   2.875  -2.148  0.00  0.00    +0.034 A 
ATOM     31 CL   UNL     1       6.878   4.497  -1.052  0.00  0.00    -0.082 Cl
ATOM     32 CL   UNL     1       8.977   2.404  -2.015  0.00  0.00    -0.082 Cl
ENDBRANCH  23  25
BRANCH  22  33
ATOM     33  C   UNL     1       3.708  -0.715  -3.933  0.00  0.00    +0.109 C 
BRANCH  33  34
ATOM     34  C   UNL     1       4.542  -0.398  -5.176  0.00  0.00    +0.022 C 
BRANCH  34  35
ATOM     35  C   UNL     1       5.359  -1.630  -5.569  0.00  0.00    -0.016 C 
ATOM     36  C   UNL     1       4.415  -2.748  -6.014  0.00  0.00    +0.007 C 
ATOM     37  C   UNL     1       6.302  -1.270  -6.719  0.00  0.00    +0.007 C 
ENDBRANCH  34  35
ENDBRANCH  33  34
ENDBRANCH  22  33
ENDBRANCH  21  22
ENDBRANCH   3  21
TORSDOF 8
