REMARK  Name = ZINC42028707
REMARK  5 active torsions:
REMARK  status: ('A' for Active; 'I' for Inactive)
REMARK    1  A    between atoms: C_1  and  C_2
REMARK    2  A    between atoms: C_2  and  C_4
REMARK    3  A    between atoms: C_2  and  N_10
REMARK    4  A    between atoms: C_11  and  C_15
REMARK    5  A    between atoms: C_19  and  N_21
REMARK                            x       y       z     vdW  Elec       q    Type
REMARK                         _______ _______ _______ _____ _____    ______ ____
ROOT
ATOM      1  N   UNL     1       0.599  -0.655   1.210  0.00  0.00    -0.220 N 
ATOM      2  C   UNL     1       1.776  -1.328   1.227  0.00  0.00    +0.182 A 
ATOM      3  N   UNL     1       2.198  -1.335   2.473  0.00  0.00    -0.108 NA
ATOM      4  N   UNL     1       1.369  -0.716   3.233  0.00  0.00    -0.023 NA
ATOM      5  N   UNL     1       0.376  -0.268   2.543  0.00  0.00    -0.043 NA
ENDROOT
BRANCH   2   6
ATOM      6  C   UNL     1       2.456  -1.940   0.063  0.00  0.00    +0.022 A 
ATOM      7  C   UNL     1       2.316  -1.375  -1.205  0.00  0.00    +0.013 A 
ATOM      8  C   UNL     1       2.951  -1.946  -2.289  0.00  0.00    +0.018 A 
ATOM      9  C   UNL     1       3.728  -3.078  -2.123  0.00  0.00    +0.039 A 
ATOM     10  C   UNL     1       3.874  -3.647  -0.863  0.00  0.00    +0.039 A 
ATOM     11  C   UNL     1       3.244  -3.077   0.232  0.00  0.00    +0.035 A 
ATOM     12 BR   UNL     1       4.595  -3.854  -3.614  0.00  0.00    -0.048 Br
BRANCH  10  13
ATOM     13  N   UNL     1       4.660  -4.791  -0.699  0.00  0.00    -0.357 N 
ATOM     14  H   UNL     1       5.105  -5.188  -1.464  0.00  0.00    +0.142 HD
ATOM     15  H   UNL     1       4.762  -5.188   0.180  0.00  0.00    +0.142 HD
ENDBRANCH  10  13
ENDBRANCH   2   6
BRANCH   1  17
ATOM     16  C   UNL     1      -0.230   1.115  -0.261  0.00  0.00    +0.035 C 
ATOM     17  C   UNL     1      -0.255  -0.383   0.051  0.00  0.00    +0.137 C 
BRANCH  17  18
ATOM     18  C   UNL     1      -1.689  -0.815   0.361  0.00  0.00    +0.143 C 
ATOM     19  C   UNL     1      -2.602  -0.568  -0.866  0.00  0.00    +0.036 C 
ATOM     20  C   UNL     1      -3.729  -1.605  -0.609  0.00  0.00    +0.031 C 
ATOM     21  C   UNL     1      -2.960  -2.768   0.054  0.00  0.00    +0.160 C 
ATOM     22  O   UNL     1      -1.744  -2.232   0.593  0.00  0.00    -0.374 OA
ENDBRANCH  17  18
ENDBRANCH   1  17
TORSDOF 4
