REMARK  Name = ZINC58171868
REMARK  10 active torsions:
REMARK  status: ('A' for Active; 'I' for Inactive)
REMARK    1  A    between atoms: C_1  and  C_2
REMARK    2  A    between atoms: N_5  and  C_8
REMARK    3  A    between atoms: C_8  and  C_10
REMARK    4  A    between atoms: C_8  and  C_26
REMARK    5  A    between atoms: C_10  and  N_11
REMARK    6  A    between atoms: N_14  and  C_15
REMARK    7  A    between atoms: C_15  and  C_16
REMARK    8  A    between atoms: C_16  and  C_17
REMARK    9  A    between atoms: C_20  and  S_22
REMARK   10  A    between atoms: S_22  and  N_25
REMARK                            x       y       z     vdW  Elec       q    Type
REMARK                         _______ _______ _______ _____ _____    ______ ____
ROOT
ATOM      1  N   UNL     1      -2.242  -5.869   1.705  0.00  0.00    -0.301 N 
ATOM      2  C   UNL     1      -3.428  -6.505   1.770  0.00  0.00    +0.300 C 
ATOM      3  O   UNL     1      -4.463  -5.867   1.742  0.00  0.00    -0.253 OA
ATOM      4  N   UNL     1      -3.467  -7.849   1.865  0.00  0.00    -0.299 N 
ATOM      5  H   UNL     1      -1.417  -6.378   1.727  0.00  0.00    +0.150 HD
ATOM      6  H   UNL     1      -2.642  -8.358   1.887  0.00  0.00    +0.150 HD
ENDROOT
BRANCH   1   7
ATOM      7  C   UNL     1      -2.199  -4.408   1.601  0.00  0.00    +0.095 C 
BRANCH   7   8
ATOM      8  C   UNL     1      -0.749  -3.951   1.434  0.00  0.00    -0.013 C 
BRANCH   8  13
ATOM      9  C   UNL     1      -0.050   1.431  -0.319  0.00  0.00    +0.007 C 
ATOM     10  C   UNL     1      -0.022  -0.097  -0.232  0.00  0.00    -0.018 C 
ATOM     11  C   UNL     1      -1.455  -0.633  -0.171  0.00  0.00    -0.015 C 
ATOM     12  C   UNL     1      -1.418  -2.153  -0.003  0.00  0.00    -0.078 C 
ATOM     13  N   UNL     1      -0.714  -2.495   1.238  0.00  0.00    +0.386 N 
ATOM     14  C   UNL     1       0.682  -2.047   1.158  0.00  0.00    -0.078 C 
ATOM     15  C   UNL     1       0.726  -0.523   1.035  0.00  0.00    -0.015 C 
ATOM     16  H   UNL     1      -1.167  -2.042   2.017  0.00  0.00    -0.081 HD
ENDBRANCH   8  13
BRANCH   8  17
ATOM     17  C   UNL     1       0.037  -4.311   2.669  0.00  0.00    -0.022 A 
ATOM     18  C   UNL     1       0.877  -5.355   2.872  0.00  0.00    +0.009 A 
ATOM     19  C   UNL     1       1.497  -5.487   4.100  0.00  0.00    +0.008 A 
ATOM     20  C   UNL     1       1.247  -4.569   5.065  0.00  0.00    +0.045 A 
ATOM     21  S   UNL     1       0.109  -3.467   4.241  0.00  0.00    -0.103 S 
ENDBRANCH   8  17
ENDBRANCH   7   8
ENDBRANCH   1   7
BRANCH   4  22
ATOM     22  C   UNL     1      -4.757  -8.541   1.936  0.00  0.00    +0.111 C 
BRANCH  22  23
ATOM     23  C   UNL     1      -4.521 -10.049   2.038  0.00  0.00    +0.061 C 
BRANCH  23  24
ATOM     24  C   UNL     1      -5.848 -10.761   2.111  0.00  0.00    -0.007 A 
ATOM     25  C   UNL     1      -6.614 -11.243   1.102  0.00  0.00    +0.013 A 
ATOM     26  C   UNL     1      -7.808 -11.868   1.407  0.00  0.00    +0.036 A 
ATOM     27  C   UNL     1      -8.178 -11.981   2.707  0.00  0.00    +0.142 A 
ATOM     28  S   UNL     1      -6.814 -11.195   3.548  0.00  0.00    -0.073 S 
BRANCH  27  29
ATOM     29  S   UNL     1      -9.625 -12.719   3.389  0.00  0.00    +0.062 S 
ATOM     30  O   UNL     1      -9.828 -12.116   4.659  0.00  0.00    -0.153 OA
ATOM     31  O   UNL     1     -10.613 -12.694   2.367  0.00  0.00    -0.153 OA
BRANCH  29  32
ATOM     32  N   UNL     1      -9.276 -14.313   3.671  0.00  0.00    -0.203 NA
ATOM     33  H   UNL     1      -8.397 -14.662   3.458  0.00  0.00    +0.144 HD
ATOM     34  H   UNL     1      -9.951 -14.897   4.050  0.00  0.00    +0.144 HD
ENDBRANCH  29  32
ENDBRANCH  27  29
ENDBRANCH  23  24
ENDBRANCH  22  23
ENDBRANCH   4  22
TORSDOF 9
