REMARK  Name = ZINC54412266
REMARK  12 active torsions:
REMARK  status: ('A' for Active; 'I' for Inactive)
REMARK    1  A    between atoms: C_1  and  C_2
REMARK    2  A    between atoms: C_2  and  C_3
REMARK    3  A    between atoms: N_5  and  C_6
REMARK    4  A    between atoms: C_9  and  C_30
REMARK    5  A    between atoms: C_10  and  N_12
REMARK    6  A    between atoms: N_15  and  C_16
REMARK    7  A    between atoms: C_16  and  C_17
REMARK    8  A    between atoms: C_17  and  C_18
REMARK    9  A    between atoms: C_17  and  C_19
REMARK   10  A    between atoms: C_17  and  N_20
REMARK   11  A    between atoms: C_22  and  C_29
REMARK   12  A    between atoms: C_25  and  C_28
REMARK                            x       y       z     vdW  Elec       q    Type
REMARK                         _______ _______ _______ _____ _____    ______ ____
ROOT
ATOM      1  N   UNL     1      -4.427  -5.739  -0.028  0.00  0.00    -0.269 N 
ATOM      2  C   UNL     1      -3.337  -6.507   0.167  0.00  0.00    +0.304 C 
ATOM      3  O   UNL     1      -2.232  -6.002   0.177  0.00  0.00    -0.253 OA
ATOM      4  N   UNL     1      -3.474  -7.835   0.352  0.00  0.00    -0.300 N 
ATOM      5  H   UNL     1      -5.304  -6.149  -0.098  0.00  0.00    +0.156 HD
ATOM      6  H   UNL     1      -4.356  -8.238   0.344  0.00  0.00    +0.150 HD
ENDROOT
BRANCH   1  11
ATOM      7  C   UNL     1      -3.035  -2.423  -0.816  0.00  0.00    +0.035 A 
ATOM      8  C   UNL     1      -4.040  -1.597  -0.328  0.00  0.00    +0.024 A 
ATOM      9  C   UNL     1      -5.165  -2.146   0.256  0.00  0.00    +0.007 A 
ATOM     10  C   UNL     1      -5.296  -3.518   0.356  0.00  0.00    -0.029 A 
ATOM     11  C   UNL     1      -4.295  -4.349  -0.130  0.00  0.00    +0.039 A 
ATOM     12  C   UNL     1      -3.166  -3.801  -0.722  0.00  0.00    +0.047 A 
ATOM     13  C   UNL     1      -6.525  -4.113   0.993  0.00  0.00    +0.045 C 
BRANCH   7  16
ATOM     14  C   UNL     1      -1.386  -0.712  -0.932  0.00  0.00    +0.217 C 
ATOM     15  O   UNL     1      -1.960  -0.115  -0.045  0.00  0.00    -0.275 OA
ATOM     16  N   UNL     1      -1.895  -1.866  -1.406  0.00  0.00    -0.285 N 
ATOM     17  H   UNL     1      -1.472  -2.311  -2.157  0.00  0.00    +0.155 HD
BRANCH  14  19
ATOM     18  C   UNL     1       0.250   1.146  -0.795  0.00  0.00    +0.013 C 
ATOM     19  C   UNL     1      -0.104  -0.163  -1.503  0.00  0.00    +0.093 C 
ENDBRANCH  14  19
ENDBRANCH   7  16
ENDBRANCH   1  11
BRANCH   4  20
ATOM     20  C   UNL     1      -2.289  -8.671   0.564  0.00  0.00    +0.093 C 
BRANCH  20  21
ATOM     21  C   UNL     1      -2.706 -10.142   0.625  0.00  0.00    -0.055 C 
ATOM     22  C   UNL     1      -3.262 -10.571  -0.735  0.00  0.00    -0.008 C 
ATOM     23  C   UNL     1      -1.491 -11.002   0.974  0.00  0.00    -0.008 C 
BRANCH  21  24
ATOM     24  N   UNL     1      -3.741 -10.315   1.653  0.00  0.00    +0.384 N 
ATOM     25  C   UNL     1      -3.244  -9.802   2.936  0.00  0.00    -0.075 C 
ATOM     26  C   UNL     1      -4.346  -9.906   3.992  0.00  0.00    -0.031 C 
ATOM     27  C   UNL     1      -4.756 -11.373   4.152  0.00  0.00    +0.003 C 
ATOM     28  C   UNL     1      -5.202 -11.918   2.792  0.00  0.00    -0.031 C 
ATOM     29  C   UNL     1      -4.068 -11.740   1.780  0.00  0.00    -0.075 C 
ATOM     30  C   UNL     1      -6.439 -11.154   2.315  0.00  0.00    +0.005 C 
ATOM     31  C   UNL     1      -3.826  -9.372   5.328  0.00  0.00    +0.005 C 
ATOM     32  H   UNL     1      -4.568  -9.803   1.387  0.00  0.00    -0.081 HD
ENDBRANCH  21  24
ENDBRANCH  20  21
ENDBRANCH   4  20
TORSDOF 6
