REMARK  Name = ZINC66402733
REMARK  9 active torsions:
REMARK  status: ('A' for Active; 'I' for Inactive)
REMARK    1  A    between atoms: C_1  and  C_2
REMARK    2  A    between atoms: N_5  and  C_8
REMARK    3  A    between atoms: C_8  and  C_10
REMARK    4  A    between atoms: C_8  and  C_27
REMARK    5  A    between atoms: C_10  and  N_11
REMARK    6  A    between atoms: N_14  and  C_15
REMARK    7  A    between atoms: C_17  and  C_23
REMARK    8  A    between atoms: C_27  and  C_28
REMARK    9  A    between atoms: C_27  and  C_29
REMARK                            x       y       z     vdW  Elec       q    Type
REMARK                         _______ _______ _______ _____ _____    ______ ____
ROOT
ATOM      1  N   UNL     1       1.992  -3.729   2.282  0.00  0.00    -0.301 N 
ATOM      2  C   UNL     1       2.505  -4.086   3.476  0.00  0.00    +0.304 C 
ATOM      3  O   UNL     1       3.615  -4.579   3.537  0.00  0.00    -0.253 OA
ATOM      4  N   UNL     1       1.789  -3.895   4.602  0.00  0.00    -0.265 N 
ATOM      5  H   UNL     1       1.106  -3.336   2.233  0.00  0.00    +0.150 HD
ATOM      6  H   UNL     1       0.876  -3.573   4.547  0.00  0.00    +0.157 HD
ENDROOT
BRANCH   4   7
ATOM      7  C   UNL     1       2.364  -4.163   5.852  0.00  0.00    +0.100 A 
ATOM      8  C   UNL     1       2.499  -3.166   6.780  0.00  0.00    +0.042 A 
ATOM      9  C   UNL     1       3.077  -3.461   8.023  0.00  0.00    +0.073 A 
ATOM     10  C   UNL     1       3.494  -4.719   8.294  0.00  0.00    +0.098 A 
ATOM     11  N   UNL     1       3.362  -5.710   7.373  0.00  0.00    -0.327 N 
ATOM     12  H   UNL     1       3.667  -6.606   7.586  0.00  0.00    +0.168 HD
ATOM     13  C   UNL     1       2.806  -5.465   6.171  0.00  0.00    +0.270 A 
ATOM     14  O   UNL     1       2.689  -6.367   5.357  0.00  0.00    -0.266 OA
BRANCH   9  15
ATOM     15  C   UNL     1       3.234  -2.376   9.056  0.00  0.00    +0.419 C 
ATOM     16  F   UNL     1       3.831  -2.908  10.204  0.00  0.00    -0.166 F 
ATOM     17  F   UNL     1       4.040  -1.355   8.542  0.00  0.00    -0.166 F 
ATOM     18  F   UNL     1       1.976  -1.858   9.383  0.00  0.00    -0.166 F 
ENDBRANCH   9  15
ENDBRANCH   4   7
BRANCH   1  19
ATOM     19  C   UNL     1       2.770  -3.936   1.058  0.00  0.00    +0.091 C 
BRANCH  19  20
ATOM     20  C   UNL     1       2.043  -3.291  -0.124  0.00  0.00    -0.048 C 
BRANCH  20  25
ATOM     21  C   UNL     1       2.748   2.153   1.423  0.00  0.00    +0.007 C 
ATOM     22  C   UNL     1       2.758   0.623   1.402  0.00  0.00    -0.018 C 
ATOM     23  C   UNL     1       1.321   0.102   1.308  0.00  0.00    -0.016 C 
ATOM     24  C   UNL     1       1.343  -1.425   1.207  0.00  0.00    -0.078 C 
ATOM     25  N   UNL     1       2.091  -1.829   0.011  0.00  0.00    +0.383 N 
ATOM     26  C   UNL     1       3.489  -1.395   0.128  0.00  0.00    -0.078 C 
ATOM     27  C   UNL     1       3.549   0.133   0.186  0.00  0.00    -0.016 C 
ATOM     28  H   UNL     1       1.675  -1.405  -0.804  0.00  0.00    -0.081 HD
ENDBRANCH  20  25
BRANCH  20  29
ATOM     29  C   UNL     1       2.725  -3.706  -1.429  0.00  0.00    -0.029 C 
ATOM     30  C   UNL     1       2.565  -5.214  -1.632  0.00  0.00    +0.005 C 
ATOM     31  C   UNL     1       2.079  -2.962  -2.600  0.00  0.00    +0.005 C 
ENDBRANCH  20  29
ENDBRANCH  19  20
ENDBRANCH   1  19
TORSDOF 6
