REMARK  Name = ZINC37161408
REMARK  8 active torsions:
REMARK  status: ('A' for Active; 'I' for Inactive)
REMARK    1  A    between atoms: C_1  and  C_2
REMARK    2  A    between atoms: C_2  and  C_3
REMARK    3  A    between atoms: C_2  and  C_4
REMARK    4  A    between atoms: C_4  and  C_5
REMARK    5  A    between atoms: C_5  and  C_7
REMARK    6  A    between atoms: C_5  and  N_11
REMARK    7  A    between atoms: N_9  and  C_10
REMARK    8  A    between atoms: N_11  and  C_12
REMARK                            x       y       z     vdW  Elec       q    Type
REMARK                         _______ _______ _______ _____ _____    ______ ____
ROOT
ATOM      1  N   UNL     1      -1.374  -0.255   2.840  0.00  0.00    -0.291 NA
ATOM      2  H   UNL     1      -1.643  -1.225   2.766  0.00  0.00    +0.124 HD
ENDROOT
BRANCH   1   3
ATOM      3  C   UNL     1      -2.261   0.600   2.041  0.00  0.00    +0.174 C 
ATOM      4  C   UNL     1      -3.674   0.064   2.062  0.00  0.00    -0.000 A 
ATOM      5  C   UNL     1      -4.231  -1.122   1.640  0.00  0.00    +0.008 A 
ATOM      6  C   UNL     1      -5.590  -1.339   1.792  0.00  0.00    +0.016 A 
ATOM      7  C   UNL     1      -6.383  -0.361   2.367  0.00  0.00    +0.020 A 
ATOM      8  C   UNL     1      -5.826   0.829   2.790  0.00  0.00    +0.039 A 
ATOM      9  C   UNL     1      -4.459   1.053   2.641  0.00  0.00    +0.040 A 
ATOM     10  N   UNL     1      -3.673   2.154   2.983  0.00  0.00    -0.284 N 
ATOM     11  C   UNL     1      -2.376   1.975   2.666  0.00  0.00    +0.239 C 
ATOM     12  O   UNL     1      -1.472   2.762   2.846  0.00  0.00    -0.273 OA
ATOM     13 BR   UNL     1      -8.239  -0.657   2.573  0.00  0.00    -0.050 Br
ATOM     14  H   UNL     1      -4.020   2.958   3.400  0.00  0.00    +0.155 HD
ENDBRANCH   1   3
BRANCH   1  15
ATOM     15  C   UNL     1       0.030  -0.068   2.450  0.00  0.00    +0.141 C 
BRANCH  15  16
ATOM     16  C   UNL     1       0.875   0.111   3.685  0.00  0.00    +0.230 C 
ATOM     17  O   UNL     1       0.515  -0.366   4.740  0.00  0.00    -0.274 OA
ATOM     18  N   UNL     1       2.031   0.801   3.616  0.00  0.00    -0.317 N 
ATOM     19  C   UNL     1       2.853   0.975   4.816  0.00  0.00    +0.128 C 
ATOM     20  H   UNL     1       2.319   1.182   2.772  0.00  0.00    +0.148 HD
ENDBRANCH  15  16
BRANCH  15  21
ATOM     21  C   UNL     1       0.512  -1.296   1.675  0.00  0.00    +0.031 C 
BRANCH  21  23
ATOM     22  C   UNL     1       0.089  -0.191  -0.525  0.00  0.00    +0.007 C 
ATOM     23  C   UNL     1      -0.251  -1.397   0.353  0.00  0.00    -0.015 C 
ATOM     24  C   UNL     1       0.152  -2.684  -0.371  0.00  0.00    +0.007 C 
ENDBRANCH  21  23
ENDBRANCH  15  21
ENDBRANCH   1  15
TORSDOF 5
