REMARK  Name = ZINC42122035
REMARK  10 active torsions:
REMARK  status: ('A' for Active; 'I' for Inactive)
REMARK    1  A    between atoms: C_1  and  C_2
REMARK    2  A    between atoms: C_2  and  C_3
REMARK    3  A    between atoms: C_2  and  N_4
REMARK    4  A    between atoms: C_5  and  C_7
REMARK    5  A    between atoms: C_12  and  N_13
REMARK    6  A    between atoms: C_14  and  C_16
REMARK    7  A    between atoms: C_16  and  N_17
REMARK    8  A    between atoms: N_20  and  C_23
REMARK    9  A    between atoms: C_23  and  C_24
REMARK   10  A    between atoms: C_24  and  O_25
REMARK                            x       y       z     vdW  Elec       q    Type
REMARK                         _______ _______ _______ _____ _____    ______ ____
ROOT
ATOM      1  N   UNL     1      -1.224  -0.768   4.790  0.00  0.00    -0.286 N 
ATOM      2  C   UNL     1      -1.864  -0.713   5.974  0.00  0.00    +0.201 C 
ATOM      3  O   UNL     1      -1.258  -0.930   7.002  0.00  0.00    -0.278 OA
ATOM      4  H   UNL     1      -1.693  -0.536   3.973  0.00  0.00    +0.155 HD
ENDROOT
BRANCH   1  10
ATOM      5  C   UNL     1       0.551  -2.038   3.737  0.00  0.00    +0.058 A 
ATOM      6  C   UNL     1       1.894  -2.418   3.692  0.00  0.00    +0.015 A 
ATOM      7  C   UNL     1       2.777  -1.932   4.632  0.00  0.00    +0.001 A 
ATOM      8  C   UNL     1       2.340  -1.067   5.622  0.00  0.00    +0.002 A 
ATOM      9  C   UNL     1       1.015  -0.683   5.679  0.00  0.00    +0.024 A 
ATOM     10  C   UNL     1       0.112  -1.159   4.737  0.00  0.00    +0.045 A 
BRANCH   5  12
ATOM     11  N   UNL     1       0.046  -3.303   1.705  0.00  0.00    -0.309 N 
ATOM     12  C   UNL     1      -0.400  -2.555   2.734  0.00  0.00    +0.246 C 
ATOM     13  O   UNL     1      -1.585  -2.305   2.835  0.00  0.00    -0.270 OA
ATOM     14  H   UNL     1       0.992  -3.502   1.625  0.00  0.00    +0.149 HD
BRANCH  11  16
ATOM     15  C   UNL     1      -1.138  -2.750  -0.362  0.00  0.00    +0.027 C 
ATOM     16  C   UNL     1      -0.898  -3.816   0.709  0.00  0.00    +0.067 C 
ATOM     17  C   UNL     1      -0.319  -5.073   0.057  0.00  0.00    +0.027 C 
ENDBRANCH  11  16
ENDBRANCH   5  12
ENDBRANCH   1  10
BRANCH   2  18
ATOM     18  C   UNL     1      -3.333  -0.381   6.022  0.00  0.00    +0.019 C 
BRANCH  18  19
ATOM     19  N   UNL     1      -3.791  -0.384   7.418  0.00  0.00    +0.387 N 
ATOM     20  C   UNL     1      -3.679  -1.742   7.967  0.00  0.00    -0.063 C 
ATOM     21  C   UNL     1      -4.137  -1.741   9.427  0.00  0.00    +0.066 C 
ATOM     22  N   UNL     1      -5.530  -1.278   9.500  0.00  0.00    -0.304 NA
ATOM     23  C   UNL     1      -5.662   0.071   8.931  0.00  0.00    +0.066 C 
ATOM     24  C   UNL     1      -5.191   0.055   7.475  0.00  0.00    -0.063 C 
ATOM     25  H   UNL     1      -3.218   0.246   7.961  0.00  0.00    -0.081 HD
BRANCH  22  26
ATOM     26  C   UNL     1      -6.027  -1.317  10.882  0.00  0.00    +0.112 C 
BRANCH  26  27
ATOM     27  C   UNL     1      -7.537  -1.071  10.889  0.00  0.00    +0.171 C 
BRANCH  27  28
ATOM     28  O   UNL     1      -8.197  -2.147  10.219  0.00  0.00    -0.394 OA
ATOM     29  H   UNL     1      -9.160  -2.057  10.185  0.00  0.00    +0.209 HD
ENDBRANCH  27  28
ENDBRANCH  26  27
ENDBRANCH  22  26
ENDBRANCH  18  19
ENDBRANCH   2  18
TORSDOF 8
