REMARK  Name = ZINC04614350
REMARK  8 active torsions:
REMARK  status: ('A' for Active; 'I' for Inactive)
REMARK    1  A    between atoms: C_1  and  C_2
REMARK    2  A    between atoms: C_2  and  O_3
REMARK    3  A    between atoms: O_3  and  C_4
REMARK    4  A    between atoms: C_4  and  C_6
REMARK    5  A    between atoms: C_6  and  C_31
REMARK    6  A    between atoms: C_11  and  C_28
REMARK    7  A    between atoms: C_14  and  C_25
REMARK    8  A    between atoms: C_16  and  C_18
REMARK                            x       y       z     vdW  Elec       q    Type
REMARK                         _______ _______ _______ _____ _____    ______ ____
ROOT
ATOM      1  C   UNL     1       4.945   4.188  -0.504  0.00  0.00    +0.184 C 
ATOM      2  C   UNL     1       3.626   3.516  -0.924  0.00  0.00    +0.128 C 
ATOM      3  C   UNL     1       2.446   4.405  -0.626  0.00  0.00    -0.002 C 
ATOM      4  C   UNL     1       1.302   3.845  -0.245  0.00  0.00    +0.012 C 
ATOM      5  C   UNL     1       1.173   2.380  -0.104  0.00  0.00    +0.050 C 
ATOM      6  C   UNL     1       2.313   1.615  -0.002  0.00  0.00    +0.084 C 
ATOM      7  N   UNL     1       3.487   2.312  -0.079  0.00  0.00    -0.314 N 
ATOM      8  C   UNL     1       4.732   2.087   0.657  0.00  0.00    +0.169 C 
ATOM      9  C   UNL     1       5.796   2.974  -0.036  0.00  0.00    +0.081 C 
ENDROOT
BRANCH   9  10
ATOM     10  C   UNL     1       6.858   3.406   0.942  0.00  0.00    -0.039 A 
ATOM     11  C   UNL     1       6.503   4.093   2.088  0.00  0.00    +0.004 A 
ATOM     12  C   UNL     1       7.476   4.489   2.987  0.00  0.00    +0.002 A 
ATOM     13  C   UNL     1       8.805   4.197   2.740  0.00  0.00    +0.020 A 
ATOM     14  C   UNL     1       9.160   3.510   1.593  0.00  0.00    +0.041 A 
ATOM     15  C   UNL     1       8.185   3.109   0.697  0.00  0.00    +0.024 A 
ATOM     16 CL   UNL     1      10.829   3.143   1.283  0.00  0.00    -0.084 Cl
ENDBRANCH   9  10
BRANCH   8  17
ATOM     17  C   UNL     1       4.567   2.498   2.097  0.00  0.00    +0.232 C 
ATOM     18  O   UNL     1       3.659   3.236   2.417  0.00  0.00    -0.274 OA
ATOM     19  N   UNL     1       5.428   2.046   3.030  0.00  0.00    -0.328 N 
ATOM     20  H   UNL     1       6.154   1.456   2.774  0.00  0.00    +0.145 HD
ATOM     21  H   UNL     1       5.322   2.311   3.957  0.00  0.00    +0.145 HD
ENDBRANCH   8  17
BRANCH   5  22
ATOM     22  C   UNL     1      -0.150   1.748  -0.080  0.00  0.00    +0.243 C 
ATOM     23  O   UNL     1      -0.246   0.540   0.032  0.00  0.00    -0.270 OA
ATOM     24  N   UNL     1      -1.260   2.506  -0.186  0.00  0.00    -0.325 N 
ATOM     25  H   UNL     1      -2.136   2.088  -0.174  0.00  0.00    +0.145 HD
ATOM     26  H   UNL     1      -1.184   3.469  -0.275  0.00  0.00    +0.145 HD
ENDBRANCH   5  22
BRANCH   1  27
ATOM     27  C   UNL     1       5.593   4.878  -1.677  0.00  0.00    +0.330 C 
ATOM     28  O   UNL     1       6.638   4.462  -2.121  0.00  0.00    -0.249 OA
BRANCH  27  29
ATOM     29  O   UNL     1       5.010   5.954  -2.229  0.00  0.00    -0.464 OA
BRANCH  29  31
ATOM     30  C   UNL     1       4.882   7.769  -3.847  0.00  0.00    +0.048 C 
ATOM     31  C   UNL     1       5.691   6.567  -3.356  0.00  0.00    +0.229 C 
ENDBRANCH  29  31
ENDBRANCH  27  29
ENDBRANCH   1  27
BRANCH   1  32
ATOM     32  C   UNL     1       4.724   5.132   0.604  0.00  0.00    +0.084 C 
ATOM     33  N   UNL     1       4.553   5.860   1.459  0.00  0.00    -0.195 NA
ENDBRANCH   1  32
TORSDOF 7
