REMARK  Name = ZINC19897210
REMARK  12 active torsions:
REMARK  status: ('A' for Active; 'I' for Inactive)
REMARK    1  A    between atoms: C_1  and  C_2
REMARK    2  A    between atoms: C_5  and  S_8
REMARK    3  A    between atoms: S_8  and  C_9
REMARK    4  A    between atoms: C_9  and  C_10
REMARK    5  A    between atoms: C_10  and  O_11
REMARK    6  A    between atoms: O_11  and  C_12
REMARK    7  A    between atoms: C_15  and  C_20
REMARK    8  A    between atoms: C_17  and  O_18
REMARK    9  A    between atoms: O_18  and  C_19
REMARK   10  A    between atoms: C_30  and  C_32
REMARK   11  A    between atoms: C_32  and  C_33
REMARK   12  A    between atoms: C_32  and  C_34
REMARK                            x       y       z     vdW  Elec       q    Type
REMARK                         _______ _______ _______ _____ _____    ______ ____
ROOT
ATOM      1  C   UNL     1       0.867  -8.358   3.132  0.00  0.00    +0.162 A 
ATOM      2  C   UNL     1       0.924  -9.417   2.233  0.00  0.00    +0.050 A 
ATOM      3  C   UNL     1       0.704 -10.705   2.666  0.00  0.00    +0.012 A 
ATOM      4  C   UNL     1       0.421 -10.951   4.017  0.00  0.00    -0.021 A 
ATOM      5  C   UNL     1       0.363  -9.881   4.922  0.00  0.00    +0.057 A 
ATOM      6  C   UNL     1       0.591  -8.595   4.479  0.00  0.00    +0.162 A 
ENDROOT
BRANCH   4   7
ATOM      7  C   UNL     1       0.185 -12.320   4.481  0.00  0.00    +0.024 C 
ATOM      8  C   UNL     1      -0.487 -13.213   3.677  0.00  0.00    +0.079 C 
ATOM      9  C   UNL     1      -0.591 -14.658   4.026  0.00  0.00    +0.132 C 
ATOM     10  N   UNL     1      -0.656 -15.097   5.254  0.00  0.00    -0.385 N 
ATOM     11  N   UNL     1      -0.612 -15.506   2.897  0.00  0.00    -0.154 N 
ATOM     12  C   UNL     1      -1.027 -14.962   1.700  0.00  0.00    +0.181 C 
ATOM     13  N   UNL     1      -1.321 -13.711   1.451  0.00  0.00    -0.152 NA
ATOM     14  C   UNL     1      -1.153 -12.787   2.421  0.00  0.00    +0.273 C 
ATOM     15  O   UNL     1      -1.531 -11.637   2.269  0.00  0.00    -0.268 OA
ATOM     16  S   UNL     1      -1.027 -16.376   0.630  0.00  0.00    -0.038 S 
ATOM     17  C   UNL     1      -0.386 -17.560   1.806  0.00  0.00    +0.102 C 
ATOM     18  N   UNL     1      -0.265 -16.840   2.885  0.00  0.00    -0.169 NA
ATOM     19  H   UNL     1      -0.638 -14.471   5.995  0.00  0.00    +0.157 HD
ATOM     20  H   UNL     1      -0.723 -16.050   5.426  0.00  0.00    +0.157 HD
BRANCH  17  21
ATOM     21  C   UNL     1      -0.068 -19.019   1.602  0.00  0.00    +0.040 C 
ATOM     22  C   UNL     1       1.345 -19.158   1.031  0.00  0.00    +0.014 C 
ATOM     23  C   UNL     1      -0.150 -19.751   2.943  0.00  0.00    +0.014 C 
ENDBRANCH  17  21
ENDBRANCH   4   7
BRANCH   6  24
ATOM     24  O   UNL     1       0.542  -7.555   5.355  0.00  0.00    -0.491 OA
ATOM     25  C   UNL     1       0.254  -7.870   6.719  0.00  0.00    +0.277 C 
ENDBRANCH   6  24
BRANCH   1  26
ATOM     26  O   UNL     1       1.085  -7.090   2.698  0.00  0.00    -0.487 OA
BRANCH  26  27
ATOM     27  C   UNL     1       1.362  -6.919   1.307  0.00  0.00    +0.240 C 
BRANCH  27  28
ATOM     28  C   UNL     1       1.579  -5.434   1.009  0.00  0.00    +0.115 C 
BRANCH  28  29
ATOM     29  S   UNL     1       1.931  -5.217  -0.757  0.00  0.00    -0.122 S 
BRANCH  29  34
ATOM     30  C   UNL     1       2.691   0.739  -1.373  0.00  0.00    +0.044 C 
ATOM     31  C   UNL     1       2.502  -0.748  -1.219  0.00  0.00    -0.050 A 
ATOM     32  C   UNL     1       2.617  -1.575  -2.321  0.00  0.00    +0.004 A 
ATOM     33  C   UNL     1       2.444  -2.939  -2.184  0.00  0.00    +0.015 A 
ATOM     34  C   UNL     1       2.153  -3.478  -0.937  0.00  0.00    +0.008 A 
ATOM     35  C   UNL     1       2.039  -2.644   0.168  0.00  0.00    +0.015 A 
ATOM     36  C   UNL     1       2.218  -1.282   0.024  0.00  0.00    +0.004 A 
ENDBRANCH  29  34
ENDBRANCH  28  29
ENDBRANCH  27  28
ENDBRANCH  26  27
ENDBRANCH   1  26
TORSDOF 8
