REMARK  Name = ZINC15946790
REMARK  10 active torsions:
REMARK  status: ('A' for Active; 'I' for Inactive)
REMARK    1  A    between atoms: C_1  and  C_2
REMARK    2  A    between atoms: C_8  and  C_9
REMARK    3  A    between atoms: C_8  and  N_70
REMARK    4  A    between atoms: N_11  and  C_12
REMARK    5  A    between atoms: C_13  and  C_26
REMARK    6  A    between atoms: C_18  and  C_22
REMARK    7  A    between atoms: C_22  and  C_23
REMARK    8  A    between atoms: C_22  and  C_24
REMARK    9  A    between atoms: C_22  and  C_25
REMARK   10  A    between atoms: N_28  and  C_29
REMARK                            x       y       z     vdW  Elec       q    Type
REMARK                         _______ _______ _______ _____ _____    ______ ____
ROOT
ATOM      1  C   UNL     1      -1.316   5.311   2.091  0.00  0.00    +0.084 A 
ATOM      2  C   UNL     1      -1.181   3.949   2.319  0.00  0.00    +0.069 A 
ATOM      3  C   UNL     1      -0.912   3.099   1.171  0.00  0.00    -0.023 A 
ATOM      4  C   UNL     1      -0.823   3.744  -0.013  0.00  0.00    -0.004 A 
ATOM      5  S   UNL     1      -1.089   5.449   0.379  0.00  0.00    -0.077 S 
ATOM      6  C   UNL     1      -0.557   3.135  -1.355  0.00  0.00    +0.046 C 
ATOM      7  C   UNL     1      -0.770   1.617  -1.248  0.00  0.00    -0.000 C 
ATOM      8  C   UNL     1      -0.031   1.102  -0.010  0.00  0.00    +0.009 C 
ATOM      9  C   UNL     1      -0.738   1.588   1.256  0.00  0.00    +0.037 C 
ENDROOT
BRANCH   1  12
ATOM     10  C   UNL     1      -1.670   7.597   2.599  0.00  0.00    +0.201 C 
ATOM     11  O   UNL     1      -1.536   7.868   1.425  0.00  0.00    -0.278 OA
ATOM     12  N   UNL     1      -1.571   6.317   3.011  0.00  0.00    -0.281 N 
ATOM     13  H   UNL     1      -1.677   6.100   3.950  0.00  0.00    +0.155 HD
BRANCH  10  14
ATOM     14  C   UNL     1      -1.946   8.690   3.599  0.00  0.00    +0.019 C 
BRANCH  14  21
ATOM     15  C   UNL     1       0.423  10.144   3.162  0.00  0.00    -0.013 C 
ATOM     16  C   UNL     1      -0.754  10.257   2.190  0.00  0.00    -0.071 C 
ATOM     17  C   UNL     1      -0.797  11.669   1.603  0.00  0.00    -0.016 C 
ATOM     18  C   UNL     1      -1.987  11.783   0.646  0.00  0.00    -0.003 C 
ATOM     19  C   UNL     1      -3.275  11.447   1.404  0.00  0.00    -0.019 C 
ATOM     20  C   UNL     1      -3.159  10.040   1.997  0.00  0.00    -0.078 C 
ATOM     21  N   UNL     1      -2.010  10.004   2.927  0.00  0.00    +0.387 N 
ATOM     22  H   UNL     1      -2.133  10.736   3.636  0.00  0.00    -0.081 HD
ENDBRANCH  14  21
ENDBRANCH  10  14
ENDBRANCH   1  12
BRANCH   7  23
ATOM     23  C   UNL     1      -0.217   0.930  -2.499  0.00  0.00    -0.035 C 
ATOM     24  C   UNL     1      -0.418  -0.582  -2.380  0.00  0.00    +0.011 C 
ATOM     25  C   UNL     1      -0.957   1.447  -3.734  0.00  0.00    +0.011 C 
ATOM     26  C   UNL     1       1.276   1.238  -2.632  0.00  0.00    +0.011 C 
ENDBRANCH   7  23
BRANCH   2  27
ATOM     27  C   UNL     1      -1.304   3.387   3.667  0.00  0.00    +0.251 C 
ATOM     28  O   UNL     1      -0.319   3.282   4.375  0.00  0.00    -0.270 OA
ATOM     29  N   UNL     1      -2.507   2.987   4.124  0.00  0.00    -0.281 N 
ATOM     30  H   UNL     1      -3.302   3.132   3.587  0.00  0.00    +0.155 HD
BRANCH  29  31
ATOM     31  C   UNL     1      -2.610   2.364   5.372  0.00  0.00    +0.034 A 
ATOM     32  C   UNL     1      -3.547   1.358   5.571  0.00  0.00    +0.025 A 
ATOM     33  C   UNL     1      -3.643   0.740   6.803  0.00  0.00    +0.022 A 
ATOM     34  C   UNL     1      -2.814   1.129   7.840  0.00  0.00    +0.041 A 
ATOM     35  C   UNL     1      -1.884   2.135   7.646  0.00  0.00    +0.022 A 
ATOM     36  C   UNL     1      -1.780   2.752   6.415  0.00  0.00    +0.025 A 
ATOM     37 CL   UNL     1      -2.942   0.355   9.389  0.00  0.00    -0.084 Cl
ENDBRANCH  29  31
ENDBRANCH   2  27
TORSDOF 6
