REMARK  Name = ZINC43675164
REMARK  4 active torsions:
REMARK  status: ('A' for Active; 'I' for Inactive)
REMARK    1  A    between atoms: C_4  and  C_7
REMARK    2  A    between atoms: C_7  and  N_8
REMARK    3  A    between atoms: N_8  and  C_9
REMARK    4  A    between atoms: C_12  and  C_15
REMARK                            x       y       z     vdW  Elec       q    Type
REMARK                         _______ _______ _______ _____ _____    ______ ____
ROOT
ATOM      1  C   UNL     1       1.834  -4.041  -1.424  0.00  0.00    -0.071 C 
ATOM      2  C   UNL     1       3.219  -4.300  -0.830  0.00  0.00    -0.015 C 
ATOM      3  C   UNL     1       3.506  -5.803  -0.841  0.00  0.00    +0.011 C 
ATOM      4  C   UNL     1       3.465  -6.319  -2.281  0.00  0.00    +0.075 C 
ATOM      5  C   UNL     1       2.079  -6.059  -2.876  0.00  0.00    +0.011 C 
ATOM      6  C   UNL     1       1.792  -4.557  -2.864  0.00  0.00    -0.015 C 
ENDROOT
BRANCH   4   7
ATOM      7  C   UNL     1       3.747  -7.799  -2.293  0.00  0.00    +0.214 C 
ATOM      8  O   UNL     1       3.961  -8.383  -1.252  0.00  0.00    -0.276 OA
ATOM      9  N   UNL     1       3.763  -8.473  -3.460  0.00  0.00    -0.329 N 
ATOM     10  H   UNL     1       3.592  -8.005  -4.292  0.00  0.00    +0.145 HD
ATOM     11  H   UNL     1       3.945  -9.426  -3.467  0.00  0.00    +0.145 HD
ENDBRANCH   4   7
BRANCH   1  12
ATOM     12  N   UNL     1       1.558  -2.598  -1.413  0.00  0.00    +0.384 N 
ATOM     13  H   UNL     1       0.681  -2.419  -1.879  0.00  0.00    -0.085 HD
ATOM     14  H   UNL     1       2.299  -2.110  -1.893  0.00  0.00    -0.085 HD
BRANCH  12  15
ATOM     15  C   UNL     1       1.480  -2.125  -0.024  0.00  0.00    -0.038 C 
BRANCH  15  19
ATOM     16  C   UNL     1      -0.017   1.379   0.010  0.00  0.00    +0.023 A 
ATOM     17  C   UNL     1       1.160   2.052   0.002  0.00  0.00    +0.046 A 
ATOM     18  S   UNL     1       2.348   0.720  -0.017  0.00  0.00    -0.102 S 
ATOM     19  C   UNL     1       1.197  -0.645  -0.013  0.00  0.00    -0.013 A 
ATOM     20  C   UNL     1       0.002  -0.004   0.002  0.00  0.00    +0.026 A 
ATOM     21 BR   UNL     1      -1.614  -0.986   0.013  0.00  0.00    -0.050 Br
ENDBRANCH  15  19
ENDBRANCH  12  15
ENDBRANCH   1  12
TORSDOF 4
