REMARK  Name = ZINC31036976
REMARK  12 active torsions:
REMARK  status: ('A' for Active; 'I' for Inactive)
REMARK    1  A    between atoms: C_1  and  C_2
REMARK    2  A    between atoms: C_2  and  C_4
REMARK    3  A    between atoms: C_2  and  N_20
REMARK    4  A    between atoms: N_6  and  C_7
REMARK    5  A    between atoms: C_7  and  C_8
REMARK    6  A    between atoms: N_10  and  C_11
REMARK    7  A    between atoms: N_20  and  C_21
REMARK    8  A    between atoms: N_20  and  C_22
REMARK    9  A    between atoms: C_22  and  C_23
REMARK   10  A    between atoms: N_25  and  C_26
REMARK   11  A    between atoms: C_31  and  S_32
REMARK   12  A    between atoms: S_32  and  C_33
REMARK                            x       y       z     vdW  Elec       q    Type
REMARK                         _______ _______ _______ _____ _____    ______ ____
ROOT
ATOM      1  C   UNL     1       5.982   7.330   1.666  0.00  0.00    -0.004 C 
ATOM      2  C   UNL     1       5.265   8.028   0.509  0.00  0.00    +0.016 C 
ENDROOT
BRANCH   2   3
ATOM      3  C   UNL     1       3.851   7.515   0.411  0.00  0.00    +0.200 C 
ATOM      4  O   UNL     1       2.920   8.291   0.453  0.00  0.00    -0.278 OA
ATOM      5  N   UNL     1       3.621   6.194   0.278  0.00  0.00    -0.308 N 
ATOM      6  H   UNL     1       4.466   5.489   0.240  0.00  0.00    +0.149 HD
BRANCH   5   7
ATOM      7  C   UNL     1       2.247   5.695   0.183  0.00  0.00    +0.200 C 
BRANCH   7   8
ATOM      8  C   UNL     1       2.265   4.195   0.041  0.00  0.00    +0.234 C 
ATOM      9  O   UNL     1       3.323   3.601   0.021  0.00  0.00    -0.274 OA
ATOM     10  N   UNL     1       1.107   3.514  -0.063  0.00  0.00    -0.282 N 
ATOM     11  H   UNL     1       0.155   4.058  -0.145  0.00  0.00    +0.155 HD
BRANCH  10  12
ATOM     12  C   UNL     1       1.117   2.112  -0.068  0.00  0.00    +0.072 A 
ATOM     13  C   UNL     1       2.166   1.422   0.524  0.00  0.00    +0.029 A 
ATOM     14  C   UNL     1       2.174   0.041   0.519  0.00  0.00    +0.043 A 
ATOM     15  C   UNL     1       1.139  -0.658  -0.077  0.00  0.00    +0.161 A 
ATOM     16  C   UNL     1       0.089   0.027  -0.670  0.00  0.00    +0.195 A 
ATOM     17  C   UNL     1       0.076   1.411  -0.667  0.00  0.00    +0.182 A 
ATOM     18  F   UNL     1      -0.943   2.080  -1.249  0.00  0.00    -0.200 F 
ATOM     19  F   UNL     1      -0.921  -0.657  -1.252  0.00  0.00    -0.199 F 
ATOM     20  F   UNL     1       1.151  -2.009  -0.081  0.00  0.00    -0.202 F 
ENDBRANCH  10  12
ENDBRANCH   7   8
ENDBRANCH   5   7
ENDBRANCH   2   3
BRANCH   2  21
ATOM     21  N   UNL     1       5.245   9.477   0.748  0.00  0.00    +0.391 N 
ATOM     22  C   UNL     1       6.590  10.052   0.614  0.00  0.00    -0.094 C 
ATOM     23  H   UNL     1       4.603   9.937  -0.018  0.00  0.00    -0.080 HD
BRANCH  21  24
ATOM     24  C   UNL     1       4.669   9.786   2.063  0.00  0.00    +0.020 C 
BRANCH  24  25
ATOM     25  C   UNL     1       4.438  11.271   2.175  0.00  0.00    +0.201 C 
ATOM     26  O   UNL     1       4.724  12.000   1.249  0.00  0.00    -0.278 OA
ATOM     27  N   UNL     1       3.913  11.788   3.303  0.00  0.00    -0.286 N 
ATOM     28  H   UNL     1       3.736  11.141   4.175  0.00  0.00    +0.155 HD
BRANCH  27  29
ATOM     29  C   UNL     1       3.591  13.151   3.365  0.00  0.00    +0.047 A 
ATOM     30  C   UNL     1       3.124  13.807   2.237  0.00  0.00    +0.024 A 
ATOM     31  C   UNL     1       2.802  15.150   2.303  0.00  0.00    +0.002 A 
ATOM     32  C   UNL     1       2.956  15.846   3.488  0.00  0.00    +0.001 A 
ATOM     33  C   UNL     1       3.427  15.201   4.616  0.00  0.00    +0.016 A 
ATOM     34  C   UNL     1       3.747  13.852   4.561  0.00  0.00    +0.029 A 
BRANCH  34  35
ATOM     35  S   UNL     1       4.348  13.027   5.998  0.00  0.00    -0.127 S 
ATOM     36  C   UNL     1       4.376  14.322   7.268  0.00  0.00    +0.090 C 
ENDBRANCH  34  35
ENDBRANCH  27  29
ENDBRANCH  24  25
ENDBRANCH  21  24
ENDBRANCH   2  21
TORSDOF 9
