REMARK  Name = ZINC38755554
REMARK  10 active torsions:
REMARK  status: ('A' for Active; 'I' for Inactive)
REMARK    1  A    between atoms: C_1  and  C_2
REMARK    2  A    between atoms: C_5  and  C_8
REMARK    3  A    between atoms: C_8  and  C_10
REMARK    4  A    between atoms: C_8  and  N_16
REMARK    5  A    between atoms: C_17  and  C_19
REMARK    6  A    between atoms: C_19  and  N_20
REMARK    7  A    between atoms: N_20  and  C_21
REMARK    8  A    between atoms: N_20  and  S_29
REMARK    9  A    between atoms: C_26  and  C_27
REMARK   10  A    between atoms: S_29  and  C_32
REMARK                            x       y       z     vdW  Elec       q    Type
REMARK                         _______ _______ _______ _____ _____    ______ ____
ROOT
ATOM      1  N   UNL     1      -0.070  -6.287   1.038  0.00  0.00    -0.303 N 
ATOM      2  C   UNL     1      -1.085  -7.150   0.827  0.00  0.00    +0.233 C 
ATOM      3  O   UNL     1      -1.175  -7.732  -0.233  0.00  0.00    -0.274 OA
ATOM      4  H   UNL     1       0.002  -5.822   1.885  0.00  0.00    +0.150 HD
ENDROOT
BRANCH   1   5
ATOM      5  C   UNL     1       0.922  -6.053  -0.014  0.00  0.00    +0.134 C 
BRANCH   5  10
ATOM      6  C   UNL     1       3.296  -0.834   0.708  0.00  0.00    +0.044 C 
ATOM      7  C   UNL     1       2.677  -2.195   0.519  0.00  0.00    -0.050 A 
ATOM      8  C   UNL     1       2.374  -2.647  -0.751  0.00  0.00    +0.004 A 
ATOM      9  C   UNL     1       1.807  -3.896  -0.924  0.00  0.00    +0.006 A 
ATOM     10  C   UNL     1       1.542  -4.693   0.174  0.00  0.00    -0.023 A 
ATOM     11  C   UNL     1       1.845  -4.241   1.445  0.00  0.00    +0.006 A 
ATOM     12  C   UNL     1       2.417  -2.994   1.617  0.00  0.00    +0.004 A 
ENDBRANCH   5  10
BRANCH   5  13
ATOM     13  C   UNL     1       1.995  -7.109   0.064  0.00  0.00    -0.023 A 
ATOM     14  C   UNL     1       2.458  -7.534   1.295  0.00  0.00    +0.006 A 
ATOM     15  C   UNL     1       3.442  -8.502   1.366  0.00  0.00    +0.000 A 
ATOM     16  C   UNL     1       3.963  -9.046   0.206  0.00  0.00    +0.000 A 
ATOM     17  C   UNL     1       3.499  -8.621  -1.025  0.00  0.00    +0.000 A 
ATOM     18  C   UNL     1       2.512  -7.656  -1.096  0.00  0.00    +0.006 A 
ENDBRANCH   5  13
ENDBRANCH   1   5
BRANCH   2  19
ATOM     19  C   UNL     1      -2.106  -7.391   1.909  0.00  0.00    +0.226 C 
BRANCH  19  20
ATOM     20  N   UNL     1      -3.019  -8.456   1.489  0.00  0.00    -0.199 N 
BRANCH  20  21
ATOM     21  C   UNL     1      -2.684  -9.793   1.715  0.00  0.00    +0.056 A 
ATOM     22  C   UNL     1      -1.900 -10.479   0.796  0.00  0.00    +0.025 A 
ATOM     23  C   UNL     1      -1.569 -11.801   1.023  0.00  0.00    +0.003 A 
ATOM     24  C   UNL     1      -2.019 -12.442   2.163  0.00  0.00    +0.020 A 
ATOM     25  C   UNL     1      -2.800 -11.762   3.080  0.00  0.00    +0.046 A 
ATOM     26  C   UNL     1      -3.130 -10.438   2.862  0.00  0.00    -0.010 A 
ATOM     27  C   UNL     1      -3.975  -9.695   3.865  0.00  0.00    +0.047 C 
ATOM     28 CL   UNL     1      -3.362 -12.572   4.509  0.00  0.00    -0.083 Cl
ENDBRANCH  20  21
BRANCH  20  29
ATOM     29  S   UNL     1      -4.450  -8.075   0.747  0.00  0.00    +0.043 S 
ATOM     30  O   UNL     1      -5.270  -9.221   0.930  0.00  0.00    -0.155 OA
ATOM     31  O   UNL     1      -4.824  -6.821   1.301  0.00  0.00    -0.155 OA
ATOM     32  C   UNL     1      -4.028  -7.883  -1.007  0.00  0.00    +0.218 C 
ENDBRANCH  20  29
ENDBRANCH  19  20
ENDBRANCH   2  19
TORSDOF 7
