REMARK  Name = ZINC30903914
REMARK  2 active torsions:
REMARK  status: ('A' for Active; 'I' for Inactive)
REMARK    1  A    between atoms: N_12  and  C_15
REMARK    2  A    between atoms: N_20  and  C_23
REMARK                            x       y       z     vdW  Elec       q    Type
REMARK                         _______ _______ _______ _____ _____    ______ ____
ROOT
ATOM      1  C   UNL     1       0.833   1.803   1.230  0.00  0.00    +0.001 A 
ATOM      2  C   UNL     1       2.083   2.389   1.084  0.00  0.00    +0.002 A 
ATOM      3  C   UNL     1       3.194   1.617   0.823  0.00  0.00    +0.026 A 
ATOM      4  C   UNL     1       3.066   0.238   0.705  0.00  0.00    +0.047 A 
ATOM      5  C   UNL     1       1.796  -0.354   0.854  0.00  0.00    +0.003 A 
ATOM      6  C   UNL     1       0.684   0.450   1.118  0.00  0.00    +0.010 A 
ATOM      7  C   UNL     1       2.001  -1.785   0.674  0.00  0.00    -0.017 A 
ATOM      8  C   UNL     1       3.315  -1.978   0.438  0.00  0.00    +0.034 A 
ATOM      9  N   UNL     1       3.963  -0.778   0.453  0.00  0.00    -0.357 N 
ATOM     10  H   UNL     1       4.915  -0.657   0.308  0.00  0.00    +0.166 HD
ATOM     11  C   UNL     1       3.915  -3.345   0.203  0.00  0.00    +0.138 C 
ATOM     12  N   UNL     1       2.956  -4.360   0.669  0.00  0.00    -0.285 NA
ATOM     13  C   UNL     1       1.621  -4.144   0.092  0.00  0.00    +0.090 C 
ATOM     14  C   UNL     1       0.986  -2.898   0.725  0.00  0.00    +0.053 C 
ENDROOT
BRANCH  12  15
ATOM     15  C   UNL     1       3.442  -5.716   0.379  0.00  0.00    +0.153 C 
ATOM     16  C   UNL     1       4.811  -5.956   1.047  0.00  0.00    +0.125 C 
ATOM     17  C   UNL     1       4.546  -7.102   1.999  0.00  0.00    +0.228 C 
ATOM     18  O   UNL     1       5.367  -7.611   2.731  0.00  0.00    -0.275 OA
ATOM     19  N   UNL     1       3.260  -7.464   1.904  0.00  0.00    -0.209 N 
ATOM     20  C   UNL     1       2.544  -6.751   1.020  0.00  0.00    +0.244 C 
ATOM     21  O   UNL     1       1.367  -6.910   0.775  0.00  0.00    -0.273 OA
BRANCH  19  22
ATOM     22  C   UNL     1       2.707  -8.504   2.665  0.00  0.00    +0.044 A 
ATOM     23  C   UNL     1       2.288  -9.672   2.044  0.00  0.00    +0.025 A 
ATOM     24  C   UNL     1       1.743 -10.695   2.796  0.00  0.00    +0.017 A 
ATOM     25  C   UNL     1       1.615 -10.555   4.167  0.00  0.00    +0.018 A 
ATOM     26  C   UNL     1       2.032  -9.392   4.788  0.00  0.00    +0.017 A 
ATOM     27  C   UNL     1       2.583  -8.368   4.041  0.00  0.00    +0.025 A 
ATOM     28 BR   UNL     1       0.868 -11.957   5.193  0.00  0.00    -0.050 Br
ENDBRANCH  19  22
ENDBRANCH  12  15
TORSDOF 2
