REMARK  Name = ZINC08914668
REMARK  8 active torsions:
REMARK  status: ('A' for Active; 'I' for Inactive)
REMARK    1  A    between atoms: C_1  and  C_2
REMARK    2  A    between atoms: C_2  and  C_3
REMARK    3  A    between atoms: C_3  and  C_5
REMARK    4  A    between atoms: C_3  and  C_6
REMARK    5  A    between atoms: C_6  and  C_8
REMARK    6  A    between atoms: C_6  and  N_20
REMARK    7  A    between atoms: N_10  and  C_11
REMARK    8  A    between atoms: C_21  and  C_23
REMARK                            x       y       z     vdW  Elec       q    Type
REMARK                         _______ _______ _______ _____ _____    ______ ____
ROOT
ATOM      1  C   UNL     1      -2.775  -2.421  -0.188  0.00  0.00    +0.162 C 
ENDROOT
BRANCH   1   2
ATOM      2  C   UNL     1      -1.512  -1.791  -0.717  0.00  0.00    +0.238 C 
ATOM      3  O   UNL     1      -0.732  -2.452  -1.369  0.00  0.00    -0.273 OA
ATOM      4  N   UNL     1      -1.250  -0.493  -0.466  0.00  0.00    -0.284 N 
ATOM      5  H   UNL     1      -1.835   0.016   0.117  0.00  0.00    +0.155 HD
BRANCH   4   6
ATOM      6  C   UNL     1      -0.133   0.122  -1.047  0.00  0.00    +0.037 A 
ATOM      7  C   UNL     1       0.269  -0.237  -2.327  0.00  0.00    +0.027 A 
ATOM      8  C   UNL     1       1.371   0.367  -2.901  0.00  0.00    +0.051 A 
ATOM      9  C   UNL     1       2.078   1.333  -2.202  0.00  0.00    +0.166 A 
ATOM     10  C   UNL     1       1.676   1.695  -0.919  0.00  0.00    +0.168 A 
ATOM     11  C   UNL     1       0.572   1.089  -0.344  0.00  0.00    +0.072 A 
ATOM     12  O   UNL     1       2.526   2.655  -0.450  0.00  0.00    -0.453 OA
ATOM     13  C   UNL     1       3.204   3.170  -1.612  0.00  0.00    +0.466 C 
ATOM     14  O   UNL     1       3.180   2.066  -2.537  0.00  0.00    -0.453 OA
ENDBRANCH   4   6
ENDBRANCH   1   2
BRANCH   1  15
ATOM     15  N   UNL     1      -2.882  -3.793  -0.688  0.00  0.00    -0.305 N 
ATOM     16  C   UNL     1      -4.090  -4.305  -0.997  0.00  0.00    +0.200 C 
ATOM     17  O   UNL     1      -5.078  -3.603  -0.942  0.00  0.00    -0.278 OA
ATOM     18  H   UNL     1      -2.084  -4.334  -0.797  0.00  0.00    +0.149 HD
BRANCH  16  19
ATOM     19  C   UNL     1      -4.214  -5.748  -1.412  0.00  0.00    +0.021 C 
ATOM     20  C   UNL     1      -3.820  -5.896  -2.882  0.00  0.00    +0.028 C 
ATOM     21  C   UNL     1      -4.169  -7.277  -3.372  0.00  0.00    -0.047 A 
ATOM     22  C   UNL     1      -3.586  -7.730  -4.546  0.00  0.00    +0.004 A 
ATOM     23  C   UNL     1      -3.881  -8.988  -5.032  0.00  0.00    +0.000 A 
ATOM     24  C   UNL     1      -4.765  -9.800  -4.346  0.00  0.00    +0.000 A 
ATOM     25  C   UNL     1      -5.345  -9.351  -3.177  0.00  0.00    +0.002 A 
ATOM     26  C   UNL     1      -5.048  -8.088  -2.686  0.00  0.00    -0.061 A 
ATOM     27  C   UNL     1      -5.699  -7.646  -1.402  0.00  0.00    -0.045 C 
ATOM     28  N   UNL     1      -5.613  -6.187  -1.254  0.00  0.00    +0.389 N 
ATOM     29  H   UNL     1      -6.194  -5.737  -1.971  0.00  0.00    -0.084 HD
ATOM     30  H   UNL     1      -5.950  -5.919  -0.322  0.00  0.00    -0.084 HD
ENDBRANCH  16  19
ENDBRANCH   1  15
BRANCH   1  31
ATOM     31  C   UNL     1      -2.734  -2.437   1.341  0.00  0.00    +0.015 C 
ATOM     32  C   UNL     1      -4.079  -2.925   1.882  0.00  0.00    +0.010 C 
BRANCH  31  34
ATOM     33  C   UNL     1      -0.261  -2.773   1.467  0.00  0.00    +0.004 C 
ATOM     34  C   UNL     1      -1.623  -3.378   1.812  0.00  0.00    +0.002 C 
ENDBRANCH  31  34
ENDBRANCH   1  31
TORSDOF 6
