REMARK  Name = ZINC48922871
REMARK  10 active torsions:
REMARK  status: ('A' for Active; 'I' for Inactive)
REMARK    1  A    between atoms: C_1  and  C_2
REMARK    2  A    between atoms: C_2  and  C_3
REMARK    3  A    between atoms: C_2  and  C_4
REMARK    4  A    between atoms: C_4  and  C_5
REMARK    5  A    between atoms: C_5  and  N_6
REMARK    6  A    between atoms: N_6  and  C_7
REMARK    7  A    between atoms: N_6  and  C_8
REMARK    8  A    between atoms: C_8  and  C_9
REMARK    9  A    between atoms: N_11  and  C_12
REMARK   10  A    between atoms: C_15  and  N_19
REMARK                            x       y       z     vdW  Elec       q    Type
REMARK                         _______ _______ _______ _____ _____    ______ ____
ROOT
ATOM      1  C   UNL     1       5.865  -1.409  -2.593  0.00  0.00    +0.201 C 
ATOM      2  O   UNL     1       5.929  -2.620  -2.619  0.00  0.00    -0.278 OA
ATOM      3  N   UNL     1       6.367  -0.686  -3.613  0.00  0.00    -0.285 N 
ATOM      4  H   UNL     1       6.251   0.277  -3.628  0.00  0.00    +0.155 HD
ENDROOT
BRANCH   3   5
ATOM      5  C   UNL     1       7.055  -1.326  -4.654  0.00  0.00    +0.070 A 
ATOM      6  C   UNL     1       6.367  -1.754  -5.783  0.00  0.00    +0.065 A 
ATOM      7  C   UNL     1       7.046  -2.384  -6.808  0.00  0.00    +0.044 A 
ATOM      8  C   UNL     1       8.416  -2.589  -6.711  0.00  0.00    +0.027 A 
ATOM      9  C   UNL     1       9.104  -2.162  -5.583  0.00  0.00    +0.044 A 
ATOM     10  C   UNL     1       8.427  -1.526  -4.560  0.00  0.00    +0.065 A 
ATOM     11 CL   UNL     1       9.288  -0.985  -3.153  0.00  0.00    -0.082 Cl
ATOM     12 CL   UNL     1       4.655  -1.497  -5.904  0.00  0.00    -0.082 Cl
BRANCH   8  13
ATOM     13  N   UNL     1       9.103  -3.227  -7.749  0.00  0.00    -0.358 N 
ATOM     14  H   UNL     1       8.623  -3.526  -8.537  0.00  0.00    +0.142 HD
ATOM     15  H   UNL     1      10.060  -3.371  -7.681  0.00  0.00    +0.142 HD
ENDBRANCH   8  13
ENDBRANCH   3   5
BRANCH   1  16
ATOM     16  C   UNL     1       5.224  -0.714  -1.419  0.00  0.00    +0.018 C 
BRANCH  16  17
ATOM     17  N   UNL     1       4.761  -1.715  -0.450  0.00  0.00    +0.384 N 
ATOM     18  C   UNL     1       3.693  -2.523  -1.053  0.00  0.00    -0.096 C 
ATOM     19  H   UNL     1       5.531  -2.314  -0.191  0.00  0.00    -0.082 HD
BRANCH  17  20
ATOM     20  C   UNL     1       4.245  -1.037   0.747  0.00  0.00    -0.078 C 
BRANCH  20  21
ATOM     21  C   UNL     1       3.879  -2.078   1.806  0.00  0.00    -0.016 C 
BRANCH  21  23
ATOM     22  C   UNL     1       2.030  -0.662   2.710  0.00  0.00    +0.007 C 
ATOM     23  C   UNL     1       3.342  -1.371   3.052  0.00  0.00    -0.019 C 
ATOM     24  C   UNL     1       3.092  -2.402   4.155  0.00  0.00    +0.007 C 
ENDBRANCH  21  23
ENDBRANCH  20  21
ENDBRANCH  17  20
ENDBRANCH  16  17
ENDBRANCH   1  16
TORSDOF 7
