REMARK  Name = ZINC35681945
REMARK  14 active torsions:
REMARK  status: ('A' for Active; 'I' for Inactive)
REMARK    1  A    between atoms: C_1  and  C_2
REMARK    2  A    between atoms: C_2  and  O_3
REMARK    3  A    between atoms: O_3  and  C_4
REMARK    4  A    between atoms: C_7  and  N_10
REMARK    5  A    between atoms: C_12  and  N_33
REMARK    6  A    between atoms: C_13  and  N_32
REMARK    7  A    between atoms: N_17  and  C_18
REMARK    8  A    between atoms: C_18  and  C_19
REMARK    9  A    between atoms: C_19  and  C_21
REMARK   10  A    between atoms: C_19  and  N_29
REMARK   11  A    between atoms: C_26  and  O_27
REMARK   12  A    between atoms: O_27  and  C_28
REMARK   13  A    between atoms: N_29  and  C_30
REMARK   14  A    between atoms: N_29  and  C_31
REMARK                            x       y       z     vdW  Elec       q    Type
REMARK                         _______ _______ _______ _____ _____    ______ ____
ROOT
ATOM      1  N   UNL     1       1.373  -7.772  -2.682  0.00  0.00    -0.297 N 
ATOM      2  C   UNL     1       2.060  -7.908  -3.880  0.00  0.00    +0.160 A 
ATOM      3  C   UNL     1       2.374  -9.171  -4.372  0.00  0.00    +0.205 A 
ATOM      4  C   UNL     1       3.063  -9.260  -5.578  0.00  0.00    +0.154 A 
ATOM      5  N   UNL     1       3.398  -8.140  -6.216  0.00  0.00    -0.198 NA
ATOM      6  C   UNL     1       3.083  -6.955  -5.717  0.00  0.00    +0.219 A 
ATOM      7  N   UNL     1       2.423  -6.833  -4.575  0.00  0.00    -0.197 NA
ATOM      8  N   UNL     1       3.449  -5.814  -6.409  0.00  0.00    -0.315 N 
ATOM      9  H   UNL     1       1.037  -8.557  -2.223  0.00  0.00    +0.154 HD
ATOM     10  H   UNL     1       3.224  -4.939  -6.055  0.00  0.00    +0.149 HD
ENDROOT
BRANCH   1  14
ATOM     11  C   UNL     1       0.751  -3.984  -1.056  0.00  0.00    +0.121 A 
ATOM     12  C   UNL     1      -0.186  -4.987  -0.855  0.00  0.00    +0.047 A 
ATOM     13  C   UNL     1       0.019  -6.242  -1.393  0.00  0.00    +0.027 A 
ATOM     14  C   UNL     1       1.164  -6.499  -2.136  0.00  0.00    +0.033 A 
ATOM     15  C   UNL     1       2.101  -5.494  -2.338  0.00  0.00    +0.027 A 
ATOM     16  C   UNL     1       1.891  -4.239  -1.803  0.00  0.00    +0.047 A 
BRANCH  11  17
ATOM     17  O   UNL     1       0.548  -2.748  -0.524  0.00  0.00    -0.492 OA
BRANCH  17  19
ATOM     18  C   UNL     1      -0.701  -1.116   0.747  0.00  0.00    +0.048 C 
ATOM     19  C   UNL     1      -0.648  -2.556   0.234  0.00  0.00    +0.225 C 
ENDBRANCH  17  19
ENDBRANCH  11  17
ENDBRANCH   1  14
BRANCH   4  20
ATOM     20  N   UNL     1       3.398 -10.497  -6.107  0.00  0.00    -0.341 N 
ATOM     21  H   UNL     1       3.151 -11.308  -5.636  0.00  0.00    +0.144 HD
ATOM     22  H   UNL     1       3.879 -10.551  -6.947  0.00  0.00    +0.144 HD
ENDBRANCH   4  20
BRANCH   3  23
ATOM     23  N   UNL     1       1.983 -10.392  -3.632  0.00  0.00    +0.063 N 
ATOM     24  O   UNL     1       0.914 -10.915  -3.848  0.00  0.00    -0.126 OA
ATOM     25  O   UNL     1       2.733 -10.867  -2.811  0.00  0.00    -0.126 OA
ENDBRANCH   3  23
BRANCH   8  26
ATOM     26  C   UNL     1       4.175  -5.927  -7.676  0.00  0.00    +0.094 C 
BRANCH  26  27
ATOM     27  C   UNL     1       4.568  -4.531  -8.165  0.00  0.00    -0.017 C 
BRANCH  27  28
ATOM     28  C   UNL     1       3.326  -3.751  -8.508  0.00  0.00    -0.018 A 
ATOM     29  C   UNL     1       2.823  -2.823  -7.615  0.00  0.00    +0.005 A 
ATOM     30  C   UNL     1       1.683  -2.107  -7.929  0.00  0.00    +0.000 A 
ATOM     31  C   UNL     1       1.043  -2.317  -9.137  0.00  0.00    +0.004 A 
ATOM     32  C   UNL     1       1.541  -3.242 -10.033  0.00  0.00    +0.046 A 
ATOM     33  C   UNL     1       2.688  -3.958  -9.722  0.00  0.00    +0.122 A 
BRANCH  33  34
ATOM     34  O   UNL     1       3.184  -4.865 -10.605  0.00  0.00    -0.495 OA
ATOM     35  C   UNL     1       2.476  -5.027 -11.835  0.00  0.00    +0.277 C 
ENDBRANCH  33  34
ENDBRANCH  27  28
BRANCH  27  36
ATOM     36  N   UNL     1       5.309  -3.832  -7.106  0.00  0.00    +0.382 N 
ATOM     37  C   UNL     1       6.442  -4.661  -6.672  0.00  0.00    -0.096 C 
ATOM     38  C   UNL     1       5.809  -2.551  -7.623  0.00  0.00    -0.096 C 
ATOM     39  H   UNL     1       4.696  -3.663  -6.323  0.00  0.00    -0.082 HD
ENDBRANCH  27  36
ENDBRANCH  26  27
ENDBRANCH   8  26
TORSDOF 10
