REMARK  Name = ZINC63796108
REMARK  6 active torsions:
REMARK  status: ('A' for Active; 'I' for Inactive)
REMARK    1  A    between atoms: C_3  and  N_8
REMARK    2  A    between atoms: C_5  and  O_7
REMARK    3  A    between atoms: C_9  and  C_11
REMARK    4  A    between atoms: N_13  and  C_14
REMARK    5  A    between atoms: C_14  and  C_15
REMARK    6  A    between atoms: C_15  and  C_16
REMARK                            x       y       z     vdW  Elec       q    Type
REMARK                         _______ _______ _______ _____ _____    ______ ____
ROOT
ATOM      1  C   UNL     1       4.843   4.233  -0.238  0.00  0.00    +0.299 C 
ATOM      2  O   UNL     1       5.901   3.639  -0.252  0.00  0.00    -0.265 OA
ATOM      3  N   UNL     1       4.823   5.577  -0.333  0.00  0.00    -0.307 N 
ATOM      4  H   UNL     1       3.977   6.052  -0.323  0.00  0.00    +0.149 HD
ENDROOT
BRANCH   1   6
ATOM      5  N   UNL     1       3.582   2.130  -0.022  0.00  0.00    -0.278 N 
ATOM      6  C   UNL     1       3.562   3.474  -0.117  0.00  0.00    +0.303 C 
ATOM      7  O   UNL     1       2.504   4.068  -0.103  0.00  0.00    -0.265 OA
ATOM      8  H   UNL     1       4.429   1.660   0.035  0.00  0.00    +0.155 HD
BRANCH   5  11
ATOM      9  C   UNL     1       1.124  -0.543  -0.596  0.00  0.00    +0.005 A 
ATOM     10  C   UNL     1       2.309   0.166  -0.614  0.00  0.00    +0.023 A 
ATOM     11  C   UNL     1       2.383   1.413  -0.005  0.00  0.00    +0.037 A 
ATOM     12  C   UNL     1       1.263   1.946   0.619  0.00  0.00    +0.068 A 
ATOM     13  C   UNL     1       0.076   1.231   0.634  0.00  0.00    +0.119 A 
ATOM     14  C   UNL     1       0.009  -0.014   0.025  0.00  0.00    +0.045 A 
BRANCH  13  15
ATOM     15  O   UNL     1      -1.022   1.750   1.245  0.00  0.00    -0.507 OA
ATOM     16  H   UNL     1      -1.580   2.284   0.663  0.00  0.00    +0.292 HD
ENDBRANCH  13  15
ENDBRANCH   5  11
ENDBRANCH   1   6
BRANCH   3  17
ATOM     17  C   UNL     1       6.079   6.322  -0.453  0.00  0.00    +0.109 C 
BRANCH  17  18
ATOM     18  C   UNL     1       5.778   7.819  -0.544  0.00  0.00    +0.052 C 
BRANCH  18  19
ATOM     19  C   UNL     1       7.070   8.585  -0.666  0.00  0.00    -0.040 C 
ATOM     20  C   UNL     1       7.660   9.007  -1.808  0.00  0.00    +0.000 A 
ATOM     21  C   UNL     1       7.289   8.884  -3.223  0.00  0.00    +0.030 A 
ATOM     22  C   UNL     1       8.100   9.422  -4.163  0.00  0.00    +0.042 A 
ATOM     23  C   UNL     1       9.284  10.092  -3.820  0.00  0.00    +0.022 A 
ATOM     24  C   UNL     1       9.690  10.245  -2.542  0.00  0.00    +0.027 A 
ATOM     25  C   UNL     1       8.913   9.720  -1.472  0.00  0.00    +0.043 A 
ATOM     26  N   UNL     1       9.091   9.737  -0.174  0.00  0.00    -0.380 N 
ATOM     27  C   UNL     1       7.966   9.043   0.462  0.00  0.00    +0.144 C 
ATOM     28 CL   UNL     1       7.665   9.278  -5.838  0.00  0.00    -0.084 Cl
ATOM     29  H   UNL     1       9.840  10.145   0.290  0.00  0.00    +0.160 HD
ENDBRANCH  18  19
ENDBRANCH  17  18
ENDBRANCH   3  17
TORSDOF 6
