REMARK  Name = ZINC09222792
REMARK  10 active torsions:
REMARK  status: ('A' for Active; 'I' for Inactive)
REMARK    1  A    between atoms: C_1  and  C_2
REMARK    2  A    between atoms: C_5  and  C_7
REMARK    3  A    between atoms: C_7  and  C_9
REMARK    4  A    between atoms: C_7  and  N_63
REMARK    5  A    between atoms: C_10  and  N_22
REMARK    6  A    between atoms: N_11  and  C_18
REMARK    7  A    between atoms: C_18  and  C_19
REMARK    8  A    between atoms: C_19  and  C_20
REMARK    9  A    between atoms: C_19  and  C_21
REMARK   10  A    between atoms: N_25  and  C_28
REMARK                            x       y       z     vdW  Elec       q    Type
REMARK                         _______ _______ _______ _____ _____    ______ ____
ROOT
ATOM      1  C   UNL     1       2.406   1.350  -0.577  0.00  0.00    +0.039 C 
ENDROOT
BRANCH   1   2
ATOM      2  C   UNL     1       1.120   2.071  -0.264  0.00  0.00    +0.049 A 
ATOM      3  C   UNL     1      -0.036   1.369  -0.061  0.00  0.00    +0.107 A 
ATOM      4  N   UNL     1      -1.197   2.049   0.218  0.00  0.00    -0.282 N 
ATOM      5  C   UNL     1      -1.197   3.392   0.302  0.00  0.00    +0.331 A 
ATOM      6  O   UNL     1      -2.232   3.976   0.555  0.00  0.00    -0.246 OA
ATOM      7  N   UNL     1      -0.068   4.098   0.104  0.00  0.00    -0.275 N 
ATOM      8  H   UNL     1      -0.091   5.095   0.166  0.00  0.00    +0.173 HD
ATOM      9  C   UNL     1       1.091   3.471  -0.177  0.00  0.00    +0.258 A 
ATOM     10  O   UNL     1       2.110   4.118  -0.355  0.00  0.00    -0.267 OA
BRANCH   3  11
ATOM     11  N   UNL     1      -0.038   0.000  -0.140  0.00  0.00    -0.344 N 
ATOM     12  H   UNL     1       0.800  -0.482  -0.224  0.00  0.00    +0.144 HD
ATOM     13  H   UNL     1      -0.876  -0.486  -0.112  0.00  0.00    +0.144 HD
ENDBRANCH   3  11
BRANCH   4  14
ATOM     14  C   UNL     1      -2.442   1.306   0.431  0.00  0.00    +0.131 C 
BRANCH  14  15
ATOM     15  C   UNL     1      -2.585   0.966   1.916  0.00  0.00    +0.003 C 
ATOM     16  C   UNL     1      -3.941   0.301   2.159  0.00  0.00    +0.009 C 
ATOM     17  C   UNL     1      -1.466   0.008   2.330  0.00  0.00    +0.009 C 
ENDBRANCH  14  15
ENDBRANCH   4  14
ENDBRANCH   1   2
BRANCH   1  23
ATOM     18  C   UNL     1       2.037   1.824  -2.923  0.00  0.00    -0.058 C 
ATOM     19  C   UNL     1       2.652   2.480  -4.162  0.00  0.00    +0.086 C 
ATOM     20  N   UNL     1       3.910   1.800  -4.499  0.00  0.00    -0.333 N 
ATOM     21  C   UNL     1       4.863   1.878  -3.383  0.00  0.00    +0.086 C 
ATOM     22  C   UNL     1       4.248   1.222  -2.144  0.00  0.00    -0.058 C 
ATOM     23  N   UNL     1       2.995   1.929  -1.803  0.00  0.00    +0.391 N 
ATOM     24  H   UNL     1       3.206   2.920  -1.636  0.00  0.00    -0.080 HD
BRANCH  20  25
ATOM     25  C   UNL     1       4.465   2.324  -5.668  0.00  0.00    +0.030 A 
ATOM     26  C   UNL     1       5.758   2.833  -5.658  0.00  0.00    +0.023 A 
ATOM     27  C   UNL     1       6.306   3.347  -6.817  0.00  0.00    +0.002 A 
ATOM     28  C   UNL     1       5.565   3.365  -7.985  0.00  0.00    +0.000 A 
ATOM     29  C   UNL     1       4.276   2.864  -7.997  0.00  0.00    +0.002 A 
ATOM     30  C   UNL     1       3.724   2.344  -6.843  0.00  0.00    +0.023 A 
ENDBRANCH  20  25
ENDBRANCH   1  23
BRANCH   1  35
ATOM     31  C   UNL     1       5.853   3.414   2.472  0.00  0.00    +0.086 C 
ATOM     32  C   UNL     1       4.872   2.429   1.890  0.00  0.00    +0.102 A 
ATOM     33  C   UNL     1       4.589   1.213   2.389  0.00  0.00    +0.044 A 
ATOM     34  C   UNL     1       3.623   0.634   1.534  0.00  0.00    +0.043 A 
ATOM     35  C   UNL     1       3.373   1.532   0.564  0.00  0.00    +0.096 A 
ATOM     36  O   UNL     1       4.137   2.615   0.781  0.00  0.00    -0.466 OA
ENDBRANCH   1  35
TORSDOF 7
