REMARK  Name = ZINC23259119
REMARK  10 active torsions:
REMARK  status: ('A' for Active; 'I' for Inactive)
REMARK    1  A    between atoms: C_1  and  C_2
REMARK    2  A    between atoms: C_2  and  C_4
REMARK    3  A    between atoms: C_2  and  N_20
REMARK    4  A    between atoms: N_9  and  C_10
REMARK    5  A    between atoms: N_23  and  C_26
REMARK    6  A    between atoms: C_26  and  C_27
REMARK    7  A    between atoms: C_27  and  O_28
REMARK    8  A    between atoms: O_28  and  C_29
REMARK    9  A    between atoms: C_32  and  O_35
REMARK   10  A    between atoms: O_35  and  C_36
REMARK                            x       y       z     vdW  Elec       q    Type
REMARK                         _______ _______ _______ _____ _____    ______ ____
ROOT
ATOM      1  C   UNL     1      -3.718   5.102   4.601  0.00  0.00    -0.004 C 
ATOM      2  C   UNL     1      -2.281   5.545   4.317  0.00  0.00    +0.017 C 
ENDROOT
BRANCH   2   3
ATOM      3  C   UNL     1      -1.830   4.972   2.998  0.00  0.00    +0.207 C 
ATOM      4  O   UNL     1      -1.734   5.690   2.026  0.00  0.00    -0.277 OA
ATOM      5  N   UNL     1      -1.534   3.661   2.899  0.00  0.00    -0.242 N 
ATOM      6  C   UNL     1      -1.131   3.148   1.720  0.00  0.00    +0.306 C 
ATOM      7  O   UNL     1      -1.035   3.868   0.745  0.00  0.00    -0.252 OA
ATOM      8  N   UNL     1      -0.835   1.837   1.621  0.00  0.00    -0.294 N 
ATOM      9  H   UNL     1      -1.621   3.009   3.781  0.00  0.00    +0.159 HD
ATOM     10  H   UNL     1      -0.922   1.185   2.503  0.00  0.00    +0.151 HD
BRANCH   8  11
ATOM     11  C   UNL     1      -0.397   1.280   0.339  0.00  0.00    +0.037 C 
ATOM     12  C   UNL     1       0.885   1.983  -0.112  0.00  0.00    +0.029 C 
ATOM     13  C   UNL     1       1.343   1.401  -1.451  0.00  0.00    -0.008 C 
ATOM     14  C   UNL     1       1.612  -0.096  -1.291  0.00  0.00    +0.007 C 
ATOM     15  C   UNL     1       0.331  -0.800  -0.840  0.00  0.00    -0.008 C 
ATOM     16  C   UNL     1      -0.127  -0.218   0.499  0.00  0.00    +0.029 C 
ATOM     17  C   UNL     1      -0.763  -0.588  -1.889  0.00  0.00    +0.007 C 
ATOM     18  C   UNL     1      -1.033   0.910  -2.049  0.00  0.00    -0.008 C 
ATOM     19  C   UNL     1       0.249   1.613  -2.500  0.00  0.00    +0.007 C 
ATOM     20  C   UNL     1      -1.490   1.492  -0.710  0.00  0.00    +0.029 C 
ENDBRANCH   8  11
ENDBRANCH   2   3
BRANCH   2  21
ATOM     21  N   UNL     1      -2.223   7.012   4.259  0.00  0.00    +0.389 N 
ATOM     22  C   UNL     1      -2.288   7.595   5.606  0.00  0.00    -0.062 C 
ATOM     23  C   UNL     1      -2.145   9.116   5.508  0.00  0.00    +0.066 C 
ATOM     24  N   UNL     1      -3.214   9.651   4.654  0.00  0.00    -0.303 NA
ATOM     25  C   UNL     1      -3.150   9.068   3.306  0.00  0.00    +0.066 C 
ATOM     26  C   UNL     1      -3.292   7.547   3.405  0.00  0.00    -0.062 C 
ATOM     27  H   UNL     1      -1.258   7.293   3.812  0.00  0.00    -0.081 HD
BRANCH  24  28
ATOM     28  C   UNL     1      -3.156  11.118   4.595  0.00  0.00    +0.125 C 
BRANCH  28  29
ATOM     29  C   UNL     1      -1.722  11.561   4.301  0.00  0.00    +0.244 C 
BRANCH  29  30
ATOM     30  O   UNL     1      -1.347  11.123   2.993  0.00  0.00    -0.491 OA
BRANCH  30  31
ATOM     31  C   UNL     1      -0.093  11.437   2.572  0.00  0.00    +0.121 A 
ATOM     32  C   UNL     1       0.756  12.156   3.400  0.00  0.00    +0.049 A 
ATOM     33  C   UNL     1       2.032  12.471   2.974  0.00  0.00    +0.049 A 
ATOM     34  C   UNL     1       2.461  12.077   1.716  0.00  0.00    +0.120 A 
ATOM     35  C   UNL     1       1.610  11.362   0.886  0.00  0.00    +0.049 A 
ATOM     36  C   UNL     1       0.335  11.043   1.313  0.00  0.00    +0.049 A 
BRANCH  34  37
ATOM     37  O   UNL     1       3.715  12.391   1.295  0.00  0.00    -0.495 OA
ATOM     38  C   UNL     1       4.537  13.129   2.201  0.00  0.00    +0.277 C 
ENDBRANCH  34  37
ENDBRANCH  30  31
ENDBRANCH  29  30
ENDBRANCH  28  29
ENDBRANCH  24  28
ENDBRANCH   2  21
TORSDOF 8
