REMARK  Name = ZINC39678902
REMARK  10 active torsions:
REMARK  status: ('A' for Active; 'I' for Inactive)
REMARK    1  A    between atoms: C_1  and  N_2
REMARK    2  A    between atoms: N_2  and  C_3
REMARK    3  A    between atoms: N_2  and  C_4
REMARK    4  A    between atoms: C_4  and  C_5
REMARK    5  A    between atoms: C_5  and  C_6
REMARK    6  A    between atoms: C_6  and  C_7
REMARK    7  A    between atoms: C_7  and  N_8
REMARK    8  A    between atoms: C_9  and  C_11
REMARK    9  A    between atoms: C_22  and  C_24
REMARK   10  A    between atoms: C_27  and  C_30
REMARK                            x       y       z     vdW  Elec       q    Type
REMARK                         _______ _______ _______ _____ _____    ______ ____
ROOT
ATOM      1  C   UNL     1      -7.327  -1.359  -3.985  0.00  0.00    +0.100 C 
ATOM      2  C   UNL     1      -7.612  -2.870  -3.835  0.00  0.00    +0.121 C 
ATOM      3  N   UNL     1      -8.815  -3.108  -4.668  0.00  0.00    -0.296 N 
ATOM      4  C   UNL     1      -8.607  -2.261  -5.867  0.00  0.00    +0.115 C 
ATOM      5  C   UNL     1      -7.981  -0.964  -5.320  0.00  0.00    -0.004 C 
ATOM      6  C   UNL     1      -6.926  -0.438  -6.289  0.00  0.00    -0.010 C 
ATOM      7  C   UNL     1      -7.608   0.003  -7.588  0.00  0.00    -0.082 C 
ATOM      8  N   UNL     1      -8.595   1.048  -7.294  0.00  0.00    +0.379 N 
ATOM      9  C   UNL     1      -9.656   0.508  -6.435  0.00  0.00    -0.082 C 
ATOM     10  C   UNL     1      -9.061   0.088  -5.088  0.00  0.00    -0.010 C 
ATOM     11  C   UNL     1      -9.863  -3.911  -4.395  0.00  0.00    +0.247 C 
ATOM     12  O   UNL     1      -9.952  -4.446  -3.307  0.00  0.00    -0.270 OA
ATOM     13  H   UNL     1      -8.141   1.815  -6.821  0.00  0.00    -0.086 HD
ATOM     14  H   UNL     1      -8.999   1.380  -8.157  0.00  0.00    -0.086 HD
ENDROOT
BRANCH  11  15
ATOM     15  C   UNL     1     -10.903  -4.143  -5.420  0.00  0.00    +0.037 A 
ATOM     16  C   UNL     1     -10.623  -3.912  -6.768  0.00  0.00    +0.013 A 
ATOM     17  C   UNL     1     -11.598  -4.130  -7.719  0.00  0.00    +0.013 A 
ATOM     18  C   UNL     1     -12.851  -4.577  -7.340  0.00  0.00    +0.055 A 
ATOM     19  C   UNL     1     -13.135  -4.808  -6.005  0.00  0.00    +0.013 A 
ATOM     20  C   UNL     1     -12.167  -4.599  -5.045  0.00  0.00    +0.013 A 
BRANCH  18  21
ATOM     21  C   UNL     1     -13.911  -4.813  -8.384  0.00  0.00    +0.417 C 
ATOM     22  F   UNL     1     -13.834  -6.134  -8.837  0.00  0.00    -0.166 F 
ATOM     23  F   UNL     1     -15.174  -4.584  -7.827  0.00  0.00    -0.166 F 
ATOM     24  F   UNL     1     -13.711  -3.939  -9.458  0.00  0.00    -0.166 F 
ENDBRANCH  18  21
ENDBRANCH  11  15
BRANCH   1  26
ATOM     25  N   UNL     1      -5.339   0.052  -3.566  0.00  0.00    -0.315 N 
ATOM     26  C   UNL     1      -5.842  -1.108  -4.033  0.00  0.00    +0.218 C 
ATOM     27  O   UNL     1      -5.099  -1.949  -4.493  0.00  0.00    -0.275 OA
ATOM     28  H   UNL     1      -5.933   0.725  -3.199  0.00  0.00    +0.149 HD
BRANCH  25  29
ATOM     29  C   UNL     1      -3.895   0.296  -3.613  0.00  0.00    +0.104 C 
BRANCH  29  30
ATOM     30  C   UNL     1      -3.591   1.676  -3.026  0.00  0.00    +0.017 C 
BRANCH  30  31
ATOM     31  C   UNL     1      -2.084   1.931  -3.075  0.00  0.00    -0.017 C 
BRANCH  31  32
ATOM     32  C   UNL     1      -1.780   3.310  -2.487  0.00  0.00    -0.080 C 
BRANCH  32  34
ATOM     33  C   UNL     1       0.107   3.624  -3.934  0.00  0.00    -0.097 C 
ATOM     34  N   UNL     1      -0.333   3.555  -2.534  0.00  0.00    +0.376 N 
ATOM     35  C   UNL     1      -0.029   4.826  -1.863  0.00  0.00    -0.097 C 
ATOM     36  H   UNL     1       0.151   2.803  -2.066  0.00  0.00    -0.083 HD
ENDBRANCH  32  34
ENDBRANCH  31  32
ENDBRANCH  30  31
ENDBRANCH  29  30
ENDBRANCH  25  29
ENDBRANCH   1  26
TORSDOF 8
