REMARK  Name = ZINC04138532
REMARK  5 active torsions:
REMARK  status: ('A' for Active; 'I' for Inactive)
REMARK    1  A    between atoms: C_1  and  C_2
REMARK    2  A    between atoms: N_7  and  C_8
REMARK    3  A    between atoms: C_8  and  C_10
REMARK    4  A    between atoms: C_8  and  C_17
REMARK    5  A    between atoms: C_26  and  O_27
REMARK                            x       y       z     vdW  Elec       q    Type
REMARK                         _______ _______ _______ _____ _____    ______ ____
ROOT
ATOM      1  C   UNL     1       1.443   2.289   4.772  0.00  0.00    +0.136 C 
ENDROOT
BRANCH   1   8
ATOM      2  C   UNL     1      -0.164   0.690   0.176  0.00  0.00    +0.044 C 
ATOM      3  C   UNL     1      -0.834   1.251   1.404  0.00  0.00    -0.046 A 
ATOM      4  C   UNL     1      -2.209   1.438   1.440  0.00  0.00    +0.021 A 
ATOM      5  C   UNL     1      -2.793   1.950   2.581  0.00  0.00    +0.084 A 
ATOM      6  C   UNL     1      -0.745   2.111   3.634  0.00  0.00    +0.097 A 
ATOM      7  C   UNL     1      -0.091   1.595   2.519  0.00  0.00    +0.045 A 
ATOM      8  N   UNL     1      -0.011   2.462   4.761  0.00  0.00    -0.320 N 
ATOM      9  H   UNL     1      -0.463   2.822   5.541  0.00  0.00    +0.148 HD
ATOM     10  N   UNL     1      -2.095   2.300   3.695  0.00  0.00    -0.350 N 
ATOM     11  H   UNL     1      -2.555   2.682   4.529  0.00  0.00    +0.166 HD
ENDBRANCH   1   8
BRANCH   1  12
ATOM     12  C   UNL     1       2.055   3.242   5.766  0.00  0.00    +0.021 A 
ATOM     13  C   UNL     1       1.307   3.664   6.862  0.00  0.00    +0.010 A 
ATOM     14  C   UNL     1       1.831   4.524   7.778  0.00  0.00    +0.010 A 
ATOM     15  C   UNL     1       3.145   4.994   7.620  0.00  0.00    +0.004 A 
ATOM     16  C   UNL     1       3.721   5.884   8.547  0.00  0.00    +0.011 A 
ATOM     17  C   UNL     1       5.003   6.299   8.329  0.00  0.00    +0.020 A 
ATOM     18  C   UNL     1       5.702   5.842   7.214  0.00  0.00    +0.111 A 
ATOM     19  N   UNL     1       5.162   5.014   6.354  0.00  0.00    -0.251 NA
ATOM     20  C   UNL     1       3.912   4.570   6.508  0.00  0.00    +0.113 A 
ATOM     21  C   UNL     1       3.338   3.674   5.582  0.00  0.00    +0.148 A 
BRANCH  21  22
ATOM     22  O   UNL     1       4.054   3.248   4.509  0.00  0.00    -0.504 OA
ATOM     23  H   UNL     1       3.963   3.809   3.727  0.00  0.00    +0.292 HD
ENDBRANCH  21  22
ENDBRANCH   1  12
BRANCH   1  24
ATOM     24  C   UNL     1       1.778   0.872   5.162  0.00  0.00    -0.023 A 
ATOM     25  C   UNL     1       1.060   0.244   6.162  0.00  0.00    +0.007 A 
ATOM     26  C   UNL     1       1.363  -1.058   6.517  0.00  0.00    +0.020 A 
ATOM     27  C   UNL     1       2.391  -1.727   5.878  0.00  0.00    +0.041 A 
ATOM     28  C   UNL     1       3.113  -1.095   4.881  0.00  0.00    +0.020 A 
ATOM     29  C   UNL     1       2.806   0.204   4.523  0.00  0.00    +0.007 A 
ATOM     30 CL   UNL     1       2.776  -3.359   6.327  0.00  0.00    -0.084 Cl
ENDBRANCH   1  24
TORSDOF 4
