REMARK  Name = ZINC63993683
REMARK  10 active torsions:
REMARK  status: ('A' for Active; 'I' for Inactive)
REMARK    1  A    between atoms: C_1  and  O_2
REMARK    2  A    between atoms: O_2  and  C_3
REMARK    3  A    between atoms: C_3  and  C_5
REMARK    4  A    between atoms: C_7  and  N_34
REMARK    5  A    between atoms: C_11  and  N_27
REMARK    6  A    between atoms: N_15  and  C_16
REMARK    7  A    between atoms: C_16  and  C_17
REMARK    8  A    between atoms: C_17  and  C_18
REMARK    9  A    between atoms: N_27  and  C_28
REMARK   10  A    between atoms: C_35  and  C_37
REMARK                            x       y       z     vdW  Elec       q    Type
REMARK                         _______ _______ _______ _____ _____    ______ ____
ROOT
ATOM      1  C   UNL     1      -1.266  -1.934   0.013  0.00  0.00    +0.208 C 
ATOM      2  C   UNL     1      -1.117  -2.487  -1.414  0.00  0.00    +0.138 C 
ATOM      3  C   UNL     1      -2.299  -3.413  -1.585  0.00  0.00    +0.015 A 
ATOM      4  C   UNL     1      -2.700  -4.193  -2.653  0.00  0.00    +0.033 A 
ATOM      5  C   UNL     1      -3.856  -4.959  -2.519  0.00  0.00    +0.044 A 
ATOM      6  C   UNL     1      -4.556  -4.908  -1.323  0.00  0.00    +0.107 A 
ATOM      7  N   UNL     1      -4.143  -4.152  -0.328  0.00  0.00    -0.348 N 
ATOM      8  C   UNL     1      -3.043  -3.404  -0.413  0.00  0.00    +0.105 A 
ATOM      9  N   UNL     1      -2.480  -2.560   0.544  0.00  0.00    -0.301 N 
ATOM     10  H   UNL     1      -4.656  -4.139   0.495  0.00  0.00    +0.167 HD
ENDROOT
BRANCH   2  11
ATOM     11  N   UNL     1       0.139  -3.228  -1.547  0.00  0.00    -0.306 N 
ATOM     12  C   UNL     1       0.719  -3.361  -2.757  0.00  0.00    +0.219 C 
ATOM     13  O   UNL     1       0.200  -2.867  -3.735  0.00  0.00    -0.275 OA
ATOM     14  H   UNL     1       0.555  -3.623  -0.764  0.00  0.00    +0.149 HD
BRANCH  12  15
ATOM     15  C   UNL     1       2.011  -4.124  -2.893  0.00  0.00    +0.103 C 
ATOM     16  C   UNL     1       2.454  -4.179  -4.376  0.00  0.00    +0.043 C 
ATOM     17  C   UNL     1       2.975  -5.633  -4.505  0.00  0.00    +0.160 C 
ATOM     18  O   UNL     1       2.067  -6.391  -3.677  0.00  0.00    -0.379 OA
ATOM     19  C   UNL     1       1.811  -5.600  -2.501  0.00  0.00    +0.172 C 
ENDBRANCH  12  15
ENDBRANCH   2  11
BRANCH   1  20
ATOM     20  C   UNL     1      -1.422  -0.436  -0.021  0.00  0.00    +0.330 C 
ATOM     21  O   UNL     1      -2.523   0.056  -0.105  0.00  0.00    -0.249 OA
BRANCH  20  23
ATOM     22  C   UNL     1      -0.560   1.764   0.007  0.00  0.00    +0.280 C 
ATOM     23  O   UNL     1      -0.338   0.353   0.043  0.00  0.00    -0.467 OA
ENDBRANCH  20  23
ENDBRANCH   1  20
BRANCH   5  24
ATOM     24  N   UNL     1      -4.303  -5.766  -3.573  0.00  0.00    -0.340 N 
ATOM     25  H   UNL     1      -3.807  -5.795  -4.406  0.00  0.00    +0.146 HD
BRANCH  24  26
ATOM     26  C   UNL     1      -5.521  -6.566  -3.418  0.00  0.00    +0.075 C 
ATOM     27  C   UNL     1      -5.175  -7.901  -2.752  0.00  0.00    +0.050 C 
ATOM     28  C   UNL     1      -6.439  -8.761  -2.665  0.00  0.00    +0.161 C 
ATOM     29  O   UNL     1      -6.975  -8.951  -3.976  0.00  0.00    -0.380 OA
ATOM     30  C   UNL     1      -7.360  -7.740  -4.630  0.00  0.00    +0.161 C 
ATOM     31  C   UNL     1      -6.134  -6.838  -4.795  0.00  0.00    +0.050 C 
ENDBRANCH  24  26
ENDBRANCH   5  24
BRANCH   9  32
ATOM     32  C   UNL     1      -3.023  -2.331   1.886  0.00  0.00    +0.112 C 
BRANCH  32  33
ATOM     33  C   UNL     1      -2.464  -3.381   2.848  0.00  0.00    +0.052 C 
BRANCH  33  34
ATOM     34  C   UNL     1      -3.067  -3.182   4.215  0.00  0.00    -0.040 C 
ATOM     35  C   UNL     1      -4.145  -3.816   4.728  0.00  0.00    -0.001 A 
ATOM     36  C   UNL     1      -5.046  -4.842   4.189  0.00  0.00    +0.010 A 
ATOM     37  C   UNL     1      -6.063  -5.293   4.958  0.00  0.00    +0.001 A 
ATOM     38  C   UNL     1      -6.277  -4.806   6.255  0.00  0.00    +0.002 A 
ATOM     39  C   UNL     1      -5.493  -3.864   6.819  0.00  0.00    +0.026 A 
ATOM     40  C   UNL     1      -4.393  -3.319   6.100  0.00  0.00    +0.043 A 
ATOM     41  N   UNL     1      -3.503  -2.412   6.423  0.00  0.00    -0.380 N 
ATOM     42  C   UNL     1      -2.584  -2.236   5.292  0.00  0.00    +0.144 C 
ATOM     43  H   UNL     1      -3.456  -1.940   7.269  0.00  0.00    +0.160 HD
ENDBRANCH  33  34
ENDBRANCH  32  33
ENDBRANCH   9  32
TORSDOF 9
