REMARK  Name = ZINC63350098
REMARK  10 active torsions:
REMARK  status: ('A' for Active; 'I' for Inactive)
REMARK    1  A    between atoms: C_1  and  C_2
REMARK    2  A    between atoms: C_13  and  O_15
REMARK    3  A    between atoms: O_15  and  C_16
REMARK    4  A    between atoms: C_16  and  C_18
REMARK    5  A    between atoms: C_18  and  C_19
REMARK    6  A    between atoms: C_19  and  C_20
REMARK    7  A    between atoms: N_22  and  C_23
REMARK    8  A    between atoms: C_23  and  C_24
REMARK    9  A    between atoms: C_24  and  C_25
REMARK   10  A    between atoms: C_42  and  C_43
REMARK                            x       y       z     vdW  Elec       q    Type
REMARK                         _______ _______ _______ _____ _____    ______ ____
ROOT
ATOM      1  O   UNL     1       0.801   0.469  -2.240  0.00  0.00    -0.461 OA
ENDROOT
BRANCH   1  11
ATOM      2  C   UNL     1      -0.019   1.522   0.010  0.00  0.00    +0.015 C 
ATOM      3  C   UNL     1       0.002  -0.004   0.002  0.00  0.00    +0.008 C 
ATOM      4  C   UNL     1      -1.411  -0.535  -0.055  0.00  0.00    +0.011 C 
ATOM      5  C   UNL     1      -2.131  -0.134   1.250  0.00  0.00    +0.005 C 
ATOM      6  C   UNL     1      -1.405  -0.683   2.462  0.00  0.00    +0.002 C 
ATOM      7  C   UNL     1       0.069  -0.305   2.527  0.00  0.00    -0.003 C 
ATOM      8  C   UNL     1       0.726  -0.626   1.211  0.00  0.00    +0.002 C 
ATOM      9  C   UNL     1       2.167  -0.149   0.990  0.00  0.00    +0.008 C 
ATOM     10  C   UNL     1       2.351  -0.365  -0.540  0.00  0.00    +0.045 C 
ATOM     11  C   UNL     1       0.927  -0.440  -1.148  0.00  0.00    +0.183 C 
ATOM     12  C   UNL     1       0.381   1.084   3.036  0.00  0.00    +0.008 C 
ATOM     13  C   UNL     1      -0.846   1.771   3.635  0.00  0.00    +0.032 C 
ATOM     14  C   UNL     1      -1.546   0.738   4.486  0.00  0.00    -0.060 C 
ATOM     15  C   UNL     1      -1.632   0.871   5.801  0.00  0.00    +0.046 C 
ATOM     16  C   UNL     1      -2.269  -0.159   6.620  0.00  0.00    +0.156 C 
ATOM     17  O   UNL     1      -2.453   0.042   7.804  0.00  0.00    -0.293 OA
ATOM     18  C   UNL     1      -2.682  -1.473   6.010  0.00  0.00    +0.080 C 
ATOM     19  C   UNL     1      -1.967  -1.688   4.677  0.00  0.00    +0.019 C 
ATOM     20  C   UNL     1      -2.134  -0.458   3.778  0.00  0.00    -0.007 C 
ATOM     21  C   UNL     1      -3.625  -0.208   3.546  0.00  0.00    +0.016 C 
ENDBRANCH   1  11
BRANCH   1  22
ATOM     22  C   UNL     1       1.001  -0.027  -3.472  0.00  0.00    +0.308 C 
ATOM     23  O   UNL     1       1.274  -1.195  -3.616  0.00  0.00    -0.251 OA
BRANCH  22  24
ATOM     24  C   UNL     1       0.884   0.874  -4.674  0.00  0.00    +0.130 C 
BRANCH  24  25
ATOM     25  C   UNL     1       1.157   0.067  -5.945  0.00  0.00    +0.107 C 
BRANCH  25  26
ATOM     26  C   UNL     1       1.041   0.967  -7.147  0.00  0.00    +0.214 C 
ATOM     27  O   UNL     1       0.767   2.140  -7.002  0.00  0.00    -0.276 OA
ATOM     28  N   UNL     1       1.242   0.470  -8.384  0.00  0.00    -0.315 N 
ATOM     29  H   UNL     1       1.461  -0.468  -8.500  0.00  0.00    +0.149 HD
BRANCH  28  30
ATOM     30  C   UNL     1       1.129   1.346  -9.553  0.00  0.00    +0.108 C 
BRANCH  30  31
ATOM     31  C   UNL     1       1.401   0.538 -10.823  0.00  0.00    +0.052 C 
BRANCH  31  32
ATOM     32  C   UNL     1       1.285   1.439 -12.026  0.00  0.00    -0.040 C 
ATOM     33  C   UNL     1       2.291   2.084 -12.659  0.00  0.00    -0.001 A 
ATOM     34  C   UNL     1       3.740   2.139 -12.426  0.00  0.00    +0.010 A 
ATOM     35  C   UNL     1       4.508   2.890 -13.247  0.00  0.00    +0.001 A 
ATOM     36  C   UNL     1       3.958   3.616 -14.312  0.00  0.00    +0.002 A 
ATOM     37  C   UNL     1       2.636   3.616 -14.589  0.00  0.00    +0.026 A 
ATOM     38  C   UNL     1       1.735   2.860 -13.791  0.00  0.00    +0.043 A 
ATOM     39  N   UNL     1       0.435   2.700 -13.854  0.00  0.00    -0.380 N 
ATOM     40  C   UNL     1       0.021   1.800 -12.773  0.00  0.00    +0.144 C 
ATOM     41  H   UNL     1      -0.154   3.107 -14.509  0.00  0.00    +0.160 HD
ENDBRANCH  31  32
ENDBRANCH  30  31
ENDBRANCH  28  30
ENDBRANCH  25  26
ENDBRANCH  24  25
ENDBRANCH  22  24
ENDBRANCH   1  22
TORSDOF 8
