REMARK  Name = ZINC14137840
REMARK  6 active torsions:
REMARK  status: ('A' for Active; 'I' for Inactive)
REMARK    1  A    between atoms: C_1  and  O_2
REMARK    2  A    between atoms: O_2  and  C_3
REMARK    3  A    between atoms: C_15  and  N_16
REMARK    4  A    between atoms: C_17  and  C_19
REMARK    5  A    between atoms: C_19  and  N_51
REMARK    6  A    between atoms: C_24  and  C_26
REMARK                            x       y       z     vdW  Elec       q    Type
REMARK                         _______ _______ _______ _____ _____    ______ ____
ROOT
ATOM      1  N   UNL     1       4.104  -1.529   2.231  0.00  0.00    -0.284 N 
ATOM      2  C   UNL     1       3.891  -0.530   1.351  0.00  0.00    +0.201 C 
ATOM      3  O   UNL     1       4.807  -0.113   0.674  0.00  0.00    -0.278 OA
ATOM      4  H   UNL     1       3.389  -1.817   2.819  0.00  0.00    +0.155 HD
ENDROOT
BRANCH   1  17
ATOM      5  C   UNL     1       5.444  -3.504   2.626  0.00  0.00    +0.142 A 
ATOM      6  C   UNL     1       6.678  -4.122   2.686  0.00  0.00    +0.059 A 
ATOM      7  C   UNL     1       7.832  -3.388   2.425  0.00  0.00    +0.031 A 
ATOM      8  C   UNL     1       9.270  -3.717   2.404  0.00  0.00    +0.028 A 
ATOM      9  C   UNL     1       9.998  -4.879   2.638  0.00  0.00    +0.012 A 
ATOM     10  C   UNL     1      11.373  -4.856   2.535  0.00  0.00    +0.001 A 
ATOM     11  C   UNL     1      12.027  -3.680   2.201  0.00  0.00    +0.004 A 
ATOM     12  C   UNL     1      11.314  -2.523   1.967  0.00  0.00    +0.047 A 
ATOM     13  C   UNL     1       9.928  -2.526   2.065  0.00  0.00    +0.136 A 
ATOM     14  O   UNL     1       9.001  -1.558   1.893  0.00  0.00    -0.455 OA
ATOM     15  C   UNL     1       7.749  -2.027   2.097  0.00  0.00    +0.138 A 
ATOM     16  C   UNL     1       6.503  -1.418   2.034  0.00  0.00    +0.074 A 
ATOM     17  C   UNL     1       5.357  -2.151   2.295  0.00  0.00    +0.079 A 
BRANCH   5  19
ATOM     18  C   UNL     1       4.477  -5.595   3.218  0.00  0.00    +0.277 C 
ATOM     19  O   UNL     1       4.314  -4.215   2.885  0.00  0.00    -0.493 OA
ENDBRANCH   5  19
ENDBRANCH   1  17
BRANCH   2  20
ATOM     20  C   UNL     1       2.516   0.068   1.208  0.00  0.00    +0.020 C 
BRANCH  20  26
ATOM     21  C   UNL     1       2.914   0.392  -1.158  0.00  0.00    -0.077 C 
ATOM     22  C   UNL     1       2.761   1.387  -2.310  0.00  0.00    -0.019 C 
ATOM     23  C   UNL     1       3.638   2.612  -2.040  0.00  0.00    -0.003 C 
ATOM     24  C   UNL     1       3.234   3.234  -0.700  0.00  0.00    -0.006 C 
ATOM     25  C   UNL     1       3.373   2.185   0.406  0.00  0.00    +0.020 C 
ATOM     26  N   UNL     1       2.486   1.043   0.098  0.00  0.00    +0.393 N 
ATOM     27  H   UNL     1       1.526   1.388  -0.016  0.00  0.00    -0.080 HD
BRANCH  25  28
ATOM     28  C   UNL     1       2.957   2.787   1.724  0.00  0.00    +0.197 C 
ATOM     29  O   UNL     1       1.811   2.677   2.106  0.00  0.00    -0.278 OA
ATOM     30  N   UNL     1       3.857   3.451   2.475  0.00  0.00    -0.331 N 
ATOM     31  H   UNL     1       3.588   3.842   3.321  0.00  0.00    +0.145 HD
ATOM     32  H   UNL     1       4.773   3.539   2.169  0.00  0.00    +0.145 HD
ENDBRANCH  25  28
ENDBRANCH  20  26
ENDBRANCH   2  20
TORSDOF 5
