REMARK  Name = ZINC54524168
REMARK  4 active torsions:
REMARK  status: ('A' for Active; 'I' for Inactive)
REMARK    1  A    between atoms: C_4  and  N_6
REMARK    2  A    between atoms: N_9  and  CA_10
REMARK    3  A    between atoms: CA_10  and  C_12
REMARK    4  A    between atoms: CA_10  and  C_15
REMARK                            x       y       z     vdW  Elec       q    Type
REMARK                         _______ _______ _______ _____ _____    ______ ____
ROOT
ATOM      1  N   UNL     1       1.136  -1.207  -1.821  0.00  0.00    -0.297 N 
ATOM      2  C   UNL     1       0.974  -2.543  -1.742  0.00  0.00    +0.301 C 
ATOM      3  O   UNL     1       1.008  -3.096  -0.660  0.00  0.00    -0.253 OA
ATOM      4  N   UNL     1       0.774  -3.265  -2.863  0.00  0.00    -0.286 N 
ATOM      5  H   UNL     1       1.109  -0.765  -2.685  0.00  0.00    +0.151 HD
ATOM      6  H   UNL     1       0.747  -2.823  -3.726  0.00  0.00    +0.151 HD
ENDROOT
BRANCH   1  10
ATOM      7  C   UNL     1      -0.019   1.538   0.011  0.00  0.00    +0.002 C 
ATOM      8  C   UNL     1       1.477   1.939  -0.002  0.00  0.00    +0.002 C 
ATOM      9  C   UNL     1       2.107   0.881  -0.942  0.00  0.00    +0.022 C 
ATOM     10  C   UNL     1       1.353  -0.422  -0.604  0.00  0.00    +0.074 C 
ATOM     11  C   UNL     1       0.002  -0.004   0.002  0.00  0.00    +0.022 C 
ENDBRANCH   1  10
BRANCH   4  12
ATOM     12  CA  UNL     1       0.598  -4.716  -2.777  0.00  0.00    +0.191 C 
BRANCH  12  13
ATOM     13  C   UNL     1       1.006  -5.359  -4.104  0.00  0.00    +0.020 C 
ATOM     14  C   UNL     1       2.270  -6.221  -4.113  0.00  0.00    +0.006 C 
ATOM     15  C   UNL     1       0.893  -6.881  -4.216  0.00  0.00    +0.006 C 
ENDBRANCH  12  13
BRANCH  12  16
ATOM     16  C   UNL     1      -0.847  -5.031  -2.489  0.00  0.00    +0.376 C 
ATOM     17  O   UNL     1      -1.725  -4.283  -2.887  0.00  0.00    -0.244 OA
ATOM     18  OXT UNL     1      -1.140  -6.033  -1.860  0.00  0.00    -0.244 OA
ENDBRANCH  12  16
ENDBRANCH   4  12
TORSDOF 4
