REMARK  Name = ZINC10019708
REMARK  10 active torsions:
REMARK  status: ('A' for Active; 'I' for Inactive)
REMARK    1  A    between atoms: C_1  and  C_2
REMARK    2  A    between atoms: C_5  and  C_8
REMARK    3  A    between atoms: C_8  and  C_10
REMARK    4  A    between atoms: C_8  and  N_50
REMARK    5  A    between atoms: C_10  and  N_11
REMARK    6  A    between atoms: C_12  and  C_14
REMARK    7  A    between atoms: N_16  and  C_17
REMARK    8  A    between atoms: C_22  and  C_23
REMARK    9  A    between atoms: C_25  and  N_50
REMARK   10  A    between atoms: C_26  and  N_50
REMARK                            x       y       z     vdW  Elec       q    Type
REMARK                         _______ _______ _______ _____ _____    ______ ____
ROOT
ATOM      1  N   UNL     1      -1.222   6.276  -0.243  0.00  0.00    -0.309 N 
ATOM      2  C   UNL     1      -0.061   5.598  -0.150  0.00  0.00    +0.299 C 
ATOM      3  O   UNL     1       0.995   6.196  -0.173  0.00  0.00    -0.265 OA
ATOM      4  H   UNL     1      -2.066   5.798  -0.225  0.00  0.00    +0.149 HD
ENDROOT
BRANCH   2   5
ATOM      5  C   UNL     1      -0.074   4.110  -0.018  0.00  0.00    +0.303 C 
ATOM      6  O   UNL     1      -1.129   3.512   0.005  0.00  0.00    -0.265 OA
ATOM      7  N   UNL     1       1.087   3.432   0.075  0.00  0.00    -0.277 N 
ATOM      8  H   UNL     1       1.927   3.914   0.139  0.00  0.00    +0.155 HD
BRANCH   7   9
ATOM      9  C   UNL     1       1.082   2.035   0.080  0.00  0.00    +0.038 A 
ATOM     10  C   UNL     1       0.030   1.340  -0.506  0.00  0.00    +0.023 A 
ATOM     11  C   UNL     1       0.028  -0.040  -0.499  0.00  0.00    +0.003 A 
ATOM     12  C   UNL     1       1.070  -0.733   0.089  0.00  0.00    +0.020 A 
ATOM     13  C   UNL     1       2.119  -0.045   0.674  0.00  0.00    +0.046 A 
ATOM     14  C   UNL     1       2.127   1.337   0.671  0.00  0.00    -0.011 A 
ATOM     15  C   UNL     1       3.270   2.086   1.308  0.00  0.00    +0.047 C 
ATOM     16 CL   UNL     1       3.425  -0.919   1.411  0.00  0.00    -0.083 Cl
ENDBRANCH   7   9
ENDBRANCH   2   5
BRANCH   1  17
ATOM     17  C   UNL     1      -1.210   7.735  -0.373  0.00  0.00    +0.094 C 
BRANCH  17  18
ATOM     18  C   UNL     1      -2.647   8.251  -0.460  0.00  0.00    -0.021 C 
BRANCH  18  23
ATOM     19  C   UNL     1      -2.619  14.030  -0.495  0.00  0.00    +0.044 C 
ATOM     20  C   UNL     1      -2.626  12.523  -0.486  0.00  0.00    -0.050 A 
ATOM     21  C   UNL     1      -1.578  11.830   0.091  0.00  0.00    +0.003 A 
ATOM     22  C   UNL     1      -1.585  10.448   0.100  0.00  0.00    +0.002 A 
ATOM     23  C   UNL     1      -2.640   9.758  -0.469  0.00  0.00    -0.059 A 
ATOM     24  C   UNL     1      -3.685  10.451  -1.051  0.00  0.00    +0.002 A 
ATOM     25  C   UNL     1      -3.681  11.833  -1.055  0.00  0.00    +0.003 A 
ENDBRANCH  18  23
BRANCH  18  28
ATOM     26  C   UNL     1      -2.889   8.348   1.948  0.00  0.00    -0.096 C 
ATOM     27  C   UNL     1      -4.842   8.063   0.545  0.00  0.00    -0.096 C 
ATOM     28  N   UNL     1      -3.408   7.744   0.702  0.00  0.00    +0.382 N 
ATOM     29  H   UNL     1      -3.296   6.725   0.754  0.00  0.00    -0.082 HD
ENDBRANCH  18  28
ENDBRANCH  17  18
ENDBRANCH   1  17
TORSDOF 6
