REMARK  Name = ZINC41297873
REMARK  8 active torsions:
REMARK  status: ('A' for Active; 'I' for Inactive)
REMARK    1  A    between atoms: C_1  and  C_2
REMARK    2  A    between atoms: C_2  and  C_3
REMARK    3  A    between atoms: C_2  and  C_4
REMARK    4  A    between atoms: C_2  and  N_22
REMARK    5  A    between atoms: C_4  and  N_5
REMARK    6  A    between atoms: C_6  and  C_8
REMARK    7  A    between atoms: C_8  and  N_9
REMARK    8  A    between atoms: C_10  and  C_12
REMARK                            x       y       z     vdW  Elec       q    Type
REMARK                         _______ _______ _______ _____ _____    ______ ____
ROOT
ATOM      1  N   UNL     1      -1.390  -1.964  -0.383  0.00  0.00    -0.315 N 
ATOM      2  C   UNL     1      -2.527  -2.627  -0.672  0.00  0.00    +0.230 C 
ATOM      3  O   UNL     1      -3.574  -2.023  -0.768  0.00  0.00    -0.274 OA
ATOM      4  H   UNL     1      -0.553  -2.447  -0.306  0.00  0.00    +0.149 HD
ENDROOT
BRANCH   1   5
ATOM      5  C   UNL     1      -1.419  -0.512  -0.186  0.00  0.00    +0.092 C 
BRANCH   5   7
ATOM      6  C   UNL     1       0.812  -0.206  -1.269  0.00  0.00    -0.008 C 
ATOM      7  C   UNL     1       0.008   0.003   0.015  0.00  0.00    -0.055 C 
ATOM      8  C   UNL     1      -0.032   1.495   0.354  0.00  0.00    -0.008 C 
BRANCH   7   9
ATOM      9  N   UNL     1       0.643  -0.732   1.117  0.00  0.00    +0.384 N 
ATOM     10  C   UNL     1      -0.155  -0.569   2.337  0.00  0.00    -0.078 C 
ATOM     11  C   UNL     1       0.459  -1.399   3.467  0.00  0.00    -0.019 C 
ATOM     12  C   UNL     1       1.891  -0.922   3.724  0.00  0.00    -0.004 C 
ATOM     13  C   UNL     1       2.695  -1.027   2.425  0.00  0.00    -0.019 C 
ATOM     14  C   UNL     1       1.998  -0.211   1.333  0.00  0.00    -0.078 C 
ATOM     15  H   UNL     1       0.695  -1.712   0.880  0.00  0.00    -0.081 HD
ENDBRANCH   7   9
ENDBRANCH   5   7
ENDBRANCH   1   5
BRANCH   2  16
ATOM     16  C   UNL     1      -2.498  -4.120  -0.875  0.00  0.00    +0.200 C 
BRANCH  16  17
ATOM     17  N   UNL     1      -3.849  -4.599  -1.175  0.00  0.00    -0.306 N 
ATOM     18  C   UNL     1      -4.066  -5.911  -1.396  0.00  0.00    +0.220 C 
ATOM     19  O   UNL     1      -3.142  -6.695  -1.346  0.00  0.00    -0.275 OA
ATOM     20  H   UNL     1      -4.588  -3.972  -1.215  0.00  0.00    +0.149 HD
BRANCH  18  21
ATOM     21  C   UNL     1      -5.456  -6.403  -1.705  0.00  0.00    +0.048 C 
ATOM     22  C   UNL     1      -6.388  -6.066  -0.538  0.00  0.00    +0.019 C 
ATOM     23  C   UNL     1      -7.799  -6.566  -0.852  0.00  0.00    -0.009 C 
ATOM     24  C   UNL     1      -7.769  -8.082  -1.058  0.00  0.00    +0.007 C 
ATOM     25  C   UNL     1      -6.838  -8.419  -2.224  0.00  0.00    -0.009 C 
ATOM     26  C   UNL     1      -5.426  -7.919  -1.911  0.00  0.00    +0.019 C 
ATOM     27  C   UNL     1      -7.348  -7.741  -3.497  0.00  0.00    +0.007 C 
ATOM     28  C   UNL     1      -7.378  -6.225  -3.291  0.00  0.00    -0.009 C 
ATOM     29  C   UNL     1      -8.310  -5.888  -2.125  0.00  0.00    +0.007 C 
ATOM     30  C   UNL     1      -5.967  -5.725  -2.978  0.00  0.00    +0.019 C 
ENDBRANCH  18  21
ENDBRANCH  16  17
ENDBRANCH   2  16
TORSDOF 6
