REMARK  Name = ZINC66108323
REMARK  13 active torsions:
REMARK  status: ('A' for Active; 'I' for Inactive)
REMARK    1  A    between atoms: C_1  and  C_2
REMARK    2  A    between atoms: C_2  and  N_3
REMARK    3  A    between atoms: N_3  and  C_4
REMARK    4  A    between atoms: C_10  and  C_12
REMARK    5  A    between atoms: C_16  and  N_18
REMARK    6  A    between atoms: C_19  and  C_21
REMARK    7  A    between atoms: C_21  and  N_22
REMARK    8  A    between atoms: N_22  and  C_23
REMARK    9  A    between atoms: C_27  and  C_29
REMARK   10  A    between atoms: N_31  and  C_32
REMARK   11  A    between atoms: C_32  and  C_33
REMARK   12  A    between atoms: C_32  and  C_34
REMARK   13  A    between atoms: C_32  and  C_35
REMARK                            x       y       z     vdW  Elec       q    Type
REMARK                         _______ _______ _______ _____ _____    ______ ____
ROOT
ATOM      1  N   UNL     1      -3.933  -0.220  -4.875  0.00  0.00    -0.284 N 
ATOM      2  C   UNL     1      -5.213   0.173  -5.033  0.00  0.00    +0.234 C 
ATOM      3  O   UNL     1      -5.802   0.703  -4.115  0.00  0.00    -0.274 OA
ATOM      4  H   UNL     1      -3.438  -0.576  -5.629  0.00  0.00    +0.155 HD
ENDROOT
BRANCH   1   9
ATOM      5  C   UNL     1      -3.445  -0.197  -1.221  0.00  0.00    +0.039 A 
ATOM      6  C   UNL     1      -2.083   0.100  -1.145  0.00  0.00    +0.013 A 
ATOM      7  C   UNL     1      -1.351   0.285  -2.300  0.00  0.00    +0.003 A 
ATOM      8  C   UNL     1      -1.963   0.179  -3.535  0.00  0.00    +0.023 A 
ATOM      9  C   UNL     1      -3.319  -0.114  -3.622  0.00  0.00    +0.034 A 
ATOM     10  C   UNL     1      -4.061  -0.309  -2.467  0.00  0.00    +0.036 A 
BRANCH   5  12
ATOM     11  N   UNL     1      -3.870   0.232   1.152  0.00  0.00    -0.268 N 
ATOM     12  C   UNL     1      -4.231  -0.396   0.015  0.00  0.00    +0.251 C 
ATOM     13  O   UNL     1      -5.202  -1.127   0.007  0.00  0.00    -0.270 OA
BRANCH  11  14
ATOM     14  C   UNL     1      -4.554  -0.030   2.343  0.00  0.00    +0.037 A 
ATOM     15  C   UNL     1      -4.306   0.740   3.472  0.00  0.00    +0.023 A 
ATOM     16  C   UNL     1      -4.983   0.479   4.647  0.00  0.00    +0.002 A 
ATOM     17  C   UNL     1      -5.908  -0.548   4.700  0.00  0.00    +0.000 A 
ATOM     18  C   UNL     1      -6.158  -1.316   3.577  0.00  0.00    +0.002 A 
ATOM     19  C   UNL     1      -5.488  -1.056   2.398  0.00  0.00    +0.023 A 
ENDBRANCH  11  14
BRANCH  11  21
ATOM     20  C   UNL     1      -1.575   0.606   1.908  0.00  0.00    +0.025 C 
ATOM     21  C   UNL     1      -2.761   1.190   1.139  0.00  0.00    +0.110 C 
ENDBRANCH  11  21
ENDBRANCH   5  12
ENDBRANCH   1   9
BRANCH   2  22
ATOM     22  C   UNL     1      -5.911  -0.046  -6.351  0.00  0.00    +0.198 C 
BRANCH  22  23
ATOM     23  N   UNL     1      -7.282   0.464  -6.268  0.00  0.00    -0.335 N 
ATOM     24  H   UNL     1      -7.601   0.866  -5.444  0.00  0.00    +0.147 HD
BRANCH  23  25
ATOM     25  C   UNL     1      -8.129   0.372  -7.374  0.00  0.00    +0.028 A 
ATOM     26  C   UNL     1      -7.674  -0.209  -8.553  0.00  0.00    +0.023 A 
ATOM     27  C   UNL     1      -8.509  -0.303  -9.650  0.00  0.00    +0.003 A 
ATOM     28  C   UNL     1      -9.800   0.179  -9.583  0.00  0.00    +0.013 A 
ATOM     29  C   UNL     1     -10.268   0.764  -8.405  0.00  0.00    +0.038 A 
ATOM     30  C   UNL     1      -9.427   0.854  -7.296  0.00  0.00    +0.036 A 
BRANCH  29  31
ATOM     31  C   UNL     1     -11.651   1.282  -8.332  0.00  0.00    +0.245 C 
ATOM     32  O   UNL     1     -12.055   1.791  -7.305  0.00  0.00    -0.270 OA
ATOM     33  N   UNL     1     -12.463   1.189  -9.403  0.00  0.00    -0.307 N 
ATOM     34  H   UNL     1     -12.140   0.783 -10.223  0.00  0.00    +0.150 HD
BRANCH  33  35
ATOM     35  C   UNL     1     -13.833   1.702  -9.331  0.00  0.00    +0.026 C 
ATOM     36  C   UNL     1     -13.801   3.200  -9.019  0.00  0.00    +0.031 C 
ATOM     37  C   UNL     1     -14.534   1.475 -10.671  0.00  0.00    +0.031 C 
ATOM     38  C   UNL     1     -14.594   0.968  -8.225  0.00  0.00    +0.031 C 
ENDBRANCH  33  35
ENDBRANCH  29  31
ENDBRANCH  23  25
ENDBRANCH  22  23
ENDBRANCH   2  22
TORSDOF 9
