REMARK  Name = ZINC03104256
REMARK  6 active torsions:
REMARK  status: ('A' for Active; 'I' for Inactive)
REMARK    1  A    between atoms: C_6  and  C_7
REMARK    2  A    between atoms: N_14  and  C_17
REMARK    3  A    between atoms: C_17  and  C_18
REMARK    4  A    between atoms: C_18  and  N_19
REMARK    5  A    between atoms: N_19  and  C_20
REMARK    6  A    between atoms: C_23  and  C_25
REMARK                            x       y       z     vdW  Elec       q    Type
REMARK                         _______ _______ _______ _____ _____    ______ ____
ROOT
ATOM      1  C   UNL     1       5.949   7.872   2.299  0.00  0.00    +0.026 C 
ATOM      2  C   UNL     1       5.112   7.890   1.202  0.00  0.00    +0.100 C 
ATOM      3  C   UNL     1       5.410   8.723   0.018  0.00  0.00    +0.257 C 
ATOM      4  O   UNL     1       6.407   9.419  -0.021  0.00  0.00    -0.270 OA
ATOM      5  N   UNL     1       4.546   8.690  -1.017  0.00  0.00    -0.236 N 
ATOM      6  C   UNL     1       3.445   7.927  -0.987  0.00  0.00    +0.315 C 
ATOM      7  O   UNL     1       2.708   7.944  -1.953  0.00  0.00    -0.252 OA
ATOM      8  N   UNL     1       3.111   7.147   0.051  0.00  0.00    -0.220 N 
ATOM      9  C   UNL     1       3.877   7.082   1.160  0.00  0.00    +0.259 C 
ATOM     10  O   UNL     1       3.560   6.375   2.097  0.00  0.00    -0.269 OA
ATOM     11  H   UNL     1       4.727   9.230  -1.802  0.00  0.00    +0.159 HD
ENDROOT
BRANCH   1  17
ATOM     12  C   UNL     1       8.096   8.289   1.119  0.00  0.00    +0.009 A 
ATOM     13  C   UNL     1       9.330   8.897   1.056  0.00  0.00    +0.020 A 
ATOM     14  C   UNL     1       9.758   9.714   2.090  0.00  0.00    +0.041 A 
ATOM     15  C   UNL     1       8.946   9.933   3.193  0.00  0.00    +0.020 A 
ATOM     16  C   UNL     1       7.706   9.338   3.269  0.00  0.00    +0.009 A 
ATOM     17  C   UNL     1       7.266   8.509   2.227  0.00  0.00    -0.024 A 
ATOM     18 CL   UNL     1      11.319  10.470   2.005  0.00  0.00    -0.084 Cl
ENDBRANCH   1  17
BRANCH   8  19
ATOM     19  C   UNL     1       1.883   6.352  -0.018  0.00  0.00    +0.137 C 
BRANCH  19  20
ATOM     20  C   UNL     1       2.196   4.982  -0.625  0.00  0.00    +0.122 C 
BRANCH  20  21
ATOM     21  N   UNL     1       0.968   4.187  -0.694  0.00  0.00    -0.328 N 
ATOM     22  H   UNL     1       0.130   4.559  -0.377  0.00  0.00    +0.147 HD
BRANCH  21  23
ATOM     23  C   UNL     1       1.003   2.897  -1.213  0.00  0.00    +0.115 A 
ATOM     24  C   UNL     1      -0.168   2.146  -1.276  0.00  0.00    +0.079 A 
ATOM     25  C   UNL     1      -0.118   0.865  -1.795  0.00  0.00    +0.037 A 
ATOM     26  C   UNL     1       1.105   0.376  -2.236  0.00  0.00    +0.072 A 
ATOM     27  C   UNL     1       2.226   1.175  -2.144  0.00  0.00    +0.096 A 
ATOM     28 CL   UNL     1      -1.671   2.811  -0.717  0.00  0.00    -0.080 Cl
ATOM     29  N   UNL     1       2.215   2.439  -1.639  0.00  0.00    -0.348 N 
ATOM     30  H   UNL     1       3.065   3.011  -1.583  0.00  0.00    +0.167 HD
BRANCH  26  31
ATOM     31  C   UNL     1       1.207  -1.015  -2.808  0.00  0.00    +0.419 C 
ATOM     32  F   UNL     1       0.996  -0.966  -4.191  0.00  0.00    -0.166 F 
ATOM     33  F   UNL     1       2.480  -1.534  -2.549  0.00  0.00    -0.166 F 
ATOM     34  F   UNL     1       0.240  -1.835  -2.217  0.00  0.00    -0.166 F 
ENDBRANCH  26  31
ENDBRANCH  21  23
ENDBRANCH  20  21
ENDBRANCH  19  20
ENDBRANCH   8  19
TORSDOF 6
