REMARK  Name = ZINC22198583
REMARK  7 active torsions:
REMARK  status: ('A' for Active; 'I' for Inactive)
REMARK    1  A    between atoms: C_3  and  S_23
REMARK    2  A    between atoms: C_6  and  N_7
REMARK    3  A    between atoms: C_8  and  C_10
REMARK    4  A    between atoms: C_10  and  C_11
REMARK    5  A    between atoms: C_11  and  N_12
REMARK    6  A    between atoms: C_16  and  C_19
REMARK    7  A    between atoms: S_23  and  N_26
REMARK                            x       y       z     vdW  Elec       q    Type
REMARK                         _______ _______ _______ _____ _____    ______ ____
ROOT
ATOM      1  N   UNL     1       1.162   3.485   0.009  0.00  0.00    -0.286 N 
ATOM      2  C   UNL     1       2.318   4.171   0.104  0.00  0.00    +0.215 C 
ATOM      3  O   UNL     1       3.377   3.580   0.091  0.00  0.00    -0.276 OA
ATOM      4  H   UNL     1       0.206   4.025  -0.067  0.00  0.00    +0.155 HD
ENDROOT
BRANCH   1  10
ATOM      5  C   UNL     1       2.133   1.400   0.745  0.00  0.00    +0.025 A 
ATOM      6  C   UNL     1       2.145   0.019   0.741  0.00  0.00    +0.030 A 
ATOM      7  C   UNL     1       1.206  -0.681   0.005  0.00  0.00    +0.105 A 
ATOM      8  C   UNL     1       0.253  -0.000  -0.730  0.00  0.00    +0.030 A 
ATOM      9  C   UNL     1       0.236   1.381  -0.731  0.00  0.00    +0.025 A 
ATOM     10  C   UNL     1       1.177   2.086   0.008  0.00  0.00    +0.033 A 
BRANCH   7  11
ATOM     11  S   UNL     1       1.225  -2.443   0.004  0.00  0.00    +0.056 S 
ATOM     12  O   UNL     1       0.585  -2.854  -1.196  0.00  0.00    -0.153 OA
ATOM     13  O   UNL     1       2.551  -2.835   0.332  0.00  0.00    -0.153 OA
BRANCH  11  14
ATOM     14  N   UNL     1       0.260  -2.944   1.252  0.00  0.00    -0.204 NA
ATOM     15  H   UNL     1       0.245  -4.043   1.285  0.00  0.00    +0.144 HD
ATOM     16  H   UNL     1      -0.762  -2.568   1.099  0.00  0.00    +0.144 HD
ENDBRANCH  11  14
ENDBRANCH   7  11
ENDBRANCH   1  10
BRANCH   2  17
ATOM     17  C   UNL     1       2.295   5.673   0.225  0.00  0.00    +0.077 C 
BRANCH  17  18
ATOM     18  C   UNL     1       3.729   6.200   0.316  0.00  0.00    -0.070 C 
BRANCH  18  19
ATOM     19  N   UNL     1       3.706   7.664   0.434  0.00  0.00    +0.380 N 
ATOM     20  C   UNL     1       3.100   8.080   1.705  0.00  0.00    -0.079 C 
ATOM     21  C   UNL     1       3.225   9.598   1.859  0.00  0.00    -0.018 C 
ATOM     22  C   UNL     1       2.519  10.284   0.686  0.00  0.00    +0.008 C 
ATOM     23  C   UNL     1       3.136   9.797  -0.627  0.00  0.00    +0.077 C 
ATOM     24  C   UNL     1       3.014   8.274  -0.709  0.00  0.00    -0.067 C 
ATOM     25  H   UNL     1       4.746   8.021   0.425  0.00  0.00    -0.082 HD
BRANCH  23  26
ATOM     26  C   UNL     1       2.397  10.433  -1.806  0.00  0.00    +0.391 C 
ATOM     27  F   UNL     1       2.506  11.826  -1.728  0.00  0.00    -0.171 F 
ATOM     28  F   UNL     1       2.962   9.988  -3.006  0.00  0.00    -0.171 F 
ATOM     29  F   UNL     1       1.047  10.068  -1.762  0.00  0.00    -0.171 F 
ENDBRANCH  23  26
ENDBRANCH  18  19
ENDBRANCH  17  18
ENDBRANCH   2  17
TORSDOF 7
