REMARK  Name = ZINC39631983
REMARK  13 active torsions:
REMARK  status: ('A' for Active; 'I' for Inactive)
REMARK    1  A    between atoms: C_1  and  C_2
REMARK    2  A    between atoms: C_2  and  C_4
REMARK    3  A    between atoms: C_2  and  N_11
REMARK    4  A    between atoms: C_4  and  C_5
REMARK    5  A    between atoms: C_5  and  C_6
REMARK    6  A    between atoms: C_6  and  C_7
REMARK    7  A    between atoms: C_7  and  C_8
REMARK    8  A    between atoms: C_7  and  C_9
REMARK    9  A    between atoms: C_7  and  O_10
REMARK   10  A    between atoms: C_12  and  C_14
REMARK   11  A    between atoms: C_25  and  C_27
REMARK   12  A    between atoms: C_30  and  O_34
REMARK   13  A    between atoms: O_34  and  C_35
REMARK                            x       y       z     vdW  Elec       q    Type
REMARK                         _______ _______ _______ _____ _____    ______ ____
ROOT
ATOM      1  C   UNL     1      -4.042  -1.422  -0.878  0.00  0.00    +0.100 C 
ATOM      2  C   UNL     1      -4.676  -0.290  -0.040  0.00  0.00    +0.121 C 
ATOM      3  N   UNL     1      -5.231   0.651  -1.042  0.00  0.00    -0.296 N 
ATOM      4  C   UNL     1      -5.794  -0.224  -2.097  0.00  0.00    +0.115 C 
ATOM      5  C   UNL     1      -4.780  -1.378  -2.226  0.00  0.00    -0.004 C 
ATOM      6  C   UNL     1      -3.798  -1.092  -3.357  0.00  0.00    -0.010 C 
ATOM      7  C   UNL     1      -4.546  -1.109  -4.693  0.00  0.00    -0.082 C 
ATOM      8  N   UNL     1      -5.177  -2.420  -4.886  0.00  0.00    +0.379 N 
ATOM      9  C   UNL     1      -6.188  -2.648  -3.845  0.00  0.00    -0.082 C 
ATOM     10  C   UNL     1      -5.509  -2.695  -2.474  0.00  0.00    -0.010 C 
ATOM     11  C   UNL     1      -5.224   1.998  -1.002  0.00  0.00    +0.247 C 
ATOM     12  O   UNL     1      -4.611   2.578  -0.126  0.00  0.00    -0.270 OA
ATOM     13  H   UNL     1      -5.618  -2.450  -5.793  0.00  0.00    -0.086 HD
ATOM     14  H   UNL     1      -4.474  -3.142  -4.833  0.00  0.00    -0.086 HD
ENDROOT
BRANCH  11  15
ATOM     15  C   UNL     1      -5.960   2.771  -2.022  0.00  0.00    +0.040 A 
ATOM     16  C   UNL     1      -6.995   2.170  -2.743  0.00  0.00    +0.036 A 
ATOM     17  C   UNL     1      -7.680   2.894  -3.695  0.00  0.00    +0.085 A 
ATOM     18  C   UNL     1      -7.342   4.221  -3.938  0.00  0.00    +0.157 A 
ATOM     19  C   UNL     1      -6.312   4.822  -3.222  0.00  0.00    +0.085 A 
ATOM     20  C   UNL     1      -5.627   4.106  -2.265  0.00  0.00    +0.036 A 
ATOM     21 CL   UNL     1      -5.894   6.479  -3.530  0.00  0.00    -0.080 Cl
ATOM     22 CL   UNL     1      -8.966   2.149  -4.592  0.00  0.00    -0.080 Cl
BRANCH  18  23
ATOM     23  O   UNL     1      -8.018   4.931  -4.877  0.00  0.00    -0.492 OA
ATOM     24  C   UNL     1      -9.177   5.645  -4.440  0.00  0.00    +0.277 C 
ENDBRANCH  18  23
ENDBRANCH  11  15
BRANCH   1  26
ATOM     25  N   UNL     1      -1.733  -2.196  -1.311  0.00  0.00    -0.312 N 
ATOM     26  C   UNL     1      -2.570  -1.166  -1.077  0.00  0.00    +0.218 C 
ATOM     27  O   UNL     1      -2.139  -0.034  -1.026  0.00  0.00    -0.275 OA
ATOM     28  H   UNL     1      -2.077  -3.102  -1.352  0.00  0.00    +0.149 HD
BRANCH  25  30
ATOM     29  C   UNL     1       0.393  -1.883  -0.143  0.00  0.00    +0.028 C 
ATOM     30  C   UNL     1      -0.302  -1.947  -1.505  0.00  0.00    +0.070 C 
BRANCH  30  31
ATOM     31  C   UNL     1       0.305  -3.080  -2.334  0.00  0.00    +0.022 C 
BRANCH  31  32
ATOM     32  C   UNL     1      -0.302  -3.066  -3.739  0.00  0.00    +0.005 C 
BRANCH  32  33
ATOM     33  C   UNL     1       0.305  -4.199  -4.568  0.00  0.00    +0.034 C 
BRANCH  33  34
ATOM     34  C   UNL     1      -0.301  -4.184  -5.973  0.00  0.00    +0.061 C 
ATOM     35  C   UNL     1       0.211  -5.390  -6.762  0.00  0.00    +0.041 C 
ATOM     36  C   UNL     1      -1.827  -4.253  -5.870  0.00  0.00    +0.041 C 
BRANCH  34  37
ATOM     37  O   UNL     1       0.077  -2.980  -6.643  0.00  0.00    -0.389 OA
ATOM     38  H   UNL     1      -0.273  -2.903  -7.541  0.00  0.00    +0.210 HD
ENDBRANCH  34  37
ENDBRANCH  33  34
ENDBRANCH  32  33
ENDBRANCH  31  32
ENDBRANCH  30  31
ENDBRANCH  25  30
ENDBRANCH   1  26
TORSDOF 9
