REMARK  Name = ZINC65520056
REMARK  8 active torsions:
REMARK  status: ('A' for Active; 'I' for Inactive)
REMARK    1  A    between atoms: C_1  and  C_2
REMARK    2  A    between atoms: C_2  and  C_3
REMARK    3  A    between atoms: C_2  and  N_4
REMARK    4  A    between atoms: C_7  and  C_9
REMARK    5  A    between atoms: C_9  and  N_10
REMARK    6  A    between atoms: N_13  and  C_14
REMARK    7  A    between atoms: C_19  and  C_20
REMARK    8  A    between atoms: C_20  and  N_21
REMARK                            x       y       z     vdW  Elec       q    Type
REMARK                         _______ _______ _______ _____ _____    ______ ____
ROOT
ATOM      1  N   UNL     1      -4.661  -2.233  -2.974  0.00  0.00    -0.299 N 
ATOM      2  C   UNL     1      -5.084  -2.603  -4.200  0.00  0.00    +0.304 C 
ATOM      3  O   UNL     1      -4.518  -2.182  -5.190  0.00  0.00    -0.253 OA
ATOM      4  N   UNL     1      -6.134  -3.438  -4.327  0.00  0.00    -0.269 N 
ATOM      5  H   UNL     1      -5.113  -2.569  -2.184  0.00  0.00    +0.150 HD
ATOM      6  H   UNL     1      -6.545  -3.824  -3.538  0.00  0.00    +0.156 HD
ENDROOT
BRANCH   4   7
ATOM      7  C   UNL     1      -6.631  -3.749  -5.598  0.00  0.00    +0.039 A 
ATOM      8  C   UNL     1      -5.764  -3.853  -6.678  0.00  0.00    +0.023 A 
ATOM      9  C   UNL     1      -6.257  -4.160  -7.931  0.00  0.00    +0.002 A 
ATOM     10  C   UNL     1      -7.613  -4.363  -8.110  0.00  0.00    +0.000 A 
ATOM     11  C   UNL     1      -8.479  -4.260  -7.037  0.00  0.00    +0.007 A 
ATOM     12  C   UNL     1      -7.991  -3.959  -5.780  0.00  0.00    -0.009 A 
BRANCH  12  13
ATOM     13  C   UNL     1      -8.934  -3.853  -4.610  0.00  0.00    +0.142 C 
BRANCH  13  14
ATOM     14  N   UNL     1      -9.226  -2.442  -4.344  0.00  0.00    -0.325 N 
ATOM     15  C   UNL     1      -8.453  -1.580  -3.446  0.00  0.00    +0.110 C 
ATOM     16  C   UNL     1      -9.148  -0.210  -3.506  0.00  0.00    +0.056 C 
ATOM     17  C   UNL     1     -10.299  -0.410  -4.466  0.00  0.00    -0.025 A 
ATOM     18  C   UNL     1     -10.277  -1.722  -4.914  0.00  0.00    +0.033 A 
ATOM     19  C   UNL     1     -11.249  -2.145  -5.822  0.00  0.00    +0.023 A 
ATOM     20  C   UNL     1     -12.213  -1.265  -6.268  0.00  0.00    +0.002 A 
ATOM     21  C   UNL     1     -12.224   0.042  -5.819  0.00  0.00    +0.000 A 
ATOM     22  C   UNL     1     -11.270   0.466  -4.912  0.00  0.00    +0.005 A 
ENDBRANCH  13  14
ENDBRANCH  12  13
ENDBRANCH   4   7
BRANCH   1  23
ATOM     23  C   UNL     1      -3.520  -1.325  -2.836  0.00  0.00    +0.107 C 
BRANCH  23  27
ATOM     24  N   UNL     1      -1.340  -0.562   0.005  0.00  0.00    +0.381 N 
ATOM     25  C   UNL     1      -1.357  -2.041  -0.137  0.00  0.00    -0.078 C 
ATOM     26  C   UNL     1      -2.772  -2.364  -0.663  0.00  0.00    -0.015 C 
ATOM     27  C   UNL     1      -3.249  -1.069  -1.352  0.00  0.00    -0.012 C 
ATOM     28  C   UNL     1      -2.082  -0.072  -1.184  0.00  0.00    -0.074 C 
ATOM     29  H   UNL     1      -1.808  -0.282   0.854  0.00  0.00    -0.081 HD
BRANCH  24  31
ATOM     30  C   UNL     1       0.029   1.469   0.008  0.00  0.00    -0.014 C 
ATOM     31  C   UNL     1       0.041  -0.061  -0.009  0.00  0.00    -0.075 C 
ATOM     32  C   UNL     1       0.784  -0.579   1.224  0.00  0.00    -0.014 C 
ENDBRANCH  24  31
ENDBRANCH  23  27
ENDBRANCH   1  23
TORSDOF 6
