REMARK  Name = ZINC57663509
REMARK  11 active torsions:
REMARK  status: ('A' for Active; 'I' for Inactive)
REMARK    1  A    between atoms: C_1  and  C_2
REMARK    2  A    between atoms: C_2  and  C_3
REMARK    3  A    between atoms: C_2  and  N_4
REMARK    4  A    between atoms: N_4  and  C_5
REMARK    5  A    between atoms: N_4  and  C_18
REMARK    6  A    between atoms: C_5  and  C_6
REMARK    7  A    between atoms: C_6  and  C_7
REMARK    8  A    between atoms: C_7  and  C_9
REMARK    9  A    between atoms: C_7  and  O_17
REMARK   10  A    between atoms: C_13  and  N_15
REMARK   11  A    between atoms: C_18  and  C_19
REMARK                            x       y       z     vdW  Elec       q    Type
REMARK                         _______ _______ _______ _____ _____    ______ ____
ROOT
ATOM      1  C   UNL     1      -3.525   1.236  -0.967  0.00  0.00    +0.017 C 
ENDROOT
BRANCH   1   2
ATOM      2  C   UNL     1      -2.913  -0.151  -1.177  0.00  0.00    -0.075 C 
BRANCH   2   3
ATOM      3  N   UNL     1      -2.481  -0.697   0.116  0.00  0.00    +0.384 N 
ATOM      4  H   UNL     1      -3.273  -0.759   0.737  0.00  0.00    -0.081 HD
BRANCH   3   6
ATOM      5  C   UNL     1      -1.130  -0.294   2.119  0.00  0.00    -0.014 C 
ATOM      6  C   UNL     1      -1.466   0.187   0.706  0.00  0.00    -0.074 C 
ATOM      7  C   UNL     1      -0.202   0.159  -0.157  0.00  0.00    -0.014 C 
ENDBRANCH   3   6
BRANCH   3   8
ATOM      8  C   UNL     1      -1.908  -2.035  -0.084  0.00  0.00    -0.043 C 
BRANCH   8   9
ATOM      9  C   UNL     1      -1.623  -2.664   1.256  0.00  0.00    -0.064 A 
ATOM     10  C   UNL     1      -0.343  -3.088   1.561  0.00  0.00    +0.002 A 
ATOM     11  C   UNL     1      -0.081  -3.666   2.790  0.00  0.00    +0.000 A 
ATOM     12  C   UNL     1      -1.099  -3.818   3.713  0.00  0.00    +0.000 A 
ATOM     13  C   UNL     1      -2.378  -3.393   3.408  0.00  0.00    +0.000 A 
ATOM     14  C   UNL     1      -2.639  -2.812   2.181  0.00  0.00    +0.002 A 
ENDBRANCH   8   9
ENDBRANCH   3   8
ENDBRANCH   2   3
ENDBRANCH   1   2
BRANCH   1  15
ATOM     15  C   UNL     1      -4.020   1.783  -2.307  0.00  0.00    +0.143 C 
BRANCH  15  16
ATOM     16  C   UNL     1      -4.731   3.093  -2.083  0.00  0.00    -0.017 A 
ATOM     17  C   UNL     1      -4.008   4.270  -2.025  0.00  0.00    +0.009 A 
ATOM     18  C   UNL     1      -4.657   5.474  -1.819  0.00  0.00    +0.040 A 
ATOM     19  C   UNL     1      -6.031   5.504  -1.671  0.00  0.00    +0.144 A 
ATOM     20  C   UNL     1      -6.760   4.321  -1.728  0.00  0.00    +0.061 A 
ATOM     21  C   UNL     1      -6.105   3.115  -1.941  0.00  0.00    +0.031 A 
ATOM     22  F   UNL     1      -6.664   6.680  -1.469  0.00  0.00    -0.204 F 
BRANCH  20  23
ATOM     23  N   UNL     1      -8.150   4.346  -1.579  0.00  0.00    -0.356 N 
ATOM     24  H   UNL     1      -8.607   5.190  -1.434  0.00  0.00    +0.142 HD
ATOM     25  H   UNL     1      -8.658   3.521  -1.619  0.00  0.00    +0.142 HD
ENDBRANCH  20  23
ENDBRANCH  15  16
BRANCH  15  26
ATOM     26  O   UNL     1      -2.906   1.990  -3.178  0.00  0.00    -0.387 OA
ATOM     27  H   UNL     1      -2.251   2.615  -2.838  0.00  0.00    +0.210 HD
ENDBRANCH  15  26
ENDBRANCH   1  15
TORSDOF 9
