REMARK  Name = ZINC23125400
REMARK  10 active torsions:
REMARK  status: ('A' for Active; 'I' for Inactive)
REMARK    1  A    between atoms: C_1  and  C_2
REMARK    2  A    between atoms: C_7  and  C_8
REMARK    3  A    between atoms: C_10  and  C_13
REMARK    4  A    between atoms: C_14  and  N_32
REMARK    5  A    between atoms: N_15  and  C_20
REMARK    6  A    between atoms: N_18  and  C_19
REMARK    7  A    between atoms: C_20  and  C_21
REMARK    8  A    between atoms: N_23  and  C_24
REMARK    9  A    between atoms: C_25  and  C_31
REMARK   10  A    between atoms: C_29  and  C_30
REMARK                            x       y       z     vdW  Elec       q    Type
REMARK                         _______ _______ _______ _____ _____    ______ ____
ROOT
ATOM      1  C   UNL     1      -1.748   0.849   0.176  0.00  0.00    +0.117 A 
ATOM      2  C   UNL     1      -1.287   2.147  -0.020  0.00  0.00    +0.127 A 
ATOM      3  N   UNL     1      -2.323   2.979   0.217  0.00  0.00    -0.262 N 
ATOM      4  N   UNL     1      -3.442   2.212   0.557  0.00  0.00    -0.282 N 
ATOM      5  C   UNL     1      -3.115   0.945   0.542  0.00  0.00    +0.127 A 
ATOM      6  N   UNL     1      -3.963  -0.125   0.831  0.00  0.00    -0.332 N 
ATOM      7  C   UNL     1      -5.360   0.126   1.197  0.00  0.00    +0.127 C 
ATOM      8  H   UNL     1      -3.584  -1.157   0.784  0.00  0.00    +0.147 HD
ATOM      9  H   UNL     1      -4.399   2.705   0.782  0.00  0.00    +0.188 HD
ENDROOT
BRANCH   1  12
ATOM     10  C   UNL     1      -0.341  -2.420  -0.028  0.00  0.00    +0.203 A 
ATOM     11  N   UNL     1      -1.402  -1.623   0.216  0.00  0.00    -0.187 NA
ATOM     12  C   UNL     1      -0.966  -0.387   0.031  0.00  0.00    +0.265 A 
ATOM     13  O   UNL     1       0.327  -0.481  -0.321  0.00  0.00    -0.332 OA
ATOM     14  N   UNL     1       0.666  -1.645  -0.344  0.00  0.00    -0.056 NA
BRANCH  10  21
ATOM     15  C   UNL     1       2.105  -3.849  -0.615  0.00  0.00    +0.044 C 
ATOM     16  C   UNL     1       0.854  -4.599  -0.235  0.00  0.00    -0.040 A 
ATOM     17  C   UNL     1       0.869  -5.977  -0.164  0.00  0.00    +0.004 A 
ATOM     18  C   UNL     1      -0.278  -6.667   0.186  0.00  0.00    +0.000 A 
ATOM     19  C   UNL     1      -1.446  -5.979   0.465  0.00  0.00    +0.001 A 
ATOM     20  C   UNL     1      -1.470  -4.601   0.402  0.00  0.00    +0.012 A 
ATOM     21  C   UNL     1      -0.319  -3.902   0.046  0.00  0.00    +0.025 A 
ENDBRANCH  10  21
ENDBRANCH   1  12
BRANCH   2  22
ATOM     22  N   UNL     1      -0.006   2.516  -0.387  0.00  0.00    -0.343 N 
ATOM     23  H   UNL     1       0.245   3.580  -0.513  0.00  0.00    +0.144 HD
ATOM     24  H   UNL     1       0.761   1.746  -0.553  0.00  0.00    +0.144 HD
ENDBRANCH   2  22
BRANCH   3  25
ATOM     25  C   UNL     1      -2.283   4.440   0.126  0.00  0.00    +0.239 C 
BRANCH  25  26
ATOM     26  C   UNL     1      -2.642   4.867  -1.274  0.00  0.00    +0.239 C 
ATOM     27  O   UNL     1      -2.905   4.032  -2.114  0.00  0.00    -0.273 OA
ATOM     28  N   UNL     1      -2.671   6.176  -1.594  0.00  0.00    -0.284 N 
ATOM     29  H   UNL     1      -2.491   6.935  -0.819  0.00  0.00    +0.155 HD
BRANCH  28  30
ATOM     30  C   UNL     1      -2.930   6.569  -2.911  0.00  0.00    +0.039 A 
ATOM     31  C   UNL     1      -2.187   6.035  -3.956  0.00  0.00    -0.029 A 
ATOM     32  C   UNL     1      -2.448   6.421  -5.256  0.00  0.00    +0.005 A 
ATOM     33  C   UNL     1      -3.442   7.346  -5.517  0.00  0.00    +0.001 A 
ATOM     34  C   UNL     1      -4.180   7.884  -4.479  0.00  0.00    +0.005 A 
ATOM     35  C   UNL     1      -3.927   7.498  -3.177  0.00  0.00    -0.029 A 
ATOM     36  C   UNL     1      -4.733   8.084  -2.046  0.00  0.00    +0.045 C 
ATOM     37  C   UNL     1      -1.100   5.030  -3.671  0.00  0.00    +0.045 C 
ENDBRANCH  28  30
ENDBRANCH  25  26
ENDBRANCH   3  25
TORSDOF 6
