REMARK  Name = ZINC05048059
REMARK  10 active torsions:
REMARK  status: ('A' for Active; 'I' for Inactive)
REMARK    1  A    between atoms: C_1  and  O_2
REMARK    2  A    between atoms: O_2  and  C_3
REMARK    3  A    between atoms: C_6  and  C_11
REMARK    4  A    between atoms: C_7  and  O_9
REMARK    5  A    between atoms: O_9  and  C_10
REMARK    6  A    between atoms: C_11  and  C_13
REMARK    7  A    between atoms: C_14  and  N_15
REMARK    8  A    between atoms: N_15  and  C_16
REMARK    9  A    between atoms: C_19  and  S_22
REMARK   10  A    between atoms: S_22  and  N_25
REMARK                            x       y       z     vdW  Elec       q    Type
REMARK                         _______ _______ _______ _____ _____    ______ ____
ROOT
ATOM      1  C   UNL     1      -2.234   3.550   3.924  0.00  0.00    +0.031 A 
ATOM      2  C   UNL     1      -2.211   2.179   3.702  0.00  0.00    +0.025 A 
ATOM      3  C   UNL     1      -1.409   1.655   2.708  0.00  0.00    +0.031 A 
ATOM      4  C   UNL     1      -0.629   2.494   1.933  0.00  0.00    +0.111 A 
ATOM      5  C   UNL     1      -0.645   3.859   2.154  0.00  0.00    +0.031 A 
ATOM      6  C   UNL     1      -1.450   4.390   3.143  0.00  0.00    +0.025 A 
ENDROOT
BRANCH   4   7
ATOM      7  S   UNL     1       0.394   1.822   0.665  0.00  0.00    +0.080 S 
ATOM      8  O   UNL     1       0.649   0.470   1.023  0.00  0.00    -0.148 OA
ATOM      9  O   UNL     1       1.437   2.761   0.444  0.00  0.00    -0.148 OA
BRANCH   7  10
ATOM     10  N   UNL     1      -0.509   1.782  -0.722  0.00  0.00    -0.228 N 
ATOM     11  C   UNL     1      -0.933   2.955  -1.301  0.00  0.00    +0.186 C 
ATOM     12  H   UNL     1      -0.876   4.980  -1.090  0.00  0.00    +0.159 HD
ATOM     13  N   UNL     1      -1.682   2.922  -2.453  0.00  0.00    -0.370 N 
ATOM     14  H   UNL     1      -0.739   0.931  -1.127  0.00  0.00    +0.191 HD
ATOM     15  H   UNL     1      -1.912   2.071  -2.858  0.00  0.00    +0.159 HD
ATOM     16  H   UNL     1      -1.981   3.749  -2.861  0.00  0.00    +0.159 HD
ATOM     17  N   UNL     1      -0.586   4.083  -0.699  0.00  0.00    -0.370 N 
ATOM     18  H   UNL     1      -0.024   4.056   0.160  0.00  0.00    +0.159 HD
ENDBRANCH   7  10
ENDBRANCH   4   7
BRANCH   1  19
ATOM     19  N   UNL     1      -3.045   4.083   4.930  0.00  0.00    -0.320 N 
ATOM     20  H   UNL     1      -3.591   3.495   5.474  0.00  0.00    +0.152 HD
BRANCH  19  22
ATOM     21  C   UNL     1      -3.850   5.948   6.119  0.00  0.00    +0.066 C 
ATOM     22  C   UNL     1      -3.067   5.433   5.146  0.00  0.00    +0.076 C 
BRANCH  21  23
ATOM     23  C   UNL     1      -3.873   7.344   6.343  0.00  0.00    +0.191 C 
ATOM     24  O   UNL     1      -3.186   8.082   5.659  0.00  0.00    -0.287 OA
BRANCH  23  28
ATOM     25  C   UNL     1      -6.338   8.965   9.403  0.00  0.00    +0.124 A 
ATOM     26  C   UNL     1      -6.314   7.591   9.181  0.00  0.00    +0.046 A 
ATOM     27  C   UNL     1      -5.522   7.063   8.188  0.00  0.00    +0.019 A 
ATOM     28  C   UNL     1      -4.728   7.907   7.405  0.00  0.00    +0.064 A 
ATOM     29  C   UNL     1      -4.753   9.291   7.630  0.00  0.00    +0.134 A 
ATOM     30  C   UNL     1      -5.558   9.811   8.628  0.00  0.00    +0.092 A 
BRANCH  25  32
ATOM     31  C   UNL     1      -7.903   8.551  11.141  0.00  0.00    +0.277 C 
ATOM     32  O   UNL     1      -7.126   9.478  10.381  0.00  0.00    -0.495 OA
ENDBRANCH  25  32
BRANCH  29  33
ATOM     33  O   UNL     1      -3.990  10.117   6.871  0.00  0.00    -0.494 OA
ATOM     34  C   UNL     1      -4.066  11.516   7.157  0.00  0.00    +0.277 C 
ENDBRANCH  29  33
ENDBRANCH  23  28
ENDBRANCH  21  23
ENDBRANCH  19  22
ENDBRANCH   1  19
TORSDOF 8
