REMARK  Name = ZINC06757617
REMARK  11 active torsions:
REMARK  status: ('A' for Active; 'I' for Inactive)
REMARK    1  A    between atoms: C_1  and  C_2
REMARK    2  A    between atoms: C_2  and  S_3
REMARK    3  A    between atoms: S_3  and  C_4
REMARK    4  A    between atoms: C_11  and  N_13
REMARK    5  A    between atoms: N_13  and  C_14
REMARK    6  A    between atoms: C_14  and  C_15
REMARK    7  A    between atoms: C_15  and  C_16
REMARK    8  A    between atoms: C_16  and  C_17
REMARK    9  A    between atoms: C_17  and  N_50
REMARK   10  A    between atoms: C_19  and  C_22
REMARK   11  A    between atoms: C_19  and  C_23
REMARK                            x       y       z     vdW  Elec       q    Type
REMARK                         _______ _______ _______ _____ _____    ______ ____
ROOT
ATOM      1  C   UNL     1      -4.178   5.159  -2.761  0.00  0.00    +0.191 A 
ATOM      2  N   UNL     1      -3.229   4.759  -1.931  0.00  0.00    -0.221 NA
ATOM      3  C   UNL     1      -3.432   3.606  -1.239  0.00  0.00    +0.090 A 
ATOM      4  C   UNL     1      -2.554   3.014  -0.315  0.00  0.00    +0.015 A 
ATOM      5  C   UNL     1      -2.950   1.852   0.270  0.00  0.00    +0.001 A 
ATOM      6  S   UNL     1      -4.549   1.516  -0.420  0.00  0.00    -0.088 S 
ATOM      7  C   UNL     1      -4.655   2.928  -1.472  0.00  0.00    +0.078 A 
ATOM      8  C   UNL     1      -5.623   3.383  -2.351  0.00  0.00    +0.138 A 
ATOM      9  N   UNL     1      -5.322   4.529  -2.981  0.00  0.00    -0.206 NA
ATOM     10  C   UNL     1      -2.175   1.055   1.277  0.00  0.00    +0.077 C 
ATOM     11  C   UNL     1      -0.729   1.579   1.267  0.00  0.00    +0.069 C 
ATOM     12  O   UNL     1      -0.756   3.009   1.274  0.00  0.00    -0.369 OA
ATOM     13  C   UNL     1      -1.196   3.610   0.054  0.00  0.00    +0.198 C 
ATOM     14  C   UNL     1      -0.013   1.086   0.008  0.00  0.00    +0.041 C 
ATOM     15  C   UNL     1       0.009   1.074   2.508  0.00  0.00    +0.041 C 
ENDROOT
BRANCH   8  16
ATOM     16  N   UNL     1      -6.812   2.705  -2.565  0.00  0.00    -0.328 N 
ATOM     17  H   UNL     1      -6.992   1.879  -2.090  0.00  0.00    +0.147 HD
BRANCH  16  18
ATOM     18  C   UNL     1      -7.798   3.237  -3.509  0.00  0.00    +0.103 C 
BRANCH  18  19
ATOM     19  C   UNL     1      -9.011   2.305  -3.558  0.00  0.00    +0.017 C 
BRANCH  19  20
ATOM     20  C   UNL     1     -10.041   2.860  -4.544  0.00  0.00    -0.018 C 
BRANCH  20  21
ATOM     21  C   UNL     1     -11.253   1.929  -4.593  0.00  0.00    -0.086 C 
BRANCH  21  24
ATOM     22  H   UNL     1     -13.053   1.864  -5.590  0.00  0.00    -0.090 HD
ATOM     23  H   UNL     1     -12.504   3.405  -5.296  0.00  0.00    -0.090 HD
ATOM     24  N   UNL     1     -12.229   2.461  -5.561  0.00  0.00    +0.378 N 
ATOM     25  H   UNL     1     -11.800   2.486  -6.493  0.00  0.00    -0.090 HD
ENDBRANCH  21  24
ENDBRANCH  20  21
ENDBRANCH  19  20
ENDBRANCH  18  19
ENDBRANCH  16  18
ENDBRANCH   8  16
BRANCH   1  26
ATOM     26  S   UNL     1      -3.897   6.656  -3.648  0.00  0.00    -0.086 S 
BRANCH  26  28
ATOM     27  C   UNL     1      -5.415   8.005  -5.474  0.00  0.00    +0.016 C 
ATOM     28  C   UNL     1      -5.432   6.749  -4.602  0.00  0.00    +0.074 C 
ENDBRANCH  26  28
ENDBRANCH   1  26
TORSDOF 8
