REMARK  Name = ZINC67381560
REMARK  7 active torsions:
REMARK  status: ('A' for Active; 'I' for Inactive)
REMARK    1  A    between atoms: C_1  and  C_2
REMARK    2  A    between atoms: C_6  and  C_7
REMARK    3  A    between atoms: N_9  and  N_10
REMARK    4  A    between atoms: N_13  and  C_14
REMARK    5  A    between atoms: C_14  and  C_15
REMARK    6  A    between atoms: C_15  and  C_17
REMARK    7  A    between atoms: C_15  and  N_22
REMARK                            x       y       z     vdW  Elec       q    Type
REMARK                         _______ _______ _______ _____ _____    ______ ____
ROOT
ATOM      1  N   UNL     1      -1.018  -0.786   5.140  0.00  0.00    -0.218 N 
ATOM      2  C   UNL     1      -0.932  -1.737   6.091  0.00  0.00    +0.316 C 
ATOM      3  O   UNL     1      -1.255  -1.482   7.236  0.00  0.00    -0.251 OA
ATOM      4  N   UNL     1      -0.488  -2.969   5.775  0.00  0.00    -0.299 N 
ATOM      5  H   UNL     1      -1.338   0.101   5.368  0.00  0.00    +0.174 HD
ATOM      6  H   UNL     1      -0.231  -3.172   4.862  0.00  0.00    +0.150 HD
ENDROOT
BRANCH   1   9
ATOM      7  C   UNL     1      -0.732  -0.129   2.869  0.00  0.00    +0.267 C 
ATOM      8  O   UNL     1      -1.133   0.984   3.155  0.00  0.00    -0.268 OA
ATOM      9  N   UNL     1      -0.646  -1.080   3.821  0.00  0.00    -0.229 N 
ATOM     10  H   UNL     1      -0.327  -1.967   3.593  0.00  0.00    +0.173 HD
BRANCH   7  16
ATOM     11  C   UNL     1      -0.808   1.823   0.444  0.00  0.00    +0.045 C 
ATOM     12  C   UNL     1      -0.356   0.387   0.374  0.00  0.00    -0.031 A 
ATOM     13  C   UNL     1       0.077  -0.187  -0.797  0.00  0.00    +0.011 A 
ATOM     14  C   UNL     1       0.471  -1.484  -0.788  0.00  0.00    +0.046 A 
ATOM     15  S   UNL     1       0.267  -1.966   0.808  0.00  0.00    -0.092 S 
ATOM     16  C   UNL     1      -0.343  -0.436   1.490  0.00  0.00    +0.078 A 
ENDBRANCH   7  16
ENDBRANCH   1   9
BRANCH   4  17
ATOM     17  C   UNL     1      -0.395  -4.002   6.809  0.00  0.00    +0.098 C 
BRANCH  17  18
ATOM     18  C   UNL     1       0.007  -5.332   6.168  0.00  0.00    +0.016 C 
BRANCH  18  19
ATOM     19  N   UNL     1      -0.962  -5.683   5.121  0.00  0.00    +0.387 N 
ATOM     20  C   UNL     1      -2.313  -5.701   5.694  0.00  0.00    -0.078 C 
ATOM     21  C   UNL     1      -3.335  -5.987   4.592  0.00  0.00    -0.019 C 
ATOM     22  C   UNL     1      -3.029  -7.348   3.960  0.00  0.00    -0.004 C 
ATOM     23  C   UNL     1      -1.592  -7.343   3.432  0.00  0.00    -0.019 C 
ATOM     24  C   UNL     1      -0.635  -7.007   4.577  0.00  0.00    -0.078 C 
ATOM     25  H   UNL     1      -0.921  -4.998   4.382  0.00  0.00    -0.081 HD
ENDBRANCH  18  19
BRANCH  18  26
ATOM     26  C   UNL     1       0.026  -6.412   7.219  0.00  0.00    +0.093 A 
ATOM     27  C   UNL     1       1.125  -6.999   7.723  0.00  0.00    +0.043 A 
ATOM     28  C   UNL     1       0.683  -7.947   8.675  0.00  0.00    +0.041 A 
ATOM     29  C   UNL     1      -0.661  -7.883   8.694  0.00  0.00    +0.195 A 
ATOM     30  O   UNL     1      -1.053  -6.947   7.814  0.00  0.00    -0.469 OA
ENDBRANCH  18  26
ENDBRANCH  17  18
ENDBRANCH   4  17
TORSDOF 6
