REMARK  Name = ZINC60477451
REMARK  12 active torsions:
REMARK  status: ('A' for Active; 'I' for Inactive)
REMARK    1  A    between atoms: C_1  and  C_2
REMARK    2  A    between atoms: C_2  and  N_3
REMARK    3  A    between atoms: N_3  and  C_4
REMARK    4  A    between atoms: N_3  and  C_19
REMARK    5  A    between atoms: C_4  and  C_5
REMARK    6  A    between atoms: N_7  and  C_8
REMARK    7  A    between atoms: C_13  and  S_14
REMARK    8  A    between atoms: S_14  and  C_15
REMARK    9  A    between atoms: C_15  and  C_16
REMARK   10  A    between atoms: C_19  and  C_20
REMARK   11  A    between atoms: C_19  and  C_21
REMARK   12  A    between atoms: C_24  and  C_27
REMARK                            x       y       z     vdW  Elec       q    Type
REMARK                         _______ _______ _______ _____ _____    ______ ____
ROOT
ATOM      1  C   UNL     1       2.243   1.503  -0.811  0.00  0.00    +0.201 C 
ATOM      2  O   UNL     1       1.236   2.176  -0.872  0.00  0.00    -0.278 OA
ATOM      3  N   UNL     1       3.431   2.089  -0.563  0.00  0.00    -0.286 N 
ATOM      4  H   UNL     1       4.245   1.562  -0.583  0.00  0.00    +0.155 HD
ENDROOT
BRANCH   3   5
ATOM      5  C   UNL     1       3.490   3.460  -0.276  0.00  0.00    +0.047 A 
ATOM      6  C   UNL     1       2.507   4.313  -0.753  0.00  0.00    +0.024 A 
ATOM      7  C   UNL     1       2.567   5.664  -0.469  0.00  0.00    +0.002 A 
ATOM      8  C   UNL     1       3.606   6.171   0.290  0.00  0.00    +0.001 A 
ATOM      9  C   UNL     1       4.591   5.328   0.770  0.00  0.00    +0.016 A 
ATOM     10  C   UNL     1       4.536   3.969   0.494  0.00  0.00    +0.030 A 
BRANCH  10  11
ATOM     11  S   UNL     1       5.787   2.891   1.110  0.00  0.00    -0.114 S 
BRANCH  11  12
ATOM     12  C   UNL     1       6.899   3.990   2.030  0.00  0.00    +0.169 C 
BRANCH  12  13
ATOM     13  C   UNL     1       8.029   3.184   2.617  0.00  0.00    +0.221 C 
ATOM     14  O   UNL     1       8.079   1.986   2.432  0.00  0.00    -0.275 OA
ATOM     15  N   UNL     1       8.983   3.794   3.347  0.00  0.00    -0.329 N 
ATOM     16  H   UNL     1       8.943   4.751   3.495  0.00  0.00    +0.145 HD
ATOM     17  H   UNL     1       9.711   3.275   3.724  0.00  0.00    +0.145 HD
ENDBRANCH  12  13
ENDBRANCH  11  12
ENDBRANCH  10  11
ENDBRANCH   3   5
BRANCH   1  18
ATOM     18  C   UNL     1       2.166   0.012  -1.013  0.00  0.00    +0.020 C 
BRANCH  18  19
ATOM     19  N   UNL     1       0.759  -0.396  -1.117  0.00  0.00    +0.390 N 
ATOM     20  H   UNL     1       0.302   0.151  -1.831  0.00  0.00    -0.080 HD
BRANCH  19  22
ATOM     21  C   UNL     1       0.830  -0.945   1.268  0.00  0.00    -0.017 C 
ATOM     22  C   UNL     1       0.089  -0.177   0.171  0.00  0.00    -0.081 C 
ENDBRANCH  19  22
BRANCH  19  23
ATOM     23  C   UNL     1       0.687  -1.820  -1.471  0.00  0.00    -0.040 C 
ATOM     24  C   UNL     1      -0.779  -2.245  -1.579  0.00  0.00    -0.008 C 
BRANCH  23  25
ATOM     25  C   UNL     1       1.375  -2.045  -2.793  0.00  0.00    -0.061 A 
ATOM     26  C   UNL     1       1.223  -1.123  -3.813  0.00  0.00    +0.003 A 
ATOM     27  C   UNL     1       1.849  -1.323  -5.026  0.00  0.00    +0.019 A 
ATOM     28  C   UNL     1       2.638  -2.458  -5.222  0.00  0.00    +0.052 A 
ATOM     29  C   UNL     1       2.787  -3.384  -4.188  0.00  0.00    +0.019 A 
ATOM     30  C   UNL     1       2.159  -3.170  -2.979  0.00  0.00    +0.003 A 
BRANCH  28  31
ATOM     31  C   UNL     1       3.291  -2.672  -6.479  0.00  0.00    +0.099 C 
ATOM     32  N   UNL     1       3.809  -2.842  -7.475  0.00  0.00    -0.191 NA
ENDBRANCH  28  31
ENDBRANCH  23  25
ENDBRANCH  19  23
ENDBRANCH  18  19
ENDBRANCH   1  18
TORSDOF 10
