REMARK  Name = ZINC22930769
REMARK  8 active torsions:
REMARK  status: ('A' for Active; 'I' for Inactive)
REMARK    1  A    between atoms: C_1  and  C_2
REMARK    2  A    between atoms: C_2  and  C_4
REMARK    3  A    between atoms: C_2  and  N_18
REMARK    4  A    between atoms: N_6  and  C_7
REMARK    5  A    between atoms: C_8  and  C_15
REMARK    6  A    between atoms: N_21  and  C_24
REMARK    7  A    between atoms: C_24  and  C_25
REMARK    8  A    between atoms: N_27  and  C_28
REMARK                            x       y       z     vdW  Elec       q    Type
REMARK                         _______ _______ _______ _____ _____    ______ ____
ROOT
ATOM      1  C   UNL     1       6.842   4.035  -2.807  0.00  0.00    +0.034 C 
ATOM      2  C   UNL     1       7.541   3.925  -1.450  0.00  0.00    +0.140 C 
ENDROOT
BRANCH   2   3
ATOM      3  N   UNL     1       6.635   3.293  -0.482  0.00  0.00    -0.295 NA
ATOM      4  C   UNL     1       7.228   3.278   0.863  0.00  0.00    +0.066 C 
ATOM      5  C   UNL     1       6.291   2.542   1.823  0.00  0.00    -0.063 C 
ATOM      6  N   UNL     1       4.982   3.211   1.834  0.00  0.00    +0.387 N 
ATOM      7  C   UNL     1       4.389   3.225   0.489  0.00  0.00    -0.063 C 
ATOM      8  C   UNL     1       5.327   3.961  -0.471  0.00  0.00    +0.066 C 
ATOM      9  H   UNL     1       5.136   4.253   2.149  0.00  0.00    -0.081 HD
BRANCH   6  10
ATOM     10  C   UNL     1       4.076   2.578   2.802  0.00  0.00    +0.019 C 
BRANCH  10  11
ATOM     11  C   UNL     1       2.843   3.429   2.966  0.00  0.00    +0.201 C 
ATOM     12  O   UNL     1       2.730   4.461   2.339  0.00  0.00    -0.278 OA
ATOM     13  N   UNL     1       1.866   3.043   3.811  0.00  0.00    -0.287 N 
ATOM     14  H   UNL     1       1.934   2.072   4.324  0.00  0.00    +0.155 HD
BRANCH  13  15
ATOM     15  C   UNL     1       0.764   3.878   4.035  0.00  0.00    +0.033 A 
ATOM     16  C   UNL     1       0.921   5.257   4.011  0.00  0.00    +0.026 A 
ATOM     17  C   UNL     1      -0.168   6.079   4.227  0.00  0.00    +0.040 A 
ATOM     18  C   UNL     1      -1.413   5.528   4.478  0.00  0.00    +0.124 A 
ATOM     19  C   UNL     1      -1.571   4.152   4.508  0.00  0.00    +0.040 A 
ATOM     20  C   UNL     1      -0.485   3.327   4.286  0.00  0.00    +0.026 A 
ATOM     21  F   UNL     1      -2.476   6.333   4.694  0.00  0.00    -0.205 F 
ENDBRANCH  13  15
ENDBRANCH  10  11
ENDBRANCH   6  10
ENDBRANCH   2   3
BRANCH   2  22
ATOM     22  C   UNL     1       8.787   3.089  -1.593  0.00  0.00    +0.235 C 
ATOM     23  O   UNL     1       8.737   1.891  -1.413  0.00  0.00    -0.274 OA
ATOM     24  N   UNL     1       9.956   3.673  -1.922  0.00  0.00    -0.278 N 
ATOM     25  H   UNL     1      10.002   4.760  -2.086  0.00  0.00    +0.155 HD
BRANCH  24  26
ATOM     26  C   UNL     1      11.102   2.904  -2.054  0.00  0.00    +0.084 A 
ATOM     27  C   UNL     1      12.381   3.315  -2.387  0.00  0.00    +0.068 A 
ATOM     28  C   UNL     1      13.425   2.293  -2.456  0.00  0.00    -0.023 A 
ATOM     29  C   UNL     1      13.016   1.040  -2.192  0.00  0.00    -0.004 A 
ATOM     30  S   UNL     1      11.280   1.194  -1.849  0.00  0.00    -0.077 S 
ATOM     31  C   UNL     1      14.142   0.047  -2.285  0.00  0.00    +0.043 C 
ATOM     32  C   UNL     1      15.424   0.906  -2.224  0.00  0.00    +0.010 C 
ATOM     33  C   UNL     1      14.922   2.258  -2.768  0.00  0.00    +0.037 C 
BRANCH  27  34
ATOM     34  C   UNL     1      12.679   4.725  -2.657  0.00  0.00    +0.244 C 
ATOM     35  O   UNL     1      13.021   5.460  -1.749  0.00  0.00    -0.270 OA
ATOM     36  N   UNL     1      12.575   5.208  -3.911  0.00  0.00    -0.325 N 
ATOM     37  H   UNL     1      12.798   6.266  -4.114  0.00  0.00    +0.145 HD
ATOM     38  H   UNL     1      12.266   4.544  -4.732  0.00  0.00    +0.145 HD
ENDBRANCH  27  34
ENDBRANCH  24  26
ENDBRANCH   2  22
TORSDOF 7
