REMARK  Name = ZINC53605912
REMARK  9 active torsions:
REMARK  status: ('A' for Active; 'I' for Inactive)
REMARK    1  A    between atoms: C_1  and  C_2
REMARK    2  A    between atoms: C_2  and  C_3
REMARK    3  A    between atoms: C_2  and  C_4
REMARK    4  A    between atoms: C_4  and  C_6
REMARK    5  A    between atoms: C_4  and  N_13
REMARK    6  A    between atoms: N_13  and  C_14
REMARK    7  A    between atoms: C_14  and  C_15
REMARK    8  A    between atoms: C_18  and  C_20
REMARK    9  A    between atoms: C_23  and  C_26
REMARK                            x       y       z     vdW  Elec       q    Type
REMARK                         _______ _______ _______ _____ _____    ______ ____
ROOT
ATOM      1  C   UNL     1      -2.147  -0.417  -3.648  0.00  0.00    +0.032 A 
ATOM      2  C   UNL     1      -1.660   0.610  -4.397  0.00  0.00    +0.068 A 
ATOM      3  S   UNL     1      -2.837   0.625  -5.743  0.00  0.00    -0.075 S 
ATOM      4  C   UNL     1      -3.846  -0.733  -5.164  0.00  0.00    +0.108 A 
ATOM      5  N   UNL     1      -3.216  -1.064  -4.045  0.00  0.00    -0.246 NA
ENDROOT
BRANCH   4   6
ATOM      6  C   UNL     1      -5.054  -1.330  -5.771  0.00  0.00    +0.007 A 
ATOM      7  C   UNL     1      -5.699  -2.396  -5.139  0.00  0.00    +0.011 A 
ATOM      8  C   UNL     1      -6.824  -2.951  -5.705  0.00  0.00    +0.014 A 
ATOM      9  C   UNL     1      -7.321  -2.449  -6.911  0.00  0.00    +0.037 A 
ATOM     10  C   UNL     1      -6.675  -1.383  -7.542  0.00  0.00    +0.014 A 
ATOM     11  C   UNL     1      -5.553  -0.824  -6.974  0.00  0.00    +0.011 A 
BRANCH   9  12
ATOM     12  C   UNL     1      -8.528  -3.045  -7.518  0.00  0.00    +0.242 C 
ATOM     13  O   UNL     1      -9.090  -3.973  -6.968  0.00  0.00    -0.270 OA
ATOM     14  N   UNL     1      -9.007  -2.561  -8.681  0.00  0.00    -0.325 N 
ATOM     15  H   UNL     1      -8.559  -1.821  -9.119  0.00  0.00    +0.145 HD
ATOM     16  H   UNL     1      -9.800  -2.953  -9.079  0.00  0.00    +0.145 HD
ENDBRANCH   9  12
ENDBRANCH   4   6
BRANCH   1  17
ATOM     17  C   UNL     1      -1.456  -0.814  -2.369  0.00  0.00    -0.025 C 
BRANCH  17  18
ATOM     18  N   UNL     1      -2.107  -0.147  -1.234  0.00  0.00    +0.387 N 
ATOM     19  H   UNL     1      -3.076  -0.424  -1.192  0.00  0.00    -0.084 HD
ATOM     20  H   UNL     1      -2.048   0.853  -1.352  0.00  0.00    -0.084 HD
BRANCH  18  21
ATOM     21  C   UNL     1      -1.433  -0.534   0.013  0.00  0.00    -0.038 C 
BRANCH  21  22
ATOM     22  C   UNL     1      -2.175   0.051   1.187  0.00  0.00    -0.061 A 
ATOM     23  C   UNL     1      -2.691   1.331   1.111  0.00  0.00    +0.003 A 
ATOM     24  C   UNL     1      -3.372   1.868   2.187  0.00  0.00    +0.020 A 
ATOM     25  C   UNL     1      -3.537   1.123   3.341  0.00  0.00    +0.041 A 
ATOM     26  C   UNL     1      -3.021  -0.158   3.417  0.00  0.00    +0.020 A 
ATOM     27  C   UNL     1      -2.346  -0.696   2.338  0.00  0.00    +0.003 A 
ATOM     28 CL   UNL     1      -4.392   1.797   4.694  0.00  0.00    -0.084 Cl
ENDBRANCH  21  22
BRANCH  21  30
ATOM     29  C   UNL     1      -0.019   1.526   0.010  0.00  0.00    +0.006 C 
ATOM     30  C   UNL     1       0.002  -0.004   0.002  0.00  0.00    -0.027 C 
ATOM     31  C   UNL     1       0.742  -0.511   1.242  0.00  0.00    +0.006 C 
ENDBRANCH  21  30
ENDBRANCH  18  21
ENDBRANCH  17  18
ENDBRANCH   1  17
TORSDOF 7
