REMARK  Name = ZINC29494217
REMARK  6 active torsions:
REMARK  status: ('A' for Active; 'I' for Inactive)
REMARK    1  A    between atoms: C_1  and  N_2
REMARK    2  A    between atoms: C_3  and  C_5
REMARK    3  A    between atoms: C_16  and  C_18
REMARK    4  A    between atoms: C_18  and  S_19
REMARK    5  A    between atoms: S_19  and  C_20
REMARK    6  A    between atoms: N_21  and  C_22
REMARK                            x       y       z     vdW  Elec       q    Type
REMARK                         _______ _______ _______ _____ _____    ______ ____
ROOT
ATOM      1  C   UNL     1      -0.047   0.937   1.319  0.00  0.00    +0.276 C 
ATOM      2  C   UNL     1      -0.073   0.013   0.092  0.00  0.00    +0.168 C 
ATOM      3  N   UNL     1       1.219  -0.693   0.040  0.00  0.00    -0.264 N 
ATOM      4  C   UNL     1       2.380   0.050   0.314  0.00  0.00    +0.078 A 
ATOM      5  C   UNL     1       3.627  -0.471   0.007  0.00  0.00    +0.027 A 
ATOM      6  C   UNL     1       4.766   0.262   0.281  0.00  0.00    +0.002 A 
ATOM      7  C   UNL     1       4.662   1.514   0.859  0.00  0.00    +0.004 A 
ATOM      8  C   UNL     1       3.421   2.041   1.162  0.00  0.00    +0.047 A 
ATOM      9  C   UNL     1       2.272   1.311   0.894  0.00  0.00    +0.143 A 
ATOM     10  O   UNL     1       1.056   1.837   1.194  0.00  0.00    -0.476 OA
ATOM     11  C   UNL     1       1.285  -2.005  -0.259  0.00  0.00    +0.230 C 
ATOM     12  O   UNL     1       2.364  -2.549  -0.367  0.00  0.00    -0.274 OA
ENDROOT
BRANCH   1  15
ATOM     13  C   UNL     1      -3.751   1.842   1.663  0.00  0.00    +0.128 C 
ATOM     14  N   UNL     1      -2.501   1.080   1.595  0.00  0.00    -0.315 N 
ATOM     15  C   UNL     1      -1.333   1.720   1.388  0.00  0.00    +0.255 C 
ATOM     16  O   UNL     1      -1.317   2.926   1.258  0.00  0.00    -0.272 OA
ATOM     17  H   UNL     1      -2.516  -0.013   1.714  0.00  0.00    +0.148 HD
ENDBRANCH   1  15
BRANCH  11  18
ATOM     18  C   UNL     1       0.018  -2.797  -0.461  0.00  0.00    +0.173 C 
BRANCH  18  19
ATOM     19  S   UNL     1       0.430  -4.543  -0.703  0.00  0.00    -0.084 S 
BRANCH  19  20
ATOM     20  C   UNL     1      -1.186  -5.213  -0.907  0.00  0.00    +0.126 C 
ATOM     21  N   UNL     1      -2.228  -4.430  -0.853  0.00  0.00    -0.365 N 
ATOM     22  N   UNL     1      -1.349  -6.561  -1.124  0.00  0.00    -0.339 N 
ATOM     23  H   UNL     1      -2.359  -6.980  -1.252  0.00  0.00    +0.144 HD
ATOM     24  H   UNL     1      -0.470  -7.221  -1.170  0.00  0.00    +0.144 HD
ATOM     25  H   UNL     1      -2.095  -3.342  -0.771  0.00  0.00    +0.162 HD
BRANCH  21  26
ATOM     26  C   UNL     1      -3.577  -5.002  -0.901  0.00  0.00    +0.081 C 
ATOM     27  C   UNL     1      -4.276  -4.551  -2.186  0.00  0.00    +0.024 C 
ATOM     28  C   UNL     1      -5.684  -5.148  -2.236  0.00  0.00    +0.002 C 
ATOM     29  C   UNL     1      -6.485  -4.668  -1.025  0.00  0.00    +0.000 C 
ATOM     30  C   UNL     1      -5.786  -5.118   0.260  0.00  0.00    +0.002 C 
ATOM     31  C   UNL     1      -4.378  -4.521   0.310  0.00  0.00    +0.024 C 
ENDBRANCH  21  26
ENDBRANCH  19  20
ENDBRANCH  18  19
ENDBRANCH  11  18
TORSDOF 5
