REMARK  Name = ZINC48104472
REMARK  5 active torsions:
REMARK  status: ('A' for Active; 'I' for Inactive)
REMARK    1  A    between atoms: C_1  and  C_2
REMARK    2  A    between atoms: C_12  and  C_16
REMARK    3  A    between atoms: N_18  and  N_19
REMARK    4  A    between atoms: C_20  and  C_22
REMARK    5  A    between atoms: N_24  and  C_25
REMARK                            x       y       z     vdW  Elec       q    Type
REMARK                         _______ _______ _______ _____ _____    ______ ____
ROOT
ATOM      1  C   UNL     1      -0.019   1.526   0.010  0.00  0.00    +0.008 C 
ATOM      2  C   UNL     1       0.002  -0.004   0.002  0.00  0.00    -0.009 C 
ATOM      3  C   UNL     1      -1.434  -0.535   0.014  0.00  0.00    +0.009 C 
ATOM      4  C   UNL     1      -1.422  -2.045  -0.245  0.00  0.00    +0.054 C 
ATOM      5  C   UNL     1      -0.427  -2.687   0.694  0.00  0.00    +0.020 A 
ATOM      6  C   UNL     1       0.531  -2.001   1.354  0.00  0.00    -0.019 A 
ATOM      7  C   UNL     1       1.271  -2.963   2.145  0.00  0.00    +0.004 A 
ATOM      8  C   UNL     1       2.357  -2.838   3.017  0.00  0.00    +0.010 A 
ATOM      9  C   UNL     1       2.820  -3.997   3.619  0.00  0.00    +0.001 A 
ATOM     10  C   UNL     1       2.246  -5.229   3.379  0.00  0.00    +0.015 A 
ATOM     11  C   UNL     1       1.159  -5.386   2.512  0.00  0.00    +0.062 A 
ATOM     12  C   UNL     1       0.672  -4.222   1.889  0.00  0.00    +0.059 A 
ATOM     13  N   UNL     1      -0.346  -4.018   1.011  0.00  0.00    -0.357 N 
ATOM     14  H   UNL     1      -0.927  -4.711   0.661  0.00  0.00    +0.166 HD
ATOM     15  C   UNL     1       0.742  -0.513   1.245  0.00  0.00    +0.040 C 
ENDROOT
BRANCH  11  16
ATOM     16  C   UNL     1       0.554  -6.708   2.262  0.00  0.00    +0.262 C 
ATOM     17  O   UNL     1      -0.390  -6.811   1.503  0.00  0.00    -0.269 OA
ATOM     18  N   UNL     1       1.047  -7.802   2.876  0.00  0.00    -0.230 N 
ATOM     19  H   UNL     1       1.800  -7.720   3.482  0.00  0.00    +0.173 HD
BRANCH  18  20
ATOM     20  N   UNL     1       0.472  -9.057   2.639  0.00  0.00    -0.226 N 
ATOM     21  C   UNL     1       0.965 -10.151   3.252  0.00  0.00    +0.315 C 
ATOM     22  O   UNL     1       1.907 -10.049   4.010  0.00  0.00    -0.264 OA
ATOM     23  H   UNL     1      -0.281  -9.139   2.033  0.00  0.00    +0.173 HD
BRANCH  21  24
ATOM     24  C   UNL     1       0.352 -11.490   2.999  0.00  0.00    +0.301 C 
ATOM     25  O   UNL     1      -0.590 -11.593   2.241  0.00  0.00    -0.265 OA
ATOM     26  N   UNL     1       0.845 -12.584   3.613  0.00  0.00    -0.305 N 
ATOM     27  H   UNL     1       1.598 -12.502   4.219  0.00  0.00    +0.149 HD
BRANCH  26  28
ATOM     28  C   UNL     1       0.244 -13.897   3.365  0.00  0.00    +0.073 C 
ATOM     29  C   UNL     1       0.012 -14.807   4.573  0.00  0.00    +0.024 C 
ATOM     30  C   UNL     1       1.126 -15.129   3.575  0.00  0.00    +0.024 C 
ENDBRANCH  26  28
ENDBRANCH  21  24
ENDBRANCH  18  20
ENDBRANCH  11  16
TORSDOF 4
