REMARK  Name = ZINC08635874
REMARK  12 active torsions:
REMARK  status: ('A' for Active; 'I' for Inactive)
REMARK    1  A    between atoms: C_1  and  C_2
REMARK    2  A    between atoms: C_2  and  C_3
REMARK    3  A    between atoms: C_2  and  C_4
REMARK    4  A    between atoms: C_7  and  N_10
REMARK    5  A    between atoms: C_11  and  O_13
REMARK    6  A    between atoms: O_13  and  C_14
REMARK    7  A    between atoms: C_14  and  C_15
REMARK    8  A    between atoms: C_23  and  C_25
REMARK    9  A    between atoms: C_27  and  C_31
REMARK   10  A    between atoms: N_29  and  C_30
REMARK   11  A    between atoms: C_34  and  O_37
REMARK   12  A    between atoms: O_37  and  C_38
REMARK                            x       y       z     vdW  Elec       q    Type
REMARK                         _______ _______ _______ _____ _____    ______ ____
ROOT
ATOM      1  C   UNL     1       4.945   2.171   0.502  0.00  0.00    -0.030 C 
ATOM      2  C   UNL     1       6.186   3.002   0.164  0.00  0.00    -0.008 C 
ATOM      3  C   UNL     1       7.241   2.781   1.257  0.00  0.00    -0.007 C 
ATOM      4  C   UNL     1       7.577   1.286   1.317  0.00  0.00    -0.015 C 
ATOM      5  C   UNL     1       6.297   0.503   1.623  0.00  0.00    -0.078 C 
ATOM      6  C   UNL     1       5.390   2.366   2.875  0.00  0.00    -0.068 C 
ATOM      7  C   UNL     1       6.644   3.203   2.605  0.00  0.00    +0.024 C 
ATOM      8  N   UNL     1       5.149   1.424   1.762  0.00  0.00    +0.384 N 
ATOM      9  H   UNL     1       4.305   0.876   1.965  0.00  0.00    -0.081 HD
ENDROOT
BRANCH   7  10
ATOM     10  C   UNL     1       6.276   4.664   2.563  0.00  0.00    +0.041 A 
ATOM     11  C   UNL     1       5.293   5.257   3.275  0.00  0.00    +0.053 A 
ATOM     12  C   UNL     1       5.286   6.626   2.944  0.00  0.00    +0.093 A 
ATOM     13  N   UNL     1       6.233   6.833   2.054  0.00  0.00    -0.171 NA
ATOM     14  N   UNL     1       6.868   5.610   1.802  0.00  0.00    -0.271 N 
ATOM     15  C   UNL     1       7.981   5.394   0.874  0.00  0.00    +0.172 C 
BRANCH  12  16
ATOM     16  C   UNL     1       4.367   7.652   3.497  0.00  0.00    +0.002 A 
ATOM     17  C   UNL     1       3.400   7.293   4.433  0.00  0.00    +0.013 A 
ATOM     18  C   UNL     1       2.552   8.250   4.949  0.00  0.00    +0.046 A 
ATOM     19  C   UNL     1       2.653   9.569   4.527  0.00  0.00    +0.120 A 
ATOM     20  C   UNL     1       3.612   9.929   3.590  0.00  0.00    +0.046 A 
ATOM     21  C   UNL     1       4.466   8.977   3.075  0.00  0.00    +0.013 A 
BRANCH  19  22
ATOM     22  O   UNL     1       1.812  10.509   5.033  0.00  0.00    -0.495 OA
ATOM     23  C   UNL     1       0.850  10.069   5.994  0.00  0.00    +0.277 C 
ENDBRANCH  19  22
ENDBRANCH  12  16
ENDBRANCH   7  10
BRANCH   1  24
ATOM     24  C   UNL     1       3.739   3.098   0.664  0.00  0.00    +0.219 C 
BRANCH  24  25
ATOM     25  O   UNL     1       2.541   2.303   0.868  0.00  0.00    -0.452 OA
BRANCH  25  27
ATOM     26  N   UNL     1       0.234   2.294   1.223  0.00  0.00    -0.251 N 
ATOM     27  C   UNL     1       1.383   2.972   1.030  0.00  0.00    +0.404 C 
ATOM     28  O   UNL     1       1.374   4.186   1.001  0.00  0.00    -0.226 OA
ATOM     29  H   UNL     1       0.226   1.326   1.160  0.00  0.00    +0.158 HD
BRANCH  26  33
ATOM     30  C   UNL     1      -3.284   4.356   2.074  0.00  0.00    -0.045 A 
ATOM     31  C   UNL     1      -3.341   3.119   1.460  0.00  0.00    +0.006 A 
ATOM     32  C   UNL     1      -2.176   2.432   1.177  0.00  0.00    +0.024 A 
ATOM     33  C   UNL     1      -0.947   2.986   1.509  0.00  0.00    +0.036 A 
ATOM     34  C   UNL     1      -0.894   4.227   2.130  0.00  0.00    +0.024 A 
ATOM     35  C   UNL     1      -2.062   4.911   2.405  0.00  0.00    +0.006 A 
BRANCH  30  37
ATOM     36  C   UNL     1      -4.655   5.342   3.889  0.00  0.00    +0.012 C 
ATOM     37  C   UNL     1      -4.557   5.102   2.381  0.00  0.00    +0.013 C 
ATOM     38  C   UNL     1      -4.549   6.447   1.651  0.00  0.00    +0.012 C 
ENDBRANCH  30  37
ENDBRANCH  26  33
ENDBRANCH  25  27
ENDBRANCH  24  25
ENDBRANCH   1  24
TORSDOF 8
