REMARK  Name = ZINC63135157
REMARK  11 active torsions:
REMARK  status: ('A' for Active; 'I' for Inactive)
REMARK    1  A    between atoms: C_1  and  C_2
REMARK    2  A    between atoms: C_2  and  C_3
REMARK    3  A    between atoms: C_3  and  N_4
REMARK    4  A    between atoms: C_8  and  C_10
REMARK    5  A    between atoms: C_10  and  O_11
REMARK    6  A    between atoms: O_11  and  C_12
REMARK    7  A    between atoms: C_12  and  C_14
REMARK    8  A    between atoms: C_14  and  C_16
REMARK    9  A    between atoms: C_14  and  N_26
REMARK   10  A    between atoms: C_16  and  C_17
REMARK   11  A    between atoms: C_27  and  C_29
REMARK                            x       y       z     vdW  Elec       q    Type
REMARK                         _______ _______ _______ _____ _____    ______ ____
ROOT
ATOM      1  C   UNL     1       3.409  -8.487  -5.872  0.00  0.00    +0.186 C 
ENDROOT
BRANCH   1   2
ATOM      2  N   UNL     1       3.817  -9.869  -5.609  0.00  0.00    -0.298 N 
ATOM      3  C   UNL     1       2.890 -10.799  -5.305  0.00  0.00    +0.251 C 
ATOM      4  O   UNL     1       1.714 -10.491  -5.249  0.00  0.00    -0.270 OA
ATOM      5  H   UNL     1       4.754 -10.115  -5.653  0.00  0.00    +0.150 HD
BRANCH   3   6
ATOM      6  C   UNL     1       3.298 -12.182  -5.041  0.00  0.00    +0.074 A 
ATOM      7  C   UNL     1       2.513 -13.279  -4.721  0.00  0.00    +0.021 A 
ATOM      8  C   UNL     1       3.188 -14.460  -4.528  0.00  0.00    +0.008 A 
ATOM      9  C   UNL     1       4.538 -14.477  -4.659  0.00  0.00    +0.046 A 
ATOM     10  S   UNL     1       4.933 -12.893  -5.056  0.00  0.00    -0.092 S 
ENDBRANCH   3   6
ENDBRANCH   1   2
BRANCH   1  11
ATOM     11  C   UNL     1       2.716  -7.927  -4.657  0.00  0.00    +0.328 C 
ATOM     12  O   UNL     1       2.255  -8.674  -3.826  0.00  0.00    -0.249 OA
BRANCH  11  13
ATOM     13  O   UNL     1       2.612  -6.598  -4.496  0.00  0.00    -0.454 OA
BRANCH  13  14
ATOM     14  C   UNL     1       1.943  -6.138  -3.321  0.00  0.00    +0.328 C 
BRANCH  14  19
ATOM     15  N   UNL     1       0.738  -1.962  -1.265  0.00  0.00    -0.299 N 
ATOM     16  C   UNL     1       1.321  -2.623  -2.285  0.00  0.00    +0.306 C 
ATOM     17  O   UNL     1       1.830  -2.003  -3.198  0.00  0.00    -0.252 OA
ATOM     18  N   UNL     1       1.339  -3.970  -2.292  0.00  0.00    -0.237 N 
ATOM     19  C   UNL     1       1.922  -4.631  -3.312  0.00  0.00    +0.258 C 
ATOM     20  O   UNL     1       2.430  -4.013  -4.223  0.00  0.00    -0.272 OA
ATOM     21  H   UNL     1       0.332  -2.457  -0.536  0.00  0.00    +0.150 HD
ATOM     22  H   UNL     1       0.933  -4.465  -1.563  0.00  0.00    +0.159 HD
BRANCH  15  23
ATOM     23  C   UNL     1       0.718  -0.497  -1.257  0.00  0.00    +0.105 C 
BRANCH  23  25
ATOM     24  C   UNL     1      -0.019   1.526   0.010  0.00  0.00    +0.005 C 
ATOM     25  C   UNL     1       0.002  -0.004   0.002  0.00  0.00    +0.015 C 
ENDBRANCH  23  25
ENDBRANCH  15  23
ENDBRANCH  14  19
ENDBRANCH  13  14
ENDBRANCH  11  13
ENDBRANCH   1  11
BRANCH   1  26
ATOM     26  C   UNL     1       2.450  -8.457  -7.064  0.00  0.00    +0.067 C 
BRANCH  26  27
ATOM     27  C   UNL     1       3.179  -8.901  -8.306  0.00  0.00    -0.039 C 
ATOM     28  C   UNL     1       3.208 -10.148  -8.830  0.00  0.00    -0.001 A 
ATOM     29  C   UNL     1       2.595 -11.415  -8.415  0.00  0.00    +0.010 A 
ATOM     30  C   UNL     1       2.811 -12.524  -9.159  0.00  0.00    +0.001 A 
ATOM     31  C   UNL     1       3.605 -12.493 -10.314  0.00  0.00    +0.002 A 
ATOM     32  C   UNL     1       4.202 -11.367 -10.758  0.00  0.00    +0.026 A 
ATOM     33  C   UNL     1       4.042 -10.142 -10.053  0.00  0.00    +0.043 A 
ATOM     34  N   UNL     1       4.510  -8.938 -10.277  0.00  0.00    -0.380 N 
ATOM     35  C   UNL     1       4.020  -8.042  -9.223  0.00  0.00    +0.144 C 
ATOM     36  H   UNL     1       5.081  -8.681 -11.018  0.00  0.00    +0.160 HD
ENDBRANCH  26  27
ENDBRANCH   1  26
TORSDOF 10
