REMARK  Name = ZINC19330272
REMARK  2 active torsions:
REMARK  status: ('A' for Active; 'I' for Inactive)
REMARK    1  A    between atoms: C_1  and  N_2
REMARK    2  A    between atoms: N_17  and  C_18
REMARK                            x       y       z     vdW  Elec       q    Type
REMARK                         _______ _______ _______ _____ _____    ______ ____
ROOT
ATOM      1  C   UNL     1       1.522   3.619   4.422  0.00  0.00    +0.138 C 
ATOM      2  N   UNL     1       1.371   3.166   3.037  0.00  0.00    -0.270 N 
ATOM      3  C   UNL     1       1.188   4.026   1.953  0.00  0.00    +0.044 A 
ATOM      4  C   UNL     1       1.107   5.416   1.895  0.00  0.00    +0.024 A 
ATOM      5  C   UNL     1       0.919   6.049   0.685  0.00  0.00    +0.002 A 
ATOM      6  C   UNL     1       0.810   5.313  -0.481  0.00  0.00    +0.001 A 
ATOM      7  C   UNL     1       0.890   3.932  -0.432  0.00  0.00    +0.010 A 
ATOM      8  C   UNL     1       1.078   3.297   0.775  0.00  0.00    +0.032 A 
ATOM      9  C   UNL     1       1.205   1.843   1.163  0.00  0.00    +0.260 C 
ATOM     10  C   UNL     1       1.392   1.875   2.664  0.00  0.00    +0.275 C 
ATOM     11  O   UNL     1       1.534   0.916   3.393  0.00  0.00    -0.270 OA
ATOM     12  N   UNL     1       2.378   1.256   0.527  0.00  0.00    -0.212 NA
ATOM     13  C   UNL     1       2.360   0.063   0.016  0.00  0.00    +0.182 C 
ATOM     14  N   UNL     1       1.204  -0.690   0.052  0.00  0.00    -0.260 N 
ATOM     15  C   UNL     1       0.002  -0.065   0.311  0.00  0.00    +0.189 C 
ATOM     16  N   UNL     1      -0.018   1.126   0.827  0.00  0.00    -0.212 NA
ATOM     17  N   UNL     1      -1.181  -0.706   0.021  0.00  0.00    -0.286 N 
ATOM     18  N   UNL     1       3.496  -0.452  -0.562  0.00  0.00    -0.331 N 
ATOM     19  H   UNL     1       1.249  -1.775  -0.125  0.00  0.00    +0.157 HD
ATOM     20  H   UNL     1      -1.171  -1.754  -0.315  0.00  0.00    +0.155 HD
ATOM     21  H   UNL     1       3.482  -1.463  -0.996  0.00  0.00    +0.145 HD
ATOM     22  H   UNL     1       4.418   0.147  -0.592  0.00  0.00    +0.145 HD
ENDROOT
BRANCH  17  23
ATOM     23  C   UNL     1      -2.397  -0.026   0.153  0.00  0.00    +0.053 A 
ATOM     24  C   UNL     1      -2.419   1.363   0.167  0.00  0.00    +0.025 A 
ATOM     25  C   UNL     1      -3.620   2.032   0.292  0.00  0.00    +0.003 A 
ATOM     26  C   UNL     1      -4.801   1.322   0.416  0.00  0.00    +0.021 A 
ATOM     27  C   UNL     1      -4.783  -0.061   0.408  0.00  0.00    +0.061 A 
ATOM     28  C   UNL     1      -3.583  -0.738   0.277  0.00  0.00    +0.080 A 
ATOM     29 CL   UNL     1      -3.561  -2.474   0.267  0.00  0.00    -0.080 Cl
ATOM     30 CL   UNL     1      -6.267  -0.949   0.562  0.00  0.00    -0.082 Cl
ENDBRANCH  17  23
TORSDOF 1
