REMARK  Name = ZINC66473810
REMARK  9 active torsions:
REMARK  status: ('A' for Active; 'I' for Inactive)
REMARK    1  A    between atoms: C_1  and  C_2
REMARK    2  A    between atoms: C_2  and  C_3
REMARK    3  A    between atoms: C_3  and  C_4
REMARK    4  A    between atoms: C_4  and  N_5
REMARK    5  A    between atoms: C_6  and  C_8
REMARK    6  A    between atoms: C_12  and  C_26
REMARK    7  A    between atoms: N_14  and  C_16
REMARK    8  A    between atoms: C_16  and  C_17
REMARK    9  A    between atoms: N_22  and  C_23
REMARK                            x       y       z     vdW  Elec       q    Type
REMARK                         _______ _______ _______ _____ _____    ______ ____
ROOT
ATOM      1  C   UNL     1       2.269  -4.308  -3.932  0.00  0.00    +0.058 C 
ATOM      2  C   UNL     1       1.528  -3.803  -5.173  0.00  0.00    +0.009 C 
ATOM      3  C   UNL     1       2.206  -4.366  -6.425  0.00  0.00    -0.015 C 
ATOM      4  C   UNL     1       2.227  -5.894  -6.344  0.00  0.00    -0.071 C 
ATOM      5  N   UNL     1       2.972  -6.314  -5.151  0.00  0.00    +0.388 N 
ATOM      6  C   UNL     1       2.288  -5.838  -3.942  0.00  0.00    -0.065 C 
ATOM      7  C   UNL     1       2.904  -6.462  -7.593  0.00  0.00    -0.013 C 
ATOM      8  H   UNL     1       3.903  -5.927  -5.184  0.00  0.00    -0.081 HD
ENDROOT
BRANCH   1  10
ATOM      9  N   UNL     1       1.425  -2.500  -2.470  0.00  0.00    -0.315 N 
ATOM     10  C   UNL     1       1.564  -3.822  -2.692  0.00  0.00    +0.214 C 
ATOM     11  O   UNL     1       1.121  -4.620  -1.894  0.00  0.00    -0.276 OA
ATOM     12  H   UNL     1       1.779  -1.861  -3.109  0.00  0.00    +0.149 HD
BRANCH   9  13
ATOM     13  C   UNL     1       0.739  -2.027  -1.265  0.00  0.00    +0.104 C 
BRANCH  13  14
ATOM     14  C   UNL     1       0.718  -0.497  -1.257  0.00  0.00    +0.018 C 
BRANCH  14  16
ATOM     15  C   UNL     1      -0.019   1.526   0.010  0.00  0.00    +0.004 C 
ATOM     16  C   UNL     1       0.002  -0.004   0.002  0.00  0.00    -0.002 C 
ENDBRANCH  14  16
ENDBRANCH  13  14
ENDBRANCH   9  13
ENDBRANCH   1  10
BRANCH   5  17
ATOM     17  C   UNL     1       3.056  -7.780  -5.119  0.00  0.00    +0.019 C 
BRANCH  17  18
ATOM     18  C   UNL     1       3.923  -8.209  -3.963  0.00  0.00    +0.204 C 
ATOM     19  O   UNL     1       4.423  -7.375  -3.239  0.00  0.00    -0.277 OA
ATOM     20  N   UNL     1       4.144  -9.519  -3.736  0.00  0.00    -0.242 N 
ATOM     21  C   UNL     1       4.920  -9.902  -2.703  0.00  0.00    +0.306 C 
ATOM     22  O   UNL     1       5.421  -9.066  -1.976  0.00  0.00    -0.252 OA
ATOM     23  N   UNL     1       5.141 -11.212  -2.475  0.00  0.00    -0.296 N 
ATOM     24  H   UNL     1       3.745 -10.186  -4.316  0.00  0.00    +0.159 HD
ATOM     25  H   UNL     1       4.742 -11.879  -3.055  0.00  0.00    +0.151 HD
BRANCH  23  26
ATOM     26  C   UNL     1       5.985 -11.628  -1.352  0.00  0.00    +0.075 C 
ATOM     27  C   UNL     1       7.005 -12.739  -1.609  0.00  0.00    +0.024 C 
ATOM     28  C   UNL     1       5.754 -13.026  -0.776  0.00  0.00    +0.024 C 
ENDBRANCH  23  26
ENDBRANCH  17  18
ENDBRANCH   5  17
TORSDOF 7
