REMARK  Name = ZINC12462921
REMARK  12 active torsions:
REMARK  status: ('A' for Active; 'I' for Inactive)
REMARK    1  A    between atoms: C_1  and  C_2
REMARK    2  A    between atoms: C_6  and  O_9
REMARK    3  A    between atoms: C_7  and  C_8
REMARK    4  A    between atoms: O_9  and  P_10
REMARK    5  A    between atoms: P_10  and  N_12
REMARK    6  A    between atoms: P_10  and  O_23
REMARK    7  A    between atoms: N_12  and  N_13
REMARK    8  A    between atoms: C_14  and  C_15
REMARK    9  A    between atoms: C_20  and  O_21
REMARK   10  A    between atoms: O_23  and  C_24
REMARK   11  A    between atoms: C_28  and  C_31
REMARK   12  A    between atoms: C_29  and  C_30
REMARK                            x       y       z     vdW  Elec       q    Type
REMARK                         _______ _______ _______ _____ _____    ______ ____
ROOT
ATOM      1  P   UNL     1      -4.477   1.827  -0.141  0.00  0.00    +0.551 P 
ATOM      2  O   UNL     1      -4.836   2.406  -1.455  0.00  0.00    -0.212 OA
ENDROOT
BRANCH   1   3
ATOM      3  N   UNL     1      -3.071   0.993  -0.278  0.00  0.00    -0.153 N 
ATOM      4  H   UNL     1      -3.012   0.085   0.059  0.00  0.00    +0.182 HD
BRANCH   3   5
ATOM      5  N   UNL     1      -1.957   1.591  -0.880  0.00  0.00    -0.184 NA
ATOM      6  C   UNL     1      -0.815   0.975  -0.888  0.00  0.00    +0.142 C 
BRANCH   6   7
ATOM      7  C   UNL     1       0.317   1.530  -1.653  0.00  0.00    +0.037 A 
ATOM      8  C   UNL     1       1.503   0.804  -1.778  0.00  0.00    +0.028 A 
ATOM      9  C   UNL     1       2.558   1.329  -2.496  0.00  0.00    +0.019 A 
ATOM     10  C   UNL     1       2.445   2.573  -3.093  0.00  0.00    +0.019 A 
ATOM     11  C   UNL     1       1.276   3.301  -2.976  0.00  0.00    +0.047 A 
ATOM     12  C   UNL     1       0.206   2.786  -2.264  0.00  0.00    +0.126 A 
ATOM     13 BR   UNL     1       4.164   0.345  -2.665  0.00  0.00    -0.050 Br
BRANCH  12  14
ATOM     14  O   UNL     1      -0.946   3.499  -2.153  0.00  0.00    -0.506 OA
ATOM     15  H   UNL     1      -0.943   4.141  -1.430  0.00  0.00    +0.292 HD
ENDBRANCH  12  14
ENDBRANCH   6   7
ENDBRANCH   3   5
ENDBRANCH   1   3
BRANCH   1  16
ATOM     16  O   UNL     1      -5.646   0.834   0.345  0.00  0.00    -0.401 OA
BRANCH  16  22
ATOM     17  C   UNL     1      -8.908  -0.666  -2.962  0.00  0.00    +0.044 C 
ATOM     18  C   UNL     1      -7.606  -0.840  -2.223  0.00  0.00    -0.044 A 
ATOM     19  C   UNL     1      -6.795  -1.925  -2.500  0.00  0.00    +0.004 A 
ATOM     20  C   UNL     1      -5.600  -2.087  -1.824  0.00  0.00    +0.004 A 
ATOM     21  C   UNL     1      -5.213  -1.165  -0.871  0.00  0.00    +0.046 A 
ATOM     22  C   UNL     1      -6.025  -0.075  -0.592  0.00  0.00    +0.136 A 
ATOM     23  C   UNL     1      -7.226   0.082  -1.267  0.00  0.00    -0.005 A 
ATOM     24  C   UNL     1      -8.114   1.261  -0.962  0.00  0.00    +0.048 C 
ENDBRANCH  16  22
ENDBRANCH   1  16
BRANCH   1  25
ATOM     25  O   UNL     1      -4.296   3.011   0.935  0.00  0.00    -0.401 OA
BRANCH  25  26
ATOM     26  C   UNL     1      -3.592   4.077   0.472  0.00  0.00    +0.136 A 
ATOM     27  C   UNL     1      -4.159   4.930  -0.464  0.00  0.00    +0.046 A 
ATOM     28  C   UNL     1      -3.441   6.013  -0.933  0.00  0.00    +0.004 A 
ATOM     29  C   UNL     1      -2.158   6.246  -0.472  0.00  0.00    +0.004 A 
ATOM     30  C   UNL     1      -1.591   5.397   0.460  0.00  0.00    -0.044 A 
ATOM     31  C   UNL     1      -2.307   4.316   0.937  0.00  0.00    -0.005 A 
ATOM     32  C   UNL     1      -1.690   3.395   1.958  0.00  0.00    +0.048 C 
ATOM     33  C   UNL     1      -0.193   5.654   0.960  0.00  0.00    +0.044 C 
ENDBRANCH  25  26
ENDBRANCH   1  25
TORSDOF 8
