REMARK  Name = ZINC39657695
REMARK  12 active torsions:
REMARK  status: ('A' for Active; 'I' for Inactive)
REMARK    1  A    between atoms: C_1  and  C_2
REMARK    2  A    between atoms: C_2  and  C_3
REMARK    3  A    between atoms: C_3  and  C_4
REMARK    4  A    between atoms: C_4  and  C_6
REMARK    5  A    between atoms: C_4  and  C_7
REMARK    6  A    between atoms: C_11  and  C_20
REMARK    7  A    between atoms: N_22  and  C_23
REMARK    8  A    between atoms: C_23  and  C_24
REMARK    9  A    between atoms: C_29  and  S_30
REMARK   10  A    between atoms: S_30  and  C_31
REMARK   11  A    between atoms: C_36  and  C_37
REMARK   12  A    between atoms: C_37  and  O_38
REMARK                            x       y       z     vdW  Elec       q    Type
REMARK                         _______ _______ _______ _____ _____    ______ ____
ROOT
ATOM      1  C   UNL     1      -1.779  -5.683   2.834  0.00  0.00    +0.218 C 
ATOM      2  O   UNL     1      -1.621  -4.592   3.340  0.00  0.00    -0.275 OA
ATOM      3  N   UNL     1      -1.600  -6.799   3.569  0.00  0.00    -0.311 N 
ATOM      4  H   UNL     1      -1.647  -7.670   3.146  0.00  0.00    +0.149 HD
ENDROOT
BRANCH   1   9
ATOM      5  C   UNL     1      -2.552  -2.266   0.644  0.00  0.00    +0.218 C 
ATOM      6  O   UNL     1      -3.547  -1.573   0.682  0.00  0.00    -0.275 OA
ATOM      7  N   UNL     1      -2.667  -3.605   0.536  0.00  0.00    -0.300 N 
ATOM      8  C   UNL     1      -1.584  -4.615   0.575  0.00  0.00    +0.121 C 
ATOM      9  C   UNL     1      -2.176  -5.791   1.384  0.00  0.00    +0.100 C 
ATOM     10  C   UNL     1      -3.699  -5.644   1.232  0.00  0.00    -0.004 C 
ATOM     11  C   UNL     1      -3.906  -4.399   0.357  0.00  0.00    +0.115 C 
ATOM     12  C   UNL     1      -4.283  -6.876   0.545  0.00  0.00    -0.010 C 
ATOM     13  C   UNL     1      -5.805  -6.732   0.457  0.00  0.00    -0.082 C 
ATOM     14  N   UNL     1      -6.364  -6.589   1.807  0.00  0.00    +0.379 N 
ATOM     15  C   UNL     1      -5.869  -5.353   2.425  0.00  0.00    -0.082 C 
ATOM     16  C   UNL     1      -4.350  -5.438   2.596  0.00  0.00    -0.010 C 
ATOM     17  H   UNL     1      -7.371  -6.556   1.751  0.00  0.00    -0.086 HD
ATOM     18  H   UNL     1      -6.087  -7.379   2.370  0.00  0.00    -0.086 HD
BRANCH   5  19
ATOM     19  C   UNL     1      -1.188  -1.630   0.718  0.00  0.00    +0.072 C 
ATOM     20  C   UNL     1      -0.503  -1.734  -0.647  0.00  0.00    +0.017 C 
BRANCH  19  21
ATOM     21  C   UNL     1      -1.332  -0.158   1.106  0.00  0.00    +0.012 C 
BRANCH  21  23
ATOM     22  C   UNL     1      -0.085   1.901   1.777  0.00  0.00    +0.004 C 
ATOM     23  C   UNL     1       0.056   0.465   1.268  0.00  0.00    -0.003 C 
ENDBRANCH  21  23
ENDBRANCH  19  21
ENDBRANCH   5  19
ENDBRANCH   1   9
BRANCH   3  24
ATOM     24  C   UNL     1      -1.333  -6.695   5.005  0.00  0.00    +0.140 C 
BRANCH  24  25
ATOM     25  C   UNL     1      -1.054  -8.066   5.565  0.00  0.00    -0.017 A 
ATOM     26  C   UNL     1      -2.020  -8.722   6.301  0.00  0.00    +0.006 A 
ATOM     27  C   UNL     1      -1.764  -9.980   6.815  0.00  0.00    +0.000 A 
ATOM     28  C   UNL     1      -0.540 -10.586   6.594  0.00  0.00    +0.001 A 
ATOM     29  C   UNL     1       0.430  -9.935   5.859  0.00  0.00    +0.015 A 
ATOM     30  C   UNL     1       0.175  -8.673   5.336  0.00  0.00    +0.017 A 
BRANCH  30  31
ATOM     31  S   UNL     1       1.408  -7.842   4.391  0.00  0.00    -0.089 S 
BRANCH  31  32
ATOM     32  C   UNL     1       2.076  -6.657   5.510  0.00  0.00    +0.018 A 
ATOM     33  C   UNL     1       1.666  -6.645   6.838  0.00  0.00    +0.015 A 
ATOM     34  C   UNL     1       2.192  -5.715   7.713  0.00  0.00    +0.001 A 
ATOM     35  C   UNL     1       3.126  -4.796   7.269  0.00  0.00    +0.000 A 
ATOM     36  C   UNL     1       3.536  -4.805   5.948  0.00  0.00    +0.007 A 
ATOM     37  C   UNL     1       3.019  -5.737   5.069  0.00  0.00    -0.008 A 
BRANCH  37  38
ATOM     38  C   UNL     1       3.472  -5.750   3.632  0.00  0.00    +0.192 C 
BRANCH  38  39
ATOM     39  O   UNL     1       4.340  -4.640   3.395  0.00  0.00    -0.390 OA
ATOM     40  H   UNL     1       4.610  -4.542   2.472  0.00  0.00    +0.210 HD
ENDBRANCH  38  39
ENDBRANCH  37  38
ENDBRANCH  31  32
ENDBRANCH  30  31
ENDBRANCH  24  25
ENDBRANCH   3  24
TORSDOF 10
