REMARK  Name = ZINC13034039
REMARK  10 active torsions:
REMARK  status: ('A' for Active; 'I' for Inactive)
REMARK    1  A    between atoms: C_1  and  C_2
REMARK    2  A    between atoms: C_5  and  C_8
REMARK    3  A    between atoms: C_11  and  S_17
REMARK    4  A    between atoms: N_12  and  C_13
REMARK    5  A    between atoms: C_13  and  C_14
REMARK    6  A    between atoms: C_14  and  C_15
REMARK    7  A    between atoms: S_17  and  C_18
REMARK    8  A    between atoms: C_18  and  C_19
REMARK    9  A    between atoms: N_21  and  C_22
REMARK   10  A    between atoms: N_21  and  C_23
REMARK                            x       y       z     vdW  Elec       q    Type
REMARK                         _______ _______ _______ _____ _____    ______ ____
ROOT
ATOM      1  C   UNL     1      -4.315   1.201  -7.472  0.00  0.00    +0.165 A 
ATOM      2  N   UNL     1      -4.167   2.257  -6.706  0.00  0.00    -0.128 NA
ATOM      3  N   UNL     1      -3.638   1.915  -5.586  0.00  0.00    -0.122 NA
ATOM      4  C   UNL     1      -3.416   0.620  -5.568  0.00  0.00    +0.192 A 
ATOM      5  N   UNL     1      -3.833   0.121  -6.769  0.00  0.00    -0.302 N 
ENDROOT
BRANCH   1  10
ATOM      6  C   UNL     1      -6.541   1.109 -12.778  0.00  0.00    +0.044 C 
ATOM      7  C   UNL     1      -5.958   1.133 -11.388  0.00  0.00    -0.050 A 
ATOM      8  C   UNL     1      -5.883  -0.036 -10.653  0.00  0.00    +0.004 A 
ATOM      9  C   UNL     1      -5.351  -0.021  -9.380  0.00  0.00    +0.012 A 
ATOM     10  C   UNL     1      -4.887   1.177  -8.835  0.00  0.00    +0.019 A 
ATOM     11  C   UNL     1      -4.971   2.354  -9.581  0.00  0.00    +0.012 A 
ATOM     12  C   UNL     1      -5.501   2.325 -10.854  0.00  0.00    +0.004 A 
ENDBRANCH   1  10
BRANCH   5  13
ATOM     13  C   UNL     1      -3.781  -1.274  -7.214  0.00  0.00    +0.137 C 
BRANCH  13  14
ATOM     14  C   UNL     1      -5.035  -2.009  -6.737  0.00  0.00    +0.147 C 
BRANCH  14  15
ATOM     15  C   UNL     1      -4.981  -3.443  -7.196  0.00  0.00    +0.358 C 
ATOM     16  O   UNL     1      -4.037  -3.837  -7.837  0.00  0.00    -0.246 OA
ATOM     17  O   UNL     1      -5.983  -4.283  -6.890  0.00  0.00    -0.246 OA
ENDBRANCH  14  15
ENDBRANCH  13  14
ENDBRANCH   5  13
BRANCH   4  18
ATOM     18  S   UNL     1      -2.704  -0.300  -4.244  0.00  0.00    -0.077 S 
BRANCH  18  19
ATOM     19  C   UNL     1      -2.422   1.032  -3.052  0.00  0.00    +0.173 C 
BRANCH  19  20
ATOM     20  C   UNL     1      -1.801   0.464  -1.802  0.00  0.00    +0.226 C 
ATOM     21  O   UNL     1      -1.571  -0.725  -1.725  0.00  0.00    -0.275 OA
ATOM     22  N   UNL     1      -1.500   1.276  -0.769  0.00  0.00    -0.299 N 
ATOM     23  C   UNL     1      -1.778   2.712  -0.862  0.00  0.00    +0.132 C 
BRANCH  22  24
ATOM     24  C   UNL     1      -0.896   0.724   0.446  0.00  0.00    +0.098 C 
ATOM     25  C   UNL     1       0.474   1.379   0.688  0.00  0.00    +0.046 C 
ATOM     26  C   UNL     1       0.972   1.049   2.116  0.00  0.00    +0.168 C 
ATOM     27  S   UNL     1      -0.598   0.817   3.046  0.00  0.00    -0.029 S 
ATOM     28  O   UNL     1      -0.665  -0.523   3.514  0.00  0.00    -0.174 OA
ATOM     29  O   UNL     1      -0.750   1.888   3.969  0.00  0.00    -0.174 OA
ATOM     30  C   UNL     1      -1.804   1.033   1.670  0.00  0.00    +0.188 C 
ENDBRANCH  22  24
ENDBRANCH  19  20
ENDBRANCH  18  19
ENDBRANCH   4  18
TORSDOF 8
