REMARK  Name = ZINC40662368
REMARK  8 active torsions:
REMARK  status: ('A' for Active; 'I' for Inactive)
REMARK    1  A    between atoms: C_1  and  N_2
REMARK    2  A    between atoms: N_2  and  C_3
REMARK    3  A    between atoms: C_3  and  C_4
REMARK    4  A    between atoms: C_11  and  N_30
REMARK    5  A    between atoms: C_12  and  N_16
REMARK    6  A    between atoms: N_16  and  N_17
REMARK    7  A    between atoms: N_17  and  C_18
REMARK    8  A    between atoms: N_17  and  C_24
REMARK                            x       y       z     vdW  Elec       q    Type
REMARK                         _______ _______ _______ _____ _____    ______ ____
ROOT
ATOM      1  C   UNL     1      -1.542   1.493   0.153  0.00  0.00    +0.131 C 
ATOM      2  N   UNL     1      -0.280   0.887  -0.277  0.00  0.00    -0.312 N 
ATOM      3  C   UNL     1      -0.274  -0.053  -1.300  0.00  0.00    +0.147 A 
ATOM      4  C   UNL     1      -0.049   0.338  -2.622  0.00  0.00    +0.105 A 
ATOM      5  C   UNL     1      -0.053  -0.647  -3.611  0.00  0.00    +0.139 A 
ATOM      6  N   UNL     1      -0.270  -1.912  -3.260  0.00  0.00    -0.332 N 
ATOM      7  C   UNL     1      -0.478  -2.240  -2.000  0.00  0.00    +0.200 A 
ATOM      8  N   UNL     1      -0.476  -1.342  -1.036  0.00  0.00    -0.221 NA
ATOM      9  H   UNL     1      -0.275  -2.603  -3.940  0.00  0.00    +0.168 HD
ENDROOT
BRANCH   4  10
ATOM     10  N   UNL     1       0.175   1.686  -2.947  0.00  0.00    -0.353 N 
ATOM     11  H   UNL     1       0.265   2.346  -2.242  0.00  0.00    +0.143 HD
ATOM     12  H   UNL     1       0.239   1.957  -3.876  0.00  0.00    +0.143 HD
ENDBRANCH   4  10
BRANCH   5  13
ATOM     13  N   UNL     1       0.165  -0.311  -4.942  0.00  0.00    -0.243 N 
ATOM     14  H   UNL     1       0.321   0.614  -5.189  0.00  0.00    +0.172 HD
BRANCH  13  15
ATOM     15  N   UNL     1       0.158  -1.308  -5.926  0.00  0.00    -0.221 N 
BRANCH  15  16
ATOM     16  C   UNL     1      -0.937  -1.435  -6.785  0.00  0.00    +0.053 A 
ATOM     17  C   UNL     1      -2.228  -1.435  -6.272  0.00  0.00    +0.025 A 
ATOM     18  C   UNL     1      -3.307  -1.561  -7.124  0.00  0.00    +0.002 A 
ATOM     19  C   UNL     1      -3.104  -1.686  -8.486  0.00  0.00    +0.000 A 
ATOM     20  C   UNL     1      -1.821  -1.686  -9.000  0.00  0.00    +0.002 A 
ATOM     21  C   UNL     1      -0.737  -1.555  -8.154  0.00  0.00    +0.025 A 
ENDBRANCH  15  16
BRANCH  15  22
ATOM     22  C   UNL     1       1.246  -2.176  -6.048  0.00  0.00    +0.053 A 
ATOM     23  C   UNL     1       2.516  -1.759  -5.669  0.00  0.00    +0.025 A 
ATOM     24  C   UNL     1       3.589  -2.619  -5.791  0.00  0.00    +0.002 A 
ATOM     25  C   UNL     1       3.401  -3.895  -6.290  0.00  0.00    +0.000 A 
ATOM     26  C   UNL     1       2.138  -4.314  -6.669  0.00  0.00    +0.002 A 
ATOM     27  C   UNL     1       1.060  -3.461  -6.543  0.00  0.00    +0.025 A 
ENDBRANCH  15  22
ENDBRANCH  13  15
ENDBRANCH   5  13
BRANCH   2  28
ATOM     28  C   UNL     1       0.976   1.272   0.371  0.00  0.00    +0.141 C 
BRANCH  28  29
ATOM     29  C   UNL     1       1.233   0.365   1.547  0.00  0.00    -0.030 A 
ATOM     30  C   UNL     1       0.747   0.700   2.797  0.00  0.00    +0.005 A 
ATOM     31  C   UNL     1       0.982  -0.132   3.876  0.00  0.00    +0.000 A 
ATOM     32  C   UNL     1       1.703  -1.299   3.705  0.00  0.00    +0.000 A 
ATOM     33  C   UNL     1       2.188  -1.634   2.454  0.00  0.00    +0.000 A 
ATOM     34  C   UNL     1       1.949  -0.804   1.375  0.00  0.00    +0.005 A 
ENDBRANCH  28  29
ENDBRANCH   2  28
TORSDOF 7
