REMARK  Name = ZINC41922666
REMARK  11 active torsions:
REMARK  status: ('A' for Active; 'I' for Inactive)
REMARK    1  A    between atoms: C_1  and  N_2
REMARK    2  A    between atoms: N_2  and  C_3
REMARK    3  A    between atoms: N_2  and  C_22
REMARK    4  A    between atoms: C_3  and  C_4
REMARK    5  A    between atoms: C_4  and  C_5
REMARK    6  A    between atoms: C_5  and  N_6
REMARK    7  A    between atoms: C_7  and  C_9
REMARK    8  A    between atoms: N_11  and  C_12
REMARK    9  A    between atoms: C_17  and  C_18
REMARK   10  A    between atoms: C_18  and  C_19
REMARK   11  A    between atoms: C_22  and  C_23
REMARK                            x       y       z     vdW  Elec       q    Type
REMARK                         _______ _______ _______ _____ _____    ______ ____
ROOT
ATOM      1  C   UNL     1       7.237  -1.122   2.912  0.00  0.00    +0.303 C 
ATOM      2  O   UNL     1       7.753  -0.765   1.873  0.00  0.00    -0.265 OA
ATOM      3  N   UNL     1       8.005  -1.433   3.974  0.00  0.00    -0.277 N 
ATOM      4  H   UNL     1       7.597  -1.781   4.783  0.00  0.00    +0.155 HD
ENDROOT
BRANCH   3   5
ATOM      5  C   UNL     1       9.390  -1.256   3.911  0.00  0.00    +0.037 A 
ATOM      6  C   UNL     1      10.060  -1.435   2.708  0.00  0.00    +0.023 A 
ATOM      7  C   UNL     1      11.429  -1.259   2.649  0.00  0.00    +0.002 A 
ATOM      8  C   UNL     1      12.132  -0.904   3.786  0.00  0.00    +0.000 A 
ATOM      9  C   UNL     1      11.467  -0.726   4.986  0.00  0.00    +0.006 A 
ATOM     10  C   UNL     1      10.098  -0.894   5.050  0.00  0.00    -0.017 A 
BRANCH  10  11
ATOM     11  C   UNL     1       9.374  -0.693   6.356  0.00  0.00    +0.132 C 
BRANCH  11  12
ATOM     12  C   UNL     1       9.214  -2.020   7.053  0.00  0.00    +0.215 C 
ATOM     13  O   UNL     1       9.646  -3.030   6.539  0.00  0.00    -0.276 OA
ATOM     14  N   UNL     1       8.592  -2.084   8.246  0.00  0.00    -0.329 N 
ATOM     15  H   UNL     1       8.246  -1.276   8.657  0.00  0.00    +0.145 HD
ATOM     16  H   UNL     1       8.489  -2.938   8.694  0.00  0.00    +0.145 HD
ENDBRANCH  11  12
ENDBRANCH  10  11
ENDBRANCH   3   5
BRANCH   1  18
ATOM     17  N   UNL     1       4.981  -0.904   1.950  0.00  0.00    -0.308 N 
ATOM     18  C   UNL     1       5.750  -1.216   3.013  0.00  0.00    +0.299 C 
ATOM     19  O   UNL     1       5.233  -1.572   4.052  0.00  0.00    -0.265 OA
ATOM     20  H   UNL     1       5.394  -0.619   1.120  0.00  0.00    +0.149 HD
BRANCH  17  21
ATOM     21  C   UNL     1       3.522  -0.996   2.049  0.00  0.00    +0.103 C 
BRANCH  21  22
ATOM     22  C   UNL     1       2.894  -0.591   0.714  0.00  0.00    +0.000 C 
BRANCH  22  23
ATOM     23  C   UNL     1       1.371  -0.687   0.818  0.00  0.00    -0.077 C 
BRANCH  23  25
ATOM     24  C   UNL     1       1.050   1.119  -0.728  0.00  0.00    -0.096 C 
ATOM     25  N   UNL     1       0.767  -0.298  -0.464  0.00  0.00    +0.384 N 
ATOM     26  H   UNL     1       1.157  -0.862  -1.204  0.00  0.00    -0.082 HD
BRANCH  25  27
ATOM     27  C   UNL     1      -0.686  -0.504  -0.404  0.00  0.00    +0.036 C 
BRANCH  27  28
ATOM     28  C   UNL     1      -1.300  -0.208  -1.774  0.00  0.00    +0.376 C 
ATOM     29  F   UNL     1      -0.640  -0.959  -2.752  0.00  0.00    -0.173 F 
ATOM     30  F   UNL     1      -2.657  -0.551  -1.760  0.00  0.00    -0.173 F 
ATOM     31  F   UNL     1      -1.166   1.154  -2.061  0.00  0.00    -0.173 F 
ENDBRANCH  27  28
ENDBRANCH  25  27
ENDBRANCH  23  25
ENDBRANCH  22  23
ENDBRANCH  21  22
ENDBRANCH  17  21
ENDBRANCH   1  18
TORSDOF 10
