REMARK  Name = ZINC40463504
REMARK  9 active torsions:
REMARK  status: ('A' for Active; 'I' for Inactive)
REMARK    1  A    between atoms: C_1  and  C_2
REMARK    2  A    between atoms: C_2  and  C_4
REMARK    3  A    between atoms: C_2  and  N_14
REMARK    4  A    between atoms: C_15  and  C_17
REMARK    5  A    between atoms: C_17  and  C_19
REMARK    6  A    between atoms: C_17  and  N_23
REMARK    7  A    between atoms: C_19  and  C_20
REMARK    8  A    between atoms: C_20  and  S_21
REMARK    9  A    between atoms: S_21  and  C_22
REMARK                            x       y       z     vdW  Elec       q    Type
REMARK                         _______ _______ _______ _____ _____    ______ ____
ROOT
ATOM      1  N   UNL     1       0.711  -0.489   1.189  0.00  0.00    -0.310 N 
ATOM      2  C   UNL     1       0.051  -0.633   2.355  0.00  0.00    +0.199 C 
ATOM      3  O   UNL     1      -1.129  -0.361   2.423  0.00  0.00    -0.278 OA
ATOM      4  H   UNL     1       1.654  -0.707   1.135  0.00  0.00    +0.149 HD
ENDROOT
BRANCH   1   6
ATOM      5  C   UNL     1      -0.019   1.526   0.010  0.00  0.00    +0.033 C 
ATOM      6  C   UNL     1       0.002  -0.004   0.002  0.00  0.00    +0.100 C 
BRANCH   6   7
ATOM      7  C   UNL     1       0.707  -0.490  -1.238  0.00  0.00    -0.027 A 
ATOM      8  C   UNL     1       2.089  -0.512  -1.286  0.00  0.00    +0.006 A 
ATOM      9  C   UNL     1       2.727  -0.955  -2.426  0.00  0.00    +0.004 A 
ATOM     10  C   UNL     1       1.994  -1.382  -3.526  0.00  0.00    -0.044 A 
ATOM     11  C   UNL     1       0.618  -1.365  -3.475  0.00  0.00    -0.044 A 
ATOM     12  C   UNL     1      -0.023  -0.920  -2.326  0.00  0.00    +0.009 A 
ATOM     13  C   UNL     1      -0.241  -1.828  -4.623  0.00  0.00    +0.035 C 
ATOM     14  C   UNL     1       0.570  -1.873  -5.917  0.00  0.00    +0.005 C 
ATOM     15  C   UNL     1       1.853  -2.670  -5.656  0.00  0.00    +0.005 C 
ATOM     16  C   UNL     1       2.755  -1.846  -4.740  0.00  0.00    +0.035 C 
ENDBRANCH   6   7
ENDBRANCH   1   6
BRANCH   2  17
ATOM     17  C   UNL     1       0.780  -1.133   3.576  0.00  0.00    +0.013 C 
BRANCH  17  18
ATOM     18  N   UNL     1       0.028  -0.761   4.782  0.00  0.00    +0.386 N 
ATOM     19  H   UNL     1      -0.891  -1.175   4.746  0.00  0.00    -0.089 HD
ATOM     20  H   UNL     1       0.516  -1.095   5.599  0.00  0.00    -0.089 HD
ATOM     21  H   UNL     1      -0.058   0.243   4.829  0.00  0.00    -0.089 HD
ENDBRANCH  17  18
BRANCH  17  22
ATOM     22  C   UNL     1       0.910  -2.655   3.506  0.00  0.00    +0.003 C 
BRANCH  22  23
ATOM     23  C   UNL     1       1.757  -3.150   4.680  0.00  0.00    +0.068 C 
BRANCH  23  24
ATOM     24  S   UNL     1       1.911  -4.956   4.596  0.00  0.00    -0.164 S 
ATOM     25  C   UNL     1       2.929  -5.377   6.037  0.00  0.00    +0.084 C 
ENDBRANCH  23  24
ENDBRANCH  22  23
ENDBRANCH  17  22
ENDBRANCH   2  17
TORSDOF 7
