REMARK  Name = ZINC23440638
REMARK  13 active torsions:
REMARK  status: ('A' for Active; 'I' for Inactive)
REMARK    1  A    between atoms: C_1  and  C_2
REMARK    2  A    between atoms: C_5  and  C_8
REMARK    3  A    between atoms: C_8  and  O_9
REMARK    4  A    between atoms: O_9  and  C_10
REMARK    5  A    between atoms: C_10  and  C_12
REMARK    6  A    between atoms: C_10  and  C_32
REMARK    7  A    between atoms: C_12  and  N_13
REMARK    8  A    between atoms: N_21  and  C_22
REMARK    9  A    between atoms: C_27  and  C_28
REMARK   10  A    between atoms: C_28  and  O_30
REMARK   11  A    between atoms: O_30  and  C_31
REMARK   12  A    between atoms: C_36  and  O_38
REMARK   13  A    between atoms: O_38  and  C_39
REMARK                            x       y       z     vdW  Elec       q    Type
REMARK                         _______ _______ _______ _____ _____    ______ ____
ROOT
ATOM      1  N   UNL     1       1.373   5.536   1.494  0.00  0.00    +0.384 N 
ATOM      2  C   UNL     1       2.040   6.068   2.690  0.00  0.00    -0.059 C 
ATOM      3  C   UNL     1       2.176   7.589   2.561  0.00  0.00    +0.091 C 
ATOM      4  N   UNL     1       0.847   8.155   2.286  0.00  0.00    -0.289 N 
ATOM      5  C   UNL     1       0.058   7.579   1.186  0.00  0.00    +0.091 C 
ATOM      6  C   UNL     1       0.005   6.059   1.369  0.00  0.00    -0.059 C 
ATOM      7  C   UNL     1       0.364   9.175   3.023  0.00  0.00    +0.306 C 
ATOM      8  O   UNL     1      -0.773   9.568   2.847  0.00  0.00    -0.252 OA
ATOM      9  N   UNL     1       1.142   9.761   3.955  0.00  0.00    -0.269 N 
ATOM     10  H   UNL     1       2.145   9.360   4.165  0.00  0.00    +0.156 HD
ATOM     11  H   UNL     1       1.942   5.874   0.615  0.00  0.00    -0.082 HD
ENDROOT
BRANCH   9  12
ATOM     12  C   UNL     1       0.677  10.873   4.652  0.00  0.00    +0.049 A 
ATOM     13  C   UNL     1      -0.667  10.975   4.986  0.00  0.00    +0.024 A 
ATOM     14  C   UNL     1      -1.125  12.076   5.681  0.00  0.00    +0.002 A 
ATOM     15  C   UNL     1      -0.253  13.091   6.041  0.00  0.00    +0.001 A 
ATOM     16  C   UNL     1       1.083  13.010   5.714  0.00  0.00    +0.017 A 
ATOM     17  C   UNL     1       1.563  11.899   5.015  0.00  0.00    +0.080 A 
BRANCH  17  18
ATOM     18  C   UNL     1       2.991  11.806   4.660  0.00  0.00    +0.341 C 
ATOM     19  O   UNL     1       3.386  10.888   3.969  0.00  0.00    -0.245 OA
BRANCH  18  20
ATOM     20  O   UNL     1       3.857  12.738   5.103  0.00  0.00    -0.464 OA
ATOM     21  C   UNL     1       5.247  12.583   4.715  0.00  0.00    +0.280 C 
ENDBRANCH  18  20
ENDBRANCH  17  18
ENDBRANCH   9  12
BRANCH   1  22
ATOM     22  C   UNL     1       1.376   4.067   1.499  0.00  0.00    -0.042 C 
BRANCH  22  23
ATOM     23  C   UNL     1       1.136   3.552   0.078  0.00  0.00    +0.132 C 
BRANCH  23  24
ATOM     24  C   UNL     1       1.136   2.045   0.084  0.00  0.00    -0.017 A 
ATOM     25  C   UNL     1       2.334   1.354   0.094  0.00  0.00    +0.006 A 
ATOM     26  C   UNL     1       2.337  -0.028   0.099  0.00  0.00    +0.004 A 
ATOM     27  C   UNL     1       1.143  -0.724   0.093  0.00  0.00    +0.045 A 
ATOM     28  C   UNL     1      -0.060  -0.033   0.083  0.00  0.00    +0.120 A 
ATOM     29  C   UNL     1      -0.061   1.355   0.078  0.00  0.00    +0.051 A 
BRANCH  28  30
ATOM     30  O   UNL     1      -1.236  -0.715   0.076  0.00  0.00    -0.495 OA
ATOM     31  C   UNL     1      -1.158  -2.141   0.082  0.00  0.00    +0.277 C 
ENDBRANCH  28  30
ENDBRANCH  23  24
BRANCH  23  32
ATOM     32  O   UNL     1       2.174   4.025  -0.782  0.00  0.00    -0.369 OA
BRANCH  32  33
ATOM     33  C   UNL     1       1.764   4.214  -2.138  0.00  0.00    +0.195 C 
BRANCH  33  38
ATOM     34  C   UNL     1       6.239   6.123  -5.256  0.00  0.00    +0.044 C 
ATOM     35  C   UNL     1       5.072   5.625  -4.443  0.00  0.00    -0.050 A 
ATOM     36  C   UNL     1       4.845   4.267  -4.320  0.00  0.00    +0.004 A 
ATOM     37  C   UNL     1       3.774   3.811  -3.574  0.00  0.00    +0.006 A 
ATOM     38  C   UNL     1       2.931   4.712  -2.951  0.00  0.00    -0.022 A 
ATOM     39  C   UNL     1       3.155   6.070  -3.078  0.00  0.00    +0.006 A 
ATOM     40  C   UNL     1       4.228   6.527  -3.820  0.00  0.00    +0.004 A 
ENDBRANCH  33  38
ENDBRANCH  32  33
ENDBRANCH  23  32
ENDBRANCH  22  23
ENDBRANCH   1  22
TORSDOF 10
