REMARK  Name = ZINC60993489
REMARK  12 active torsions:
REMARK  status: ('A' for Active; 'I' for Inactive)
REMARK    1  A    between atoms: C_1  and  C_2
REMARK    2  A    between atoms: C_2  and  C_3
REMARK    3  A    between atoms: C_2  and  C_4
REMARK    4  A    between atoms: C_7  and  C_10
REMARK    5  A    between atoms: C_10  and  C_11
REMARK    6  A    between atoms: C_10  and  N_12
REMARK    7  A    between atoms: N_12  and  C_13
REMARK    8  A    between atoms: C_13  and  C_14
REMARK    9  A    between atoms: N_16  and  C_17
REMARK   10  A    between atoms: C_22  and  S_23
REMARK   11  A    between atoms: S_23  and  C_24
REMARK   12  A    between atoms: C_24  and  C_25
REMARK                            x       y       z     vdW  Elec       q    Type
REMARK                         _______ _______ _______ _____ _____    ______ ____
ROOT
ATOM      1  C   UNL     1      -6.799  -5.371  -0.791  0.00  0.00    +0.200 C 
ATOM      2  O   UNL     1      -5.779  -5.880  -1.205  0.00  0.00    -0.278 OA
ATOM      3  N   UNL     1      -7.947  -6.077  -0.777  0.00  0.00    -0.286 N 
ATOM      4  H   UNL     1      -8.748  -5.694  -0.387  0.00  0.00    +0.155 HD
ENDROOT
BRANCH   3   5
ATOM      5  C   UNL     1      -7.984  -7.366  -1.327  0.00  0.00    +0.047 A 
ATOM      6  C   UNL     1      -6.877  -8.195  -1.228  0.00  0.00    +0.024 A 
ATOM      7  C   UNL     1      -6.915  -9.466  -1.772  0.00  0.00    +0.002 A 
ATOM      8  C   UNL     1      -8.054  -9.915  -2.414  0.00  0.00    +0.001 A 
ATOM      9  C   UNL     1      -9.162  -9.095  -2.517  0.00  0.00    +0.016 A 
ATOM     10  C   UNL     1      -9.135  -7.820  -1.970  0.00  0.00    +0.030 A 
BRANCH  10  11
ATOM     11  S   UNL     1     -10.549  -6.775  -2.094  0.00  0.00    -0.114 S 
BRANCH  11  12
ATOM     12  C   UNL     1     -11.762  -7.782  -2.991  0.00  0.00    +0.169 C 
BRANCH  12  13
ATOM     13  C   UNL     1     -13.035  -6.996  -3.167  0.00  0.00    +0.221 C 
ATOM     14  O   UNL     1     -13.116  -5.867  -2.731  0.00  0.00    -0.275 OA
ATOM     15  N   UNL     1     -14.084  -7.547  -3.810  0.00  0.00    -0.329 N 
ATOM     16  H   UNL     1     -14.019  -8.450  -4.159  0.00  0.00    +0.145 HD
ATOM     17  H   UNL     1     -14.904  -7.041  -3.924  0.00  0.00    +0.145 HD
ENDBRANCH  12  13
ENDBRANCH  11  12
ENDBRANCH  10  11
ENDBRANCH   3   5
BRANCH   1  18
ATOM     18  C   UNL     1      -6.784  -3.949  -0.292  0.00  0.00    +0.016 C 
BRANCH  18  19
ATOM     19  N   UNL     1      -5.425  -3.403  -0.411  0.00  0.00    +0.389 N 
ATOM     20  H   UNL     1      -5.138  -3.424  -1.378  0.00  0.00    -0.084 HD
ATOM     21  H   UNL     1      -4.790  -3.960   0.141  0.00  0.00    -0.084 HD
BRANCH  19  22
ATOM     22  C   UNL     1      -5.410  -2.017   0.075  0.00  0.00    -0.043 C 
ATOM     23  C   UNL     1      -6.277  -1.147  -0.837  0.00  0.00    -0.009 C 
BRANCH  22  27
ATOM     24  C   UNL     1      -1.399  -0.547   0.058  0.00  0.00    -0.045 A 
ATOM     25  C   UNL     1      -2.246  -0.232   1.104  0.00  0.00    +0.004 A 
ATOM     26  C   UNL     1      -3.544  -0.707   1.109  0.00  0.00    +0.002 A 
ATOM     27  C   UNL     1      -3.995  -1.498   0.069  0.00  0.00    -0.062 A 
ATOM     28  C   UNL     1      -3.148  -1.812  -0.977  0.00  0.00    +0.002 A 
ATOM     29  C   UNL     1      -1.852  -1.333  -0.985  0.00  0.00    +0.004 A 
BRANCH  24  31
ATOM     30  C   UNL     1      -0.001   1.501   0.072  0.00  0.00    +0.012 C 
ATOM     31  C   UNL     1       0.016  -0.029   0.052  0.00  0.00    +0.013 C 
ATOM     32  C   UNL     1       0.754  -0.547   1.288  0.00  0.00    +0.012 C 
ENDBRANCH  24  31
ENDBRANCH  22  27
ENDBRANCH  19  22
ENDBRANCH  18  19
ENDBRANCH   1  18
TORSDOF 9
