REMARK  Name = ZINC36610352
REMARK  14 active torsions:
REMARK  status: ('A' for Active; 'I' for Inactive)
REMARK    1  A    between atoms: C_1  and  C_2
REMARK    2  A    between atoms: C_2  and  C_3
REMARK    3  A    between atoms: C_3  and  C_4
REMARK    4  A    between atoms: C_5  and  C_6
REMARK    5  A    between atoms: C_6  and  C_8
REMARK    6  A    between atoms: C_6  and  N_22
REMARK    7  A    between atoms: N_10  and  C_11
REMARK    8  A    between atoms: C_11  and  S_12
REMARK    9  A    between atoms: S_12  and  C_15
REMARK   10  A    between atoms: C_18  and  C_21
REMARK   11  A    between atoms: N_22  and  C_23
REMARK   12  A    between atoms: C_29  and  C_31
REMARK   13  A    between atoms: C_35  and  O_38
REMARK   14  A    between atoms: C_36  and  O_37
REMARK                            x       y       z     vdW  Elec       q    Type
REMARK                         _______ _______ _______ _____ _____    ______ ____
ROOT
ATOM      1  C   UNL     1       0.662  -5.407  -2.564  0.00  0.00    +0.190 C 
ENDROOT
BRANCH   1   2
ATOM      2  C   UNL     1       1.558  -6.450  -3.183  0.00  0.00    +0.239 C 
ATOM      3  O   UNL     1       2.435  -6.965  -2.522  0.00  0.00    -0.273 OA
ATOM      4  N   UNL     1       1.384  -6.810  -4.470  0.00  0.00    -0.294 N 
ATOM      5  H   UNL     1       0.683  -6.398  -4.998  0.00  0.00    +0.150 HD
BRANCH   4   6
ATOM      6  C   UNL     1       2.255  -7.823  -5.071  0.00  0.00    +0.278 C 
BRANCH   6   7
ATOM      7  S   UNL     1       1.457  -9.448  -4.960  0.00  0.00    +0.013 S 
ATOM      8  O   UNL     1       2.261 -10.433  -5.596  0.00  0.00    -0.168 OA
ATOM      9  O   UNL     1       0.956  -9.659  -3.647  0.00  0.00    -0.168 OA
BRANCH   7  10
ATOM     10  C   UNL     1       0.022  -9.318  -5.974  0.00  0.00    +0.090 A 
ATOM     11  C   UNL     1      -1.173  -8.886  -5.428  0.00  0.00    +0.027 A 
ATOM     12  C   UNL     1      -2.299  -8.784  -6.224  0.00  0.00    +0.005 A 
ATOM     13  C   UNL     1      -2.230  -9.113  -7.565  0.00  0.00    -0.050 A 
ATOM     14  C   UNL     1      -1.035  -9.543  -8.111  0.00  0.00    +0.005 A 
ATOM     15  C   UNL     1       0.092  -9.642  -7.316  0.00  0.00    +0.027 A 
ATOM     16  C   UNL     1      -3.458  -9.002  -8.431  0.00  0.00    +0.044 C 
ENDBRANCH   7  10
ENDBRANCH   6   7
ENDBRANCH   4   6
ENDBRANCH   1   2
BRANCH   1  17
ATOM     17  N   UNL     1       1.051  -5.195  -1.168  0.00  0.00    -0.252 N 
ATOM     18  C   UNL     1       0.129  -5.292  -0.189  0.00  0.00    +0.255 C 
ATOM     19  O   UNL     1       0.442  -5.072   0.965  0.00  0.00    -0.269 OA
BRANCH  17  20
ATOM     20  C   UNL     1       2.379  -4.892  -0.850  0.00  0.00    +0.038 A 
ATOM     21  C   UNL     1       3.295  -4.635  -1.862  0.00  0.00    +0.023 A 
ATOM     22  C   UNL     1       4.606  -4.336  -1.545  0.00  0.00    +0.002 A 
ATOM     23  C   UNL     1       5.006  -4.293  -0.222  0.00  0.00    +0.000 A 
ATOM     24  C   UNL     1       4.096  -4.550   0.788  0.00  0.00    +0.002 A 
ATOM     25  C   UNL     1       2.783  -4.843   0.478  0.00  0.00    +0.023 A 
ENDBRANCH  17  20
BRANCH  18  26
ATOM     26  C   UNL     1      -1.260  -5.664  -0.519  0.00  0.00    +0.082 A 
ATOM     27  C   UNL     1      -1.827  -5.259  -1.730  0.00  0.00    +0.017 A 
ATOM     28  C   UNL     1      -3.125  -5.608  -2.034  0.00  0.00    +0.005 A 
ATOM     29  C   UNL     1      -3.873  -6.361  -1.145  0.00  0.00    +0.049 A 
ATOM     30  C   UNL     1      -3.325  -6.771   0.059  0.00  0.00    +0.159 A 
ATOM     31  C   UNL     1      -2.014  -6.430   0.378  0.00  0.00    +0.171 A 
BRANCH  31  32
ATOM     32  O   UNL     1      -1.471  -6.835   1.554  0.00  0.00    -0.503 OA
ATOM     33  H   UNL     1      -1.604  -6.213   2.283  0.00  0.00    +0.292 HD
ENDBRANCH  31  32
BRANCH  30  34
ATOM     34  O   UNL     1      -4.067  -7.509   0.927  0.00  0.00    -0.503 OA
ATOM     35  H   UNL     1      -3.992  -8.464   0.795  0.00  0.00    +0.292 HD
ENDBRANCH  30  34
ENDBRANCH  18  26
ENDBRANCH   1  17
BRANCH   1  37
ATOM     36  C   UNL     1       1.211  -3.033  -2.712  0.00  0.00    -0.029 C 
ATOM     37  C   UNL     1       0.797  -4.114  -3.325  0.00  0.00    +0.001 C 
BRANCH  36  38
ATOM     38  C   UNL     1       1.346  -1.739  -3.473  0.00  0.00    +0.027 C 
BRANCH  38  40
ATOM     39  C   UNL     1       0.671   0.665  -3.545  0.00  0.00    +0.004 C 
ATOM     40  C   UNL     1       0.534  -0.648  -2.772  0.00  0.00    +0.001 C 
ENDBRANCH  38  40
ENDBRANCH  36  38
ENDBRANCH   1  37
TORSDOF 12
