REMARK  Name = ZINC35664501
REMARK  12 active torsions:
REMARK  status: ('A' for Active; 'I' for Inactive)
REMARK    1  A    between atoms: C_1  and  C_2
REMARK    2  A    between atoms: C_2  and  N_3
REMARK    3  A    between atoms: C_4  and  C_24
REMARK    4  A    between atoms: C_5  and  C_19
REMARK    5  A    between atoms: C_6  and  C_11
REMARK    6  A    between atoms: C_13  and  C_18
REMARK    7  A    between atoms: C_16  and  C_17
REMARK    8  A    between atoms: C_19  and  O_21
REMARK    9  A    between atoms: O_21  and  C_22
REMARK   10  A    between atoms: C_22  and  C_23
REMARK   11  A    between atoms: C_24  and  N_25
REMARK   12  A    between atoms: C_32  and  C_34
REMARK                            x       y       z     vdW  Elec       q    Type
REMARK                         _______ _______ _______ _____ _____    ______ ____
ROOT
ATOM      1  N   UNL     1      -1.503  -0.147  -0.312  0.00  0.00    -0.261 N 
ATOM      2  C   UNL     1      -1.956  -0.709   0.847  0.00  0.00    +0.010 C 
ATOM      3  C   UNL     1      -3.101  -1.425   0.874  0.00  0.00    +0.076 C 
ATOM      4  C   UNL     1      -3.865  -1.582  -0.424  0.00  0.00    +0.144 C 
ATOM      5  N   UNL     1      -3.293  -0.936  -1.618  0.00  0.00    -0.288 N 
ATOM      6  C   UNL     1      -2.141  -0.250  -1.486  0.00  0.00    +0.307 C 
ATOM      7  O   UNL     1      -1.662   0.290  -2.464  0.00  0.00    -0.252 OA
ATOM      8  H   UNL     1      -3.736  -1.001  -2.478  0.00  0.00    +0.151 HD
ENDROOT
BRANCH   4   9
ATOM      9  C   UNL     1      -3.996  -3.055  -0.712  0.00  0.00    -0.019 A 
ATOM     10  C   UNL     1      -3.151  -3.958  -0.093  0.00  0.00    +0.009 A 
ATOM     11  C   UNL     1      -3.270  -5.309  -0.356  0.00  0.00    -0.050 A 
ATOM     12  C   UNL     1      -4.235  -5.759  -1.238  0.00  0.00    +0.003 A 
ATOM     13  C   UNL     1      -5.081  -4.857  -1.856  0.00  0.00    +0.004 A 
ATOM     14  C   UNL     1      -4.964  -3.506  -1.589  0.00  0.00    -0.045 A 
ATOM     15  C   UNL     1      -5.889  -2.523  -2.259  0.00  0.00    +0.044 C 
ATOM     16  C   UNL     1      -2.348  -6.293   0.318  0.00  0.00    +0.044 C 
ENDBRANCH   4   9
BRANCH   1  18
ATOM     17  C   UNL     1      -0.569   2.099  -0.058  0.00  0.00    +0.025 C 
ATOM     18  C   UNL     1      -0.254   0.616  -0.269  0.00  0.00    +0.111 C 
ENDBRANCH   1  18
BRANCH   3  19
ATOM     19  C   UNL     1      -3.570  -2.008   2.074  0.00  0.00    +0.339 C 
ATOM     20  O   UNL     1      -2.977  -1.812   3.119  0.00  0.00    -0.245 OA
BRANCH  19  21
ATOM     21  O   UNL     1      -4.675  -2.783   2.061  0.00  0.00    -0.462 OA
BRANCH  21  22
ATOM     22  C   UNL     1      -5.156  -3.249   3.323  0.00  0.00    +0.229 C 
ATOM     23  C   UNL     1      -6.330  -4.204   3.101  0.00  0.00    +0.048 C 
ENDBRANCH  21  22
ENDBRANCH  19  21
ENDBRANCH   3  19
BRANCH   2  24
ATOM     24  C   UNL     1      -1.164  -0.528   2.116  0.00  0.00    -0.026 C 
BRANCH  24  25
ATOM     25  N   UNL     1      -0.361  -1.732   2.368  0.00  0.00    +0.384 N 
ATOM     26  C   UNL     1       0.186  -1.647   3.720  0.00  0.00    -0.077 C 
ATOM     27  C   UNL     1       0.370  -3.042   4.274  0.00  0.00    +0.000 C 
ATOM     28  C   UNL     1       1.807  -3.519   3.995  0.00  0.00    +0.106 C 
ATOM     29  N   UNL     1       2.252  -3.104   2.649  0.00  0.00    -0.299 N 
ATOM     30  C   UNL     1       1.386  -3.173   1.491  0.00  0.00    +0.089 C 
ATOM     31  C   UNL     1       0.603  -1.848   1.342  0.00  0.00    -0.059 C 
ATOM     32  C   UNL     1       3.510  -2.645   2.494  0.00  0.00    +0.247 C 
ATOM     33  O   UNL     1       3.865  -2.197   1.421  0.00  0.00    -0.270 OA
ATOM     34  H   UNL     1      -0.971  -2.535   2.325  0.00  0.00    -0.081 HD
BRANCH  32  35
ATOM     35  C   UNL     1       4.457  -2.687   3.627  0.00  0.00    +0.037 A 
ATOM     36  C   UNL     1       4.428  -3.757   4.525  0.00  0.00    +0.016 A 
ATOM     37  C   UNL     1       5.314  -3.791   5.580  0.00  0.00    +0.039 A 
ATOM     38  C   UNL     1       6.232  -2.766   5.752  0.00  0.00    +0.123 A 
ATOM     39  C   UNL     1       6.264  -1.702   4.864  0.00  0.00    +0.039 A 
ATOM     40  C   UNL     1       5.387  -1.661   3.801  0.00  0.00    +0.016 A 
ATOM     41  F   UNL     1       7.097  -2.804   6.789  0.00  0.00    -0.205 F 
ENDBRANCH  32  35
ENDBRANCH  24  25
ENDBRANCH   2  24
TORSDOF 8
