REMARK  Name = ZINC04399754
REMARK  11 active torsions:
REMARK  status: ('A' for Active; 'I' for Inactive)
REMARK    1  A    between atoms: C_1  and  C_2
REMARK    2  A    between atoms: C_2  and  C_3
REMARK    3  A    between atoms: C_2  and  C_4
REMARK    4  A    between atoms: C_2  and  N_5
REMARK    5  A    between atoms: C_6  and  C_10
REMARK    6  A    between atoms: C_10  and  C_12
REMARK    7  A    between atoms: C_10  and  N_66
REMARK    8  A    between atoms: C_15  and  O_20
REMARK    9  A    between atoms: C_16  and  O_18
REMARK   10  A    between atoms: O_18  and  C_19
REMARK   11  A    between atoms: O_20  and  C_21
REMARK                            x       y       z     vdW  Elec       q    Type
REMARK                         _______ _______ _______ _____ _____    ______ ____
ROOT
ATOM      1  C   UNL     1       3.494   1.978   1.036  0.00  0.00    +0.034 C 
ENDROOT
BRANCH   1  16
ATOM      2  C   UNL     1       1.831   2.117  -0.719  0.00  0.00    -0.058 C 
ATOM      3  C   UNL     1       0.539   1.490  -1.248  0.00  0.00    +0.088 C 
ATOM      4  N   UNL     1       0.786   0.084  -1.596  0.00  0.00    -0.313 N 
ATOM      5  C   UNL     1       1.249  -0.672  -0.424  0.00  0.00    +0.088 C 
ATOM      6  C   UNL     1       2.542  -0.045   0.105  0.00  0.00    -0.058 C 
ATOM      7  C   UNL     1      -0.341  -0.495  -2.144  0.00  0.00    +0.162 A 
ATOM      8  N   UNL     1      -0.508  -1.725  -2.575  0.00  0.00    -0.225 NA
ATOM      9  C   UNL     1      -1.679  -2.159  -3.092  0.00  0.00    +0.080 A 
ATOM     10  C   UNL     1      -1.990  -3.446  -3.587  0.00  0.00    +0.029 A 
ATOM     11  C   UNL     1      -3.238  -3.723  -4.081  0.00  0.00    +0.002 A 
ATOM     12  C   UNL     1      -4.235  -2.759  -4.115  0.00  0.00    +0.001 A 
ATOM     13  C   UNL     1      -3.965  -1.489  -3.639  0.00  0.00    +0.017 A 
ATOM     14  C   UNL     1      -2.718  -1.203  -3.142  0.00  0.00    +0.041 A 
ATOM     15  S   UNL     1      -1.945   0.235  -2.442  0.00  0.00    -0.052 S 
ATOM     16  N   UNL     1       2.274   1.361   0.471  0.00  0.00    +0.391 N 
ATOM     17  H   UNL     1       1.530   1.386   1.178  0.00  0.00    -0.080 HD
ENDBRANCH   1  16
BRANCH   1  18
ATOM     18  C   UNL     1       3.884   1.232   2.286  0.00  0.00    -0.050 A 
ATOM     19  C   UNL     1       2.927   0.932   3.238  0.00  0.00    +0.006 A 
ATOM     20  C   UNL     1       3.280   0.247   4.386  0.00  0.00    +0.049 A 
ATOM     21  C   UNL     1       4.596  -0.139   4.585  0.00  0.00    +0.161 A 
ATOM     22  C   UNL     1       5.559   0.163   3.627  0.00  0.00    +0.162 A 
ATOM     23  C   UNL     1       5.197   0.845   2.476  0.00  0.00    +0.051 A 
BRANCH  22  24
ATOM     24  O   UNL     1       6.852  -0.214   3.818  0.00  0.00    -0.491 OA
ATOM     25  C   UNL     1       7.786   0.131   2.794  0.00  0.00    +0.277 C 
ENDBRANCH  22  24
BRANCH  21  26
ATOM     26  O   UNL     1       4.945  -0.812   5.714  0.00  0.00    -0.491 OA
ATOM     27  C   UNL     1       3.903  -1.088   6.653  0.00  0.00    +0.277 C 
ENDBRANCH  21  26
ENDBRANCH   1  18
BRANCH   1  29
ATOM     28  N   UNL     1       3.933   4.490   1.025  0.00  0.00    -0.225 N 
ATOM     29  C   UNL     1       3.203   3.416   1.379  0.00  0.00    +0.143 A 
ATOM     30  N   UNL     1       2.193   3.863   2.085  0.00  0.00    -0.115 NA
ATOM     31  N   UNL     1       2.294   5.146   2.156  0.00  0.00    -0.023 NA
ATOM     32  N   UNL     1       3.343   5.528   1.514  0.00  0.00    -0.043 NA
BRANCH  28  34
ATOM     33  C   UNL     1       4.872   3.905  -1.156  0.00  0.00    +0.036 C 
ATOM     34  C   UNL     1       5.163   4.482   0.231  0.00  0.00    +0.059 C 
ATOM     35  C   UNL     1       5.687   5.912   0.087  0.00  0.00    +0.036 C 
ATOM     36  C   UNL     1       6.217   3.621   0.930  0.00  0.00    +0.036 C 
ENDBRANCH  28  34
ENDBRANCH   1  29
TORSDOF 6
