REMARK  Name = ZINC41650374
REMARK  6 active torsions:
REMARK  status: ('A' for Active; 'I' for Inactive)
REMARK    1  A    between atoms: C_1  and  C_2
REMARK    2  A    between atoms: C_2  and  C_4
REMARK    3  A    between atoms: C_2  and  N_12
REMARK    4  A    between atoms: N_12  and  C_13
REMARK    5  A    between atoms: N_16  and  C_19
REMARK    6  A    between atoms: C_19  and  C_20
REMARK                            x       y       z     vdW  Elec       q    Type
REMARK                         _______ _______ _______ _____ _____    ______ ____
ROOT
ATOM      1  N   UNL     1       0.576  -0.471  -1.165  0.00  0.00    +0.385 N 
ATOM      2  H   UNL     1       0.085  -0.157  -1.989  0.00  0.00    -0.085 HD
ATOM      3  H   UNL     1       0.108  -0.123  -0.342  0.00  0.00    -0.085 HD
ENDROOT
BRANCH   1   4
ATOM      4  C   UNL     1       1.955   0.036  -1.195  0.00  0.00    -0.069 C 
ATOM      5  C   UNL     1       1.942   1.563  -1.088  0.00  0.00    -0.000 C 
ATOM      6  C   UNL     1       3.376   2.088  -1.181  0.00  0.00    +0.083 C 
ATOM      7  N   UNL     1       3.969   1.675  -2.459  0.00  0.00    -0.294 NA
ATOM      8  C   UNL     1       4.035   0.211  -2.564  0.00  0.00    +0.083 C 
ATOM      9  C   UNL     1       2.621  -0.370  -2.513  0.00  0.00    -0.000 C 
BRANCH   7  10
ATOM     10  C   UNL     1       5.296   2.277  -2.643  0.00  0.00    +0.180 C 
BRANCH  10  11
ATOM     11  C   UNL     1       5.766   2.035  -4.054  0.00  0.00    +0.225 C 
ATOM     12  O   UNL     1       5.064   1.421  -4.830  0.00  0.00    -0.275 OA
ATOM     13  N   UNL     1       6.966   2.500  -4.454  0.00  0.00    -0.328 N 
ATOM     14  H   UNL     1       7.527   2.991  -3.834  0.00  0.00    +0.145 HD
ATOM     15  H   UNL     1       7.268   2.344  -5.363  0.00  0.00    +0.145 HD
ENDBRANCH  10  11
ENDBRANCH   7  10
ENDBRANCH   1   4
BRANCH   1  17
ATOM     16  C   UNL     1       1.204  -2.416   0.184  0.00  0.00    -0.009 C 
ATOM     17  C   UNL     1       0.594  -1.939  -1.136  0.00  0.00    -0.043 C 
BRANCH  17  18
ATOM     18  C   UNL     1      -0.814  -2.461  -1.257  0.00  0.00    -0.048 A 
ATOM     19  C   UNL     1      -1.884  -1.636  -0.965  0.00  0.00    +0.004 A 
ATOM     20  C   UNL     1      -3.176  -2.114  -1.076  0.00  0.00    +0.015 A 
ATOM     21  C   UNL     1      -3.399  -3.419  -1.479  0.00  0.00    +0.019 A 
ATOM     22  C   UNL     1      -2.329  -4.245  -1.770  0.00  0.00    +0.030 A 
ATOM     23  C   UNL     1      -1.036  -3.764  -1.664  0.00  0.00    +0.021 A 
ATOM     24 BR   UNL     1       0.428  -4.890  -2.070  0.00  0.00    -0.050 Br
ATOM     25 BR   UNL     1      -5.167  -4.074  -1.630  0.00  0.00    -0.050 Br
ENDBRANCH  17  18
ENDBRANCH   1  17
TORSDOF 5
