REMARK  Name = ZINC65298452
REMARK  9 active torsions:
REMARK  status: ('A' for Active; 'I' for Inactive)
REMARK    1  A    between atoms: C_1  and  C_2
REMARK    2  A    between atoms: C_2  and  O_3
REMARK    3  A    between atoms: O_3  and  C_4
REMARK    4  A    between atoms: C_8  and  C_11
REMARK    5  A    between atoms: C_9  and  O_10
REMARK    6  A    between atoms: C_14  and  C_24
REMARK    7  A    between atoms: N_20  and  C_23
REMARK    8  A    between atoms: C_27  and  C_31
REMARK    9  A    between atoms: C_28  and  C_30
REMARK                            x       y       z     vdW  Elec       q    Type
REMARK                         _______ _______ _______ _____ _____    ______ ____
ROOT
ATOM      1  C   UNL     1       2.224  -4.267  -3.827  0.00  0.00    +0.095 C 
ATOM      2  C   UNL     1       1.270  -4.255  -5.026  0.00  0.00    +0.079 C 
ATOM      3  C   UNL     1       1.844  -5.098  -6.130  0.00  0.00    +0.047 C 
ATOM      4  N   UNL     1       2.796  -5.933  -5.950  0.00  0.00    -0.266 NA
ATOM      5  C   UNL     1       3.449  -6.168  -4.668  0.00  0.00    +0.109 C 
ATOM      6  N   UNL     1       2.619  -5.662  -3.567  0.00  0.00    -0.286 NA
ATOM      7  C   UNL     1       4.804  -5.453  -4.645  0.00  0.00    +0.027 C 
ATOM      8  C   UNL     1       5.702  -6.042  -5.736  0.00  0.00    -0.076 C 
ATOM      9  N   UNL     1       5.902  -7.475  -5.489  0.00  0.00    +0.378 N 
ATOM     10  C   UNL     1       4.617  -8.179  -5.574  0.00  0.00    -0.076 C 
ATOM     11  C   UNL     1       3.679  -7.671  -4.478  0.00  0.00    +0.027 C 
ATOM     12  C   UNL     1       6.824  -8.019  -6.494  0.00  0.00    -0.096 C 
ATOM     13  H   UNL     1       3.100  -5.743  -2.683  0.00  0.00    +0.125 HD
ATOM     14  H   UNL     1       6.295  -7.605  -4.569  0.00  0.00    -0.082 HD
ENDROOT
BRANCH   3  15
ATOM     15  C   UNL     1       1.281  -4.955  -7.488  0.00  0.00    -0.004 A 
ATOM     16  C   UNL     1       0.245  -4.050  -7.726  0.00  0.00    +0.010 A 
ATOM     17  C   UNL     1      -0.276  -3.922  -8.996  0.00  0.00    +0.004 A 
ATOM     18  C   UNL     1       0.226  -4.688 -10.034  0.00  0.00    -0.048 A 
ATOM     19  C   UNL     1       1.252  -5.586  -9.805  0.00  0.00    -0.047 A 
ATOM     20  C   UNL     1       1.787  -5.720  -8.540  0.00  0.00    +0.013 A 
ATOM     21  C   UNL     1       1.792  -6.417 -10.941  0.00  0.00    +0.044 C 
ATOM     22  C   UNL     1      -0.349  -4.542 -11.420  0.00  0.00    +0.044 C 
ENDBRANCH   3  15
BRANCH   1  27
ATOM     23  C   UNL     1       0.777  -1.811  -1.336  0.00  0.00    +0.162 A 
ATOM     24  C   UNL     1       0.243  -2.669  -0.388  0.00  0.00    +0.049 A 
ATOM     25  C   UNL     1       0.352  -4.037  -0.555  0.00  0.00    +0.004 A 
ATOM     26  C   UNL     1       0.992  -4.552  -1.667  0.00  0.00    +0.009 A 
ATOM     27  C   UNL     1       1.526  -3.702  -2.616  0.00  0.00    +0.015 A 
ATOM     28  C   UNL     1       1.416  -2.330  -2.458  0.00  0.00    +0.163 A 
BRANCH  28  29
ATOM     29  O   UNL     1       1.936  -1.492  -3.394  0.00  0.00    -0.503 OA
ATOM     30  H   UNL     1       2.856  -1.241  -3.231  0.00  0.00    +0.292 HD
ENDBRANCH  28  29
BRANCH  23  31
ATOM     31  O   UNL     1       0.671  -0.465  -1.174  0.00  0.00    -0.489 OA
BRANCH  31  33
ATOM     32  C   UNL     1      -0.019   1.526   0.010  0.00  0.00    +0.048 C 
ATOM     33  C   UNL     1       0.002  -0.004   0.002  0.00  0.00    +0.226 C 
ENDBRANCH  31  33
ENDBRANCH  23  31
ENDBRANCH   1  27
TORSDOF 5
