REMARK  Name = ZINC00647004
REMARK  8 active torsions:
REMARK  status: ('A' for Active; 'I' for Inactive)
REMARK    1  A    between atoms: C_1  and  C_2
REMARK    2  A    between atoms: C_2  and  O_3
REMARK    3  A    between atoms: O_3  and  C_4
REMARK    4  A    between atoms: C_4  and  C_6
REMARK    5  A    between atoms: C_10  and  N_11
REMARK    6  A    between atoms: C_12  and  C_14
REMARK    7  A    between atoms: C_19  and  C_31
REMARK    8  A    between atoms: C_22  and  C_25
REMARK                            x       y       z     vdW  Elec       q    Type
REMARK                         _______ _______ _______ _____ _____    ______ ____
ROOT
ATOM      1  C   UNL     1      -3.314  -2.668   4.921  0.00  0.00    +0.149 A 
ATOM      2  C   UNL     1      -4.015  -2.987   6.106  0.00  0.00    +0.078 A 
ATOM      3  C   UNL     1      -3.227  -2.656   7.147  0.00  0.00    +0.119 A 
ATOM      4  N   UNL     1      -2.061  -2.145   6.653  0.00  0.00    -0.238 N 
ATOM      5  N   UNL     1      -2.139  -2.167   5.261  0.00  0.00    -0.164 NA
ATOM      6  C   UNL     1      -0.955  -1.679   7.495  0.00  0.00    +0.215 C 
ATOM      7  C   UNL     1      -1.107  -2.287   8.894  0.00  0.00    +0.063 C 
ATOM      8  C   UNL     1      -2.533  -2.062   9.408  0.00  0.00    +0.104 C 
ATOM      9  N   UNL     1      -3.471  -2.775   8.519  0.00  0.00    -0.322 N 
ATOM     10  H   UNL     1      -4.212  -3.296   8.865  0.00  0.00    +0.148 HD
ENDROOT
BRANCH   8  11
ATOM     11  C   UNL     1      -2.654  -2.598  10.812  0.00  0.00    -0.027 A 
ATOM     12  C   UNL     1      -2.825  -3.954  11.022  0.00  0.00    +0.005 A 
ATOM     13  C   UNL     1      -2.937  -4.445  12.309  0.00  0.00    +0.000 A 
ATOM     14  C   UNL     1      -2.877  -3.581  13.386  0.00  0.00    +0.000 A 
ATOM     15  C   UNL     1      -2.705  -2.225  13.176  0.00  0.00    +0.000 A 
ATOM     16  C   UNL     1      -2.590  -1.734  11.889  0.00  0.00    +0.005 A 
ENDBRANCH   8  11
BRANCH   1  18
ATOM     17  N   UNL     1      -3.031  -2.522   2.495  0.00  0.00    -0.274 N 
ATOM     18  C   UNL     1      -3.806  -2.865   3.543  0.00  0.00    +0.269 C 
ATOM     19  O   UNL     1      -4.910  -3.338   3.354  0.00  0.00    -0.268 OA
ATOM     20  H   UNL     1      -2.150  -2.145   2.646  0.00  0.00    +0.156 HD
BRANCH  17  25
ATOM     21  C   UNL     1      -2.842  -2.416   0.016  0.00  0.00    +0.091 A 
ATOM     22  C   UNL     1      -3.552  -2.715  -1.227  0.00  0.00    -0.021 A 
ATOM     23  C   UNL     1      -4.776  -3.241  -1.047  0.00  0.00    -0.004 A 
ATOM     24  S   UNL     1      -4.970  -3.335   0.715  0.00  0.00    -0.077 S 
ATOM     25  C   UNL     1      -3.493  -2.708   1.202  0.00  0.00    +0.087 A 
ATOM     26  C   UNL     1      -5.463  -3.526  -2.356  0.00  0.00    +0.043 C 
ATOM     27  C   UNL     1      -4.669  -2.707  -3.398  0.00  0.00    +0.010 C 
ATOM     28  C   UNL     1      -3.285  -2.598  -2.726  0.00  0.00    +0.037 C 
BRANCH  21  29
ATOM     29  C   UNL     1      -1.497  -1.838   0.006  0.00  0.00    +0.342 C 
ATOM     30  O   UNL     1      -0.522  -2.566  -0.007  0.00  0.00    -0.245 OA
BRANCH  29  31
ATOM     31  O   UNL     1      -1.339  -0.499   0.012  0.00  0.00    -0.461 OA
BRANCH  31  33
ATOM     32  C   UNL     1      -0.019   1.526   0.010  0.00  0.00    +0.048 C 
ATOM     33  C   UNL     1       0.002  -0.004   0.002  0.00  0.00    +0.229 C 
ENDBRANCH  31  33
ENDBRANCH  29  31
ENDBRANCH  21  29
ENDBRANCH  17  25
ENDBRANCH   1  18
BRANCH   6  34
ATOM     34  C   UNL     1       0.376  -2.120   6.883  0.00  0.00    +0.412 C 
ATOM     35  F   UNL     1       0.505  -1.573   5.602  0.00  0.00    -0.168 F 
ATOM     36  F   UNL     1       1.430  -1.675   7.688  0.00  0.00    -0.168 F 
ATOM     37  F   UNL     1       0.411  -3.516   6.800  0.00  0.00    -0.168 F 
ENDBRANCH   6  34
TORSDOF 7
