REMARK  Name = ZINC63857502
REMARK  5 active torsions:
REMARK  status: ('A' for Active; 'I' for Inactive)
REMARK    1  A    between atoms: C_2  and  C_25
REMARK    2  A    between atoms: N_5  and  C_6
REMARK    3  A    between atoms: C_6  and  C_7
REMARK    4  A    between atoms: N_12  and  C_14
REMARK    5  A    between atoms: C_25  and  O_26
REMARK                            x       y       z     vdW  Elec       q    Type
REMARK                         _______ _______ _______ _____ _____    ______ ____
ROOT
ATOM      1  C   UNL     1      -1.057  -1.942  -1.082  0.00  0.00    +0.025 C 
ATOM      2  C   UNL     1       0.160  -2.871  -1.062  0.00  0.00    +0.008 C 
ATOM      3  C   UNL     1       0.139  -3.754  -2.312  0.00  0.00    +0.016 C 
ATOM      4  C   UNL     1      -1.172  -4.542  -2.351  0.00  0.00    +0.087 C 
ATOM      5  N   UNL     1      -2.306  -3.609  -2.370  0.00  0.00    -0.277 NA
ATOM      6  C   UNL     1      -2.334  -2.782  -1.157  0.00  0.00    +0.092 C 
ENDROOT
BRANCH   5   7
ATOM      7  C   UNL     1      -3.575  -4.326  -2.547  0.00  0.00    +0.214 C 
ATOM      8  C   UNL     1      -4.673  -3.308  -2.713  0.00  0.00    +0.055 C 
ATOM      9  C   UNL     1      -4.965  -2.300  -3.538  0.00  0.00    +0.145 C 
ATOM     10  N   UNL     1      -6.134  -1.752  -3.145  0.00  0.00    -0.155 NA
ATOM     11  N   UNL     1      -6.624  -2.344  -2.111  0.00  0.00    -0.131 NA
ATOM     12  C   UNL     1      -5.789  -3.356  -1.734  0.00  0.00    +0.164 C 
ATOM     13  N   UNL     1      -5.768  -4.259  -0.795  0.00  0.00    -0.311 N 
ATOM     14  C   UNL     1      -4.782  -5.169  -0.651  0.00  0.00    +0.189 C 
ATOM     15  N   UNL     1      -3.739  -5.262  -1.416  0.00  0.00    -0.230 NA
ATOM     16  N   UNL     1      -4.891  -6.069   0.392  0.00  0.00    -0.329 N 
ATOM     17  H   UNL     1      -5.656  -6.030   0.987  0.00  0.00    +0.145 HD
ATOM     18  H   UNL     1      -4.203  -6.739   0.529  0.00  0.00    +0.145 HD
ATOM     19  H   UNL     1      -6.503  -4.277  -0.163  0.00  0.00    +0.170 HD
ENDBRANCH   5   7
BRANCH   1  20
ATOM     20  C   UNL     1      -1.076  -1.097   0.194  0.00  0.00    +0.150 C 
BRANCH  20  25
ATOM     21  C   UNL     1       0.056   1.139   0.344  0.00  0.00    +0.136 A 
ATOM     22  C   UNL     1       1.344   1.553   0.303  0.00  0.00    +0.108 A 
ATOM     23  N   UNL     1       2.091   0.455   0.146  0.00  0.00    -0.132 NA
ATOM     24  N   UNL     1       1.317  -0.572   0.093  0.00  0.00    -0.065 NA
ATOM     25  N   UNL     1       0.088  -0.207   0.208  0.00  0.00    -0.251 N 
BRANCH  22  26
ATOM     26  C   UNL     1       1.839   2.972   0.413  0.00  0.00    +0.214 C 
BRANCH  26  27
ATOM     27  O   UNL     1       0.725   3.853   0.572  0.00  0.00    -0.389 OA
ATOM     28  H   UNL     1       0.970   4.786   0.649  0.00  0.00    +0.210 HD
ENDBRANCH  26  27
ENDBRANCH  22  26
ENDBRANCH  20  25
ENDBRANCH   1  20
TORSDOF 5
