REMARK  Name = ZINC36273740
REMARK  9 active torsions:
REMARK  status: ('A' for Active; 'I' for Inactive)
REMARK    1  A    between atoms: C_1  and  C_2
REMARK    2  A    between atoms: C_2  and  C_3
REMARK    3  A    between atoms: C_3  and  C_4
REMARK    4  A    between atoms: C_4  and  N_5
REMARK    5  A    between atoms: C_6  and  C_8
REMARK    6  A    between atoms: C_8  and  O_9
REMARK    7  A    between atoms: O_9  and  C_10
REMARK    8  A    between atoms: C_17  and  C_19
REMARK    9  A    between atoms: C_22  and  N_25
REMARK                            x       y       z     vdW  Elec       q    Type
REMARK                         _______ _______ _______ _____ _____    ______ ____
ROOT
ATOM      1  C   UNL     1       2.987  -6.393   4.877  0.00  0.00    +0.162 A 
ATOM      2  C   UNL     1       3.556  -5.655   5.874  0.00  0.00    +0.051 A 
ATOM      3  C   UNL     1       4.197  -6.305   6.941  0.00  0.00    +0.022 A 
ATOM      4  C   UNL     1       4.252  -7.653   6.984  0.00  0.00    +0.093 A 
ATOM      5  N   UNL     1       3.686  -8.407   5.994  0.00  0.00    -0.305 N 
ATOM      6  C   UNL     1       3.048  -7.804   4.941  0.00  0.00    +0.159 A 
ATOM      7  N   UNL     1       2.589  -8.751   4.136  0.00  0.00    -0.337 N 
ATOM      8  C   UNL     1       2.908  -9.952   4.642  0.00  0.00    +0.065 A 
ATOM      9  C   UNL     1       3.602  -9.757   5.799  0.00  0.00    +0.119 A 
ATOM     10  H   UNL     1       2.099  -8.600   3.312  0.00  0.00    +0.167 HD
ENDROOT
BRANCH   8  11
ATOM     11  C   UNL     1       2.573 -11.266   4.040  0.00  0.00    -0.000 A 
ATOM     12  C   UNL     1       1.871 -11.324   2.838  0.00  0.00    +0.012 A 
ATOM     13  C   UNL     1       1.562 -12.546   2.279  0.00  0.00    +0.023 A 
ATOM     14  C   UNL     1       1.950 -13.720   2.915  0.00  0.00    +0.025 A 
ATOM     15  C   UNL     1       2.651 -13.664   4.114  0.00  0.00    +0.023 A 
ATOM     16  C   UNL     1       2.967 -12.444   4.673  0.00  0.00    +0.012 A 
BRANCH  14  17
ATOM     17  N   UNL     1       1.635 -14.957   2.348  0.00  0.00    -0.358 N 
ATOM     18  H   UNL     1       1.146 -14.996   1.511  0.00  0.00    +0.142 HD
ATOM     19  H   UNL     1       1.906 -15.776   2.791  0.00  0.00    +0.142 HD
ENDBRANCH  14  17
ENDBRANCH   8  11
BRANCH   1  20
ATOM     20  O   UNL     1       2.363  -5.779   3.838  0.00  0.00    -0.479 OA
BRANCH  20  21
ATOM     21  C   UNL     1       2.343  -4.350   3.846  0.00  0.00    +0.324 C 
BRANCH  21  23
ATOM     22  N   UNL     1       1.471  -2.526   2.420  0.00  0.00    -0.313 N 
ATOM     23  C   UNL     1       1.615  -3.850   2.625  0.00  0.00    +0.251 C 
ATOM     24  O   UNL     1       1.157  -4.641   1.827  0.00  0.00    -0.272 OA
ATOM     25  H   UNL     1       1.837  -1.894   3.058  0.00  0.00    +0.149 HD
BRANCH  22  26
ATOM     26  C   UNL     1       0.763  -2.041   1.233  0.00  0.00    +0.104 C 
BRANCH  26  27
ATOM     27  C   UNL     1       0.742  -0.511   1.242  0.00  0.00    +0.018 C 
BRANCH  27  29
ATOM     28  C   UNL     1      -0.019   1.526   0.010  0.00  0.00    +0.004 C 
ATOM     29  C   UNL     1       0.002  -0.004   0.002  0.00  0.00    -0.002 C 
ENDBRANCH  27  29
ENDBRANCH  26  27
ENDBRANCH  22  26
ENDBRANCH  21  23
ENDBRANCH  20  21
ENDBRANCH   1  20
TORSDOF 8
