REMARK  Name = ZINC55211606
REMARK  10 active torsions:
REMARK  status: ('A' for Active; 'I' for Inactive)
REMARK    1  A    between atoms: C_1  and  C_2
REMARK    2  A    between atoms: C_5  and  S_7
REMARK    3  A    between atoms: S_7  and  C_8
REMARK    4  A    between atoms: C_8  and  C_9
REMARK    5  A    between atoms: C_9  and  C_10
REMARK    6  A    between atoms: C_10  and  N_11
REMARK    7  A    between atoms: C_12  and  C_14
REMARK    8  A    between atoms: C_14  and  C_16
REMARK    9  A    between atoms: C_14  and  N_22
REMARK   10  A    between atoms: C_16  and  C_17
REMARK                            x       y       z     vdW  Elec       q    Type
REMARK                         _______ _______ _______ _____ _____    ______ ____
ROOT
ATOM      1  N   UNL     1       0.117  -8.943  -1.534  0.00  0.00    -0.317 N 
ATOM      2  C   UNL     1       0.125  -9.813  -2.562  0.00  0.00    +0.199 C 
ATOM      3  O   UNL     1       0.116  -9.404  -3.704  0.00  0.00    -0.278 OA
ATOM      4  H   UNL     1       0.124  -9.271  -0.621  0.00  0.00    +0.149 HD
ENDROOT
BRANCH   1   5
ATOM      5  C   UNL     1       0.097  -7.501  -1.794  0.00  0.00    +0.105 C 
BRANCH   5   6
ATOM      6  C   UNL     1       0.091  -6.743  -0.466  0.00  0.00    +0.030 C 
BRANCH   6   7
ATOM      7  C   UNL     1       0.070  -5.237  -0.738  0.00  0.00    +0.078 C 
BRANCH   7   8
ATOM      8  S   UNL     1       0.064  -4.338   0.838  0.00  0.00    -0.097 S 
BRANCH   8  13
ATOM      9  C   UNL     1      -0.018   1.503   0.010  0.00  0.00    +0.075 C 
ATOM     10  C   UNL     1       0.002  -0.004   0.002  0.00  0.00    +0.100 A 
ATOM     11  N   UNL     1       0.010  -0.845  -1.012  0.00  0.00    -0.146 NA
ATOM     12  N   UNL     1       0.027  -2.095  -0.849  0.00  0.00    -0.135 NA
ATOM     13  C   UNL     1       0.039  -2.642   0.360  0.00  0.00    +0.158 A 
ATOM     14  S   UNL     1       0.031  -1.162   1.368  0.00  0.00    -0.044 S 
ENDBRANCH   8  13
ENDBRANCH   7   8
ENDBRANCH   6   7
ENDBRANCH   5   6
ENDBRANCH   1   5
BRANCH   2  15
ATOM     15  C   UNL     1       0.146 -11.296  -2.294  0.00  0.00    +0.018 C 
BRANCH  15  16
ATOM     16  N   UNL     1      -0.323 -12.016  -3.486  0.00  0.00    +0.386 N 
ATOM     17  H   UNL     1      -1.264 -11.727  -3.705  0.00  0.00    -0.089 HD
ATOM     18  H   UNL     1       0.283 -11.807  -4.265  0.00  0.00    -0.089 HD
ATOM     19  H   UNL     1      -0.309 -13.009  -3.307  0.00  0.00    -0.089 HD
ENDBRANCH  15  16
BRANCH  15  20
ATOM     20  C   UNL     1       1.573 -11.735  -1.962  0.00  0.00    +0.049 C 
BRANCH  20  21
ATOM     21  C   UNL     1       1.574 -13.191  -1.574  0.00  0.00    +0.047 A 
ATOM     22  C   UNL     1       2.373 -14.092  -2.202  0.00  0.00    +0.070 A 
ATOM     23  S   UNL     1       1.935 -15.585  -1.327  0.00  0.00    -0.084 S 
ATOM     24  C   UNL     1       0.805 -14.914  -0.276  0.00  0.00    +0.156 A 
ATOM     25  N   UNL     1       0.804 -13.647  -0.607  0.00  0.00    -0.252 NA
ENDBRANCH  20  21
ENDBRANCH  15  20
ENDBRANCH   2  15
TORSDOF 9
