REMARK  Name = ZINC00989075
REMARK  13 active torsions:
REMARK  status: ('A' for Active; 'I' for Inactive)
REMARK    1  A    between atoms: C_1  and  C_2
REMARK    2  A    between atoms: C_2  and  O_3
REMARK    3  A    between atoms: O_3  and  C_4
REMARK    4  A    between atoms: C_7  and  C_10
REMARK    5  A    between atoms: C_16  and  C_35
REMARK    6  A    between atoms: C_17  and  C_26
REMARK    7  A    between atoms: C_19  and  C_22
REMARK    8  A    between atoms: C_20  and  N_21
REMARK    9  A    between atoms: C_22  and  O_24
REMARK   10  A    between atoms: O_24  and  C_25
REMARK   11  A    between atoms: C_29  and  O_32
REMARK   12  A    between atoms: O_32  and  C_33
REMARK   13  A    between atoms: C_33  and  C_34
REMARK                            x       y       z     vdW  Elec       q    Type
REMARK                         _______ _______ _______ _____ _____    ______ ____
ROOT
ATOM      1  C   UNL     1      -1.023  -0.275   0.527  0.00  0.00    +0.028 C 
ATOM      2  C   UNL     1       0.128   0.420   0.717  0.00  0.00    +0.080 A 
ATOM      3  C   UNL     1       1.517  -0.049   0.671  0.00  0.00    +0.271 A 
ATOM      4  O   UNL     1       1.773  -1.215   0.436  0.00  0.00    -0.266 OA
ATOM      5  N   UNL     1       2.504   0.842   0.895  0.00  0.00    -0.257 N 
ATOM      6  C   UNL     1       2.140   2.149   1.155  0.00  0.00    +0.104 A 
ATOM      7  C   UNL     1       3.018   3.155   1.399  0.00  0.00    +0.072 C 
ATOM      8  C   UNL     1       4.500   2.835   1.387  0.00  0.00    +0.102 C 
ATOM      9  C   UNL     1       4.858   1.391   1.099  0.00  0.00    +0.087 C 
ATOM     10  C   UNL     1       3.860   0.503   0.876  0.00  0.00    +0.115 C 
ATOM     11  S   UNL     1       0.359   2.151   1.088  0.00  0.00    -0.065 S 
ENDROOT
BRANCH   1  15
ATOM     12  C   UNL     1      -4.764   1.583   1.257  0.00  0.00    +0.121 A 
ATOM     13  C   UNL     1      -4.703   0.431   0.481  0.00  0.00    +0.046 A 
ATOM     14  C   UNL     1      -3.491  -0.176   0.241  0.00  0.00    +0.011 A 
ATOM     15  C   UNL     1      -2.319   0.369   0.780  0.00  0.00    -0.024 A 
ATOM     16  C   UNL     1      -2.387   1.527   1.565  0.00  0.00    +0.011 A 
ATOM     17  C   UNL     1      -3.604   2.128   1.794  0.00  0.00    +0.046 A 
BRANCH  12  18
ATOM     18  O   UNL     1      -5.963   2.178   1.490  0.00  0.00    -0.492 OA
BRANCH  18  20
ATOM     19  C   UNL     1      -7.385   3.882   2.446  0.00  0.00    +0.048 C 
ATOM     20  C   UNL     1      -5.955   3.358   2.295  0.00  0.00    +0.225 C 
ENDBRANCH  18  20
ENDBRANCH  12  18
ENDBRANCH   1  15
BRANCH   8  21
ATOM     21  C   UNL     1       5.161   3.698   0.345  0.00  0.00    -0.034 A 
ATOM     22  C   UNL     1       4.774   3.601  -0.979  0.00  0.00    +0.008 A 
ATOM     23  C   UNL     1       5.374   4.396  -1.936  0.00  0.00    +0.046 A 
ATOM     24  C   UNL     1       6.375   5.284  -1.570  0.00  0.00    +0.121 A 
ATOM     25  C   UNL     1       6.766   5.376  -0.242  0.00  0.00    +0.046 A 
ATOM     26  C   UNL     1       6.158   4.583   0.712  0.00  0.00    +0.008 A 
BRANCH  24  27
ATOM     27  O   UNL     1       6.972   6.062  -2.510  0.00  0.00    -0.492 OA
BRANCH  27  28
ATOM     28  C   UNL     1       6.519   5.914  -3.858  0.00  0.00    +0.225 C 
ATOM     29  C   UNL     1       7.302   6.865  -4.766  0.00  0.00    +0.048 C 
ENDBRANCH  27  28
ENDBRANCH  24  27
ENDBRANCH   8  21
BRANCH  10  30
ATOM     30  N   UNL     1       4.198  -0.799   0.616  0.00  0.00    -0.344 N 
ATOM     31  H   UNL     1       3.724  -1.296  -0.069  0.00  0.00    +0.144 HD
ATOM     32  H   UNL     1       4.911  -1.224   1.117  0.00  0.00    +0.144 HD
ENDBRANCH  10  30
BRANCH   9  33
ATOM     33  C   UNL     1       6.199   0.981   1.064  0.00  0.00    +0.339 C 
ATOM     34  O   UNL     1       6.479  -0.162   0.750  0.00  0.00    -0.245 OA
BRANCH  33  35
ATOM     35  O   UNL     1       7.181   1.854   1.379  0.00  0.00    -0.465 OA
ATOM     36  C   UNL     1       8.524   1.368   1.323  0.00  0.00    +0.280 C 
ENDBRANCH  33  35
ENDBRANCH   9  33
BRANCH   7  37
ATOM     37  C   UNL     1       2.557   4.485   1.659  0.00  0.00    +0.098 C 
ATOM     38  N   UNL     1       2.191   5.540   1.866  0.00  0.00    -0.191 NA
ENDBRANCH   7  37
TORSDOF 10
