REMARK  Name = ZINC27694803
REMARK  18 active torsions:
REMARK  status: ('A' for Active; 'I' for Inactive)
REMARK    1  A    between atoms: C_1  and  C_2
REMARK    2  A    between atoms: C_2  and  C_4
REMARK    3  A    between atoms: C_2  and  C_14
REMARK    4  A    between atoms: C_7  and  C_10
REMARK    5  A    between atoms: C_10  and  C_11
REMARK    6  A    between atoms: C_11  and  C_12
REMARK    7  A    between atoms: C_11  and  C_13
REMARK    8  A    between atoms: N_22  and  C_23
REMARK    9  A    between atoms: C_23  and  C_24
REMARK   10  A    between atoms: C_24  and  C_26
REMARK   11  A    between atoms: C_24  and  O_34
REMARK   12  A    between atoms: C_26  and  N_27
REMARK   13  A    between atoms: N_27  and  C_28
REMARK   14  A    between atoms: N_27  and  C_31
REMARK   15  A    between atoms: C_28  and  C_29
REMARK   16  A    between atoms: C_28  and  C_30
REMARK   17  A    between atoms: C_31  and  C_32
REMARK   18  A    between atoms: C_31  and  C_33
REMARK                            x       y       z     vdW  Elec       q    Type
REMARK                         _______ _______ _______ _____ _____    ______ ____
ROOT
ATOM      1  C   UNL     1       0.890  -1.185  -1.802  0.00  0.00    +0.118 A 
ATOM      2  N   UNL     1       2.155  -1.032  -2.066  0.00  0.00    -0.232 NA
ATOM      3  C   UNL     1       2.884  -1.229  -0.938  0.00  0.00    +0.089 A 
ATOM      4  C   UNL     1       4.252  -1.191  -0.656  0.00  0.00    +0.030 A 
ATOM      5  C   UNL     1       4.692  -1.441   0.613  0.00  0.00    +0.002 A 
ATOM      6  C   UNL     1       3.794  -1.736   1.629  0.00  0.00    +0.002 A 
ATOM      7  C   UNL     1       2.440  -1.779   1.373  0.00  0.00    +0.028 A 
ATOM      8  C   UNL     1       1.974  -1.527   0.090  0.00  0.00    +0.069 A 
ATOM      9  N   UNL     1       0.720  -1.486  -0.486  0.00  0.00    -0.325 N 
ENDROOT
BRANCH   1  11
ATOM     10  C   UNL     1      -0.206   0.367  -3.395  0.00  0.00    +0.020 C 
ATOM     11  C   UNL     1      -0.225  -1.045  -2.806  0.00  0.00    +0.082 C 
BRANCH  11  12
ATOM     12  C   UNL     1      -0.036  -2.052  -3.911  0.00  0.00    -0.037 A 
ATOM     13  C   UNL     1       1.115  -2.030  -4.677  0.00  0.00    +0.004 A 
ATOM     14  C   UNL     1       1.288  -2.954  -5.691  0.00  0.00    +0.004 A 
ATOM     15  C   UNL     1       0.311  -3.900  -5.938  0.00  0.00    -0.047 A 
ATOM     16  C   UNL     1      -0.839  -3.923  -5.171  0.00  0.00    +0.004 A 
ATOM     17  C   UNL     1      -1.010  -3.002  -4.155  0.00  0.00    +0.004 A 
BRANCH  15  18
ATOM     18  C   UNL     1       0.499  -4.907  -7.043  0.00  0.00    +0.038 C 
BRANCH  18  19
ATOM     19  C   UNL     1       1.201  -6.148  -6.489  0.00  0.00    -0.013 C 
ATOM     20  C   UNL     1       0.291  -6.834  -5.467  0.00  0.00    +0.007 C 
ATOM     21  C   UNL     1       1.504  -7.117  -7.633  0.00  0.00    +0.007 C 
ENDBRANCH  18  19
ENDBRANCH  15  18
ENDBRANCH  11  12
ENDBRANCH   1  11
BRANCH   9  22
ATOM     22  C   UNL     1      -0.556  -1.724   0.192  0.00  0.00    +0.153 C 
BRANCH  22  23
ATOM     23  C   UNL     1      -0.901  -3.213   0.120  0.00  0.00    +0.118 C 
BRANCH  23  24
ATOM     24  O   UNL     1       0.066  -3.962   0.859  0.00  0.00    -0.392 OA
ATOM     25  H   UNL     1       0.065  -3.778   1.809  0.00  0.00    +0.210 HD
ENDBRANCH  23  24
BRANCH  23  26
ATOM     26  C   UNL     1      -2.290  -3.444   0.718  0.00  0.00    -0.045 C 
BRANCH  26  27
ATOM     27  N   UNL     1      -2.709  -4.829   0.463  0.00  0.00    +0.384 N 
ATOM     28  H   UNL     1      -2.563  -5.051  -0.510  0.00  0.00    -0.081 HD
BRANCH  27  29
ATOM     29  C   UNL     1      -1.917  -5.742   1.298  0.00  0.00    -0.074 C 
ATOM     30  C   UNL     1      -2.550  -5.840   2.688  0.00  0.00    -0.014 C 
ATOM     31  C   UNL     1      -1.888  -7.128   0.651  0.00  0.00    -0.014 C 
ENDBRANCH  27  29
BRANCH  27  32
ATOM     32  C   UNL     1      -4.134  -4.978   0.790  0.00  0.00    -0.074 C 
ATOM     33  C   UNL     1      -4.946  -3.936   0.017  0.00  0.00    -0.014 C 
ATOM     34  C   UNL     1      -4.602  -6.381   0.401  0.00  0.00    -0.014 C 
ENDBRANCH  27  32
ENDBRANCH  26  27
ENDBRANCH  23  26
ENDBRANCH  22  23
ENDBRANCH   9  22
TORSDOF 11
