REMARK  Name = ZINC01214196
REMARK  6 active torsions:
REMARK  status: ('A' for Active; 'I' for Inactive)
REMARK    1  A    between atoms: C_4  and  C_7
REMARK    2  A    between atoms: C_7  and  C_8
REMARK    3  A    between atoms: C_7  and  N_14
REMARK    4  A    between atoms: C_20  and  C_22
REMARK    5  A    between atoms: C_27  and  C_42
REMARK    6  A    between atoms: C_30  and  C_33
REMARK                            x       y       z     vdW  Elec       q    Type
REMARK                         _______ _______ _______ _____ _____    ______ ____
ROOT
ATOM      1  C   UNL     1       4.287  -6.869  -0.499  0.00  0.00    +0.149 A 
ATOM      2  C   UNL     1       4.586  -8.186  -0.083  0.00  0.00    +0.078 A 
ATOM      3  C   UNL     1       3.417  -8.815   0.148  0.00  0.00    +0.119 A 
ATOM      4  N   UNL     1       2.402  -7.937  -0.111  0.00  0.00    -0.238 N 
ATOM      5  N   UNL     1       2.973  -6.728  -0.506  0.00  0.00    -0.164 NA
ATOM      6  C   UNL     1       0.982  -8.272   0.027  0.00  0.00    +0.215 C 
ATOM      7  C   UNL     1       0.829  -9.797   0.014  0.00  0.00    +0.063 C 
ATOM      8  C   UNL     1       1.806 -10.428   1.012  0.00  0.00    +0.104 C 
ATOM      9  N   UNL     1       3.183 -10.124   0.577  0.00  0.00    -0.322 N 
ATOM     10  H   UNL     1       3.885 -10.794   0.589  0.00  0.00    +0.148 HD
ENDROOT
BRANCH   8  11
ATOM     11  C   UNL     1       1.599 -11.921   1.048  0.00  0.00    -0.024 A 
ATOM     12  C   UNL     1       2.155 -12.717   0.064  0.00  0.00    +0.009 A 
ATOM     13  C   UNL     1       1.969 -14.087   0.092  0.00  0.00    +0.050 A 
ATOM     14  C   UNL     1       1.224 -14.664   1.107  0.00  0.00    +0.166 A 
ATOM     15  C   UNL     1       0.664 -13.862   2.099  0.00  0.00    +0.167 A 
ATOM     16  C   UNL     1       0.860 -12.491   2.067  0.00  0.00    +0.055 A 
ATOM     17  O   UNL     1      -0.014 -14.660   2.974  0.00  0.00    -0.453 OA
ATOM     18  C   UNL     1      -0.207 -15.909   2.285  0.00  0.00    +0.466 C 
ATOM     19  O   UNL     1       0.896 -15.965   1.362  0.00  0.00    -0.453 OA
ENDBRANCH   8  11
BRANCH   1  26
ATOM     20  N   UNL     1       4.088  -1.934  -0.667  0.00  0.00    -0.289 NA
ATOM     21  C   UNL     1       3.188  -3.021  -0.262  0.00  0.00    +0.104 C 
ATOM     22  C   UNL     1       3.428  -4.240  -1.159  0.00  0.00    +0.123 C 
ATOM     23  N   UNL     1       4.860  -4.572  -1.122  0.00  0.00    -0.294 N 
ATOM     24  C   UNL     1       5.830  -3.498  -1.384  0.00  0.00    +0.123 C 
ATOM     25  C   UNL     1       5.496  -2.309  -0.477  0.00  0.00    +0.104 C 
ATOM     26  C   UNL     1       5.272  -5.828  -0.857  0.00  0.00    +0.267 C 
ATOM     27  O   UNL     1       6.455  -6.104  -0.912  0.00  0.00    -0.268 OA
BRANCH  20  28
ATOM     28  C   UNL     1       3.772  -0.693   0.053  0.00  0.00    +0.117 C 
BRANCH  28  32
ATOM     29  C   UNL     1       6.291   2.454  -1.363  0.00  0.00    +0.000 A 
ATOM     30  C   UNL     1       5.974   2.373  -0.019  0.00  0.00    +0.000 A 
ATOM     31  C   UNL     1       5.159   1.355   0.439  0.00  0.00    +0.005 A 
ATOM     32  C   UNL     1       4.660   0.418  -0.447  0.00  0.00    -0.026 A 
ATOM     33  C   UNL     1       4.976   0.499  -1.790  0.00  0.00    +0.005 A 
ATOM     34  C   UNL     1       5.793   1.516  -2.248  0.00  0.00    +0.000 A 
ENDBRANCH  28  32
BRANCH  28  35
ATOM     35  C   UNL     1       2.330  -0.328  -0.184  0.00  0.00    -0.026 A 
ATOM     36  C   UNL     1       1.776  -0.477  -1.442  0.00  0.00    +0.005 A 
ATOM     37  C   UNL     1       0.453  -0.142  -1.659  0.00  0.00    +0.000 A 
ATOM     38  C   UNL     1      -0.317   0.342  -0.619  0.00  0.00    +0.000 A 
ATOM     39  C   UNL     1       0.236   0.491   0.640  0.00  0.00    +0.000 A 
ATOM     40  C   UNL     1       1.558   0.152   0.858  0.00  0.00    +0.005 A 
ENDBRANCH  28  35
ENDBRANCH  20  28
ENDBRANCH   1  26
BRANCH   6  41
ATOM     41  C   UNL     1       0.198  -7.666  -1.139  0.00  0.00    +0.412 C 
ATOM     42  F   UNL     1       0.682  -8.181  -2.345  0.00  0.00    -0.168 F 
ATOM     43  F   UNL     1      -1.157  -7.987  -1.005  0.00  0.00    -0.168 F 
ATOM     44  F   UNL     1       0.351  -6.275  -1.131  0.00  0.00    -0.168 F 
ENDBRANCH   6  41
TORSDOF 6
