REMARK  Name = ZINC63836277
REMARK  5 active torsions:
REMARK  status: ('A' for Active; 'I' for Inactive)
REMARK    1  A    between atoms: C_7  and  C_10
REMARK    2  A    between atoms: C_10  and  C_12
REMARK    3  A    between atoms: C_10  and  C_25
REMARK    4  A    between atoms: C_12  and  N_13
REMARK    5  A    between atoms: N_16  and  C_17
REMARK                            x       y       z     vdW  Elec       q    Type
REMARK                         _______ _______ _______ _____ _____    ______ ____
ROOT
ATOM      1  C   UNL     1       0.716  -3.208  -0.006  0.00  0.00    +0.071 C 
ENDROOT
BRANCH   1   8
ATOM      2  C   UNL     1       0.029   1.329   0.058  0.00  0.00    +0.001 A 
ATOM      3  C   UNL     1       1.215   2.076   0.051  0.00  0.00    +0.002 A 
ATOM      4  C   UNL     1       2.438   1.505   0.029  0.00  0.00    +0.026 A 
ATOM      5  C   UNL     1       2.569   0.089   0.011  0.00  0.00    +0.043 A 
ATOM      6  N   UNL     1       3.623  -0.690  -0.013  0.00  0.00    -0.380 N 
ATOM      7  C   UNL     1       3.173  -2.086  -0.024  0.00  0.00    +0.145 C 
ATOM      8  C   UNL     1       1.662  -2.035  -0.003  0.00  0.00    -0.032 C 
ATOM      9  C   UNL     1       1.331  -0.724   0.017  0.00  0.00    -0.000 A 
ATOM     10  C   UNL     1       0.042  -0.024   0.042  0.00  0.00    +0.010 A 
ATOM     11  H   UNL     1       4.546  -0.393  -0.021  0.00  0.00    +0.160 HD
ENDBRANCH   1   8
BRANCH   1  12
ATOM     12  C   UNL     1       0.969  -4.061   1.211  0.00  0.00    -0.002 A 
ATOM     13  C   UNL     1       0.120  -4.387   2.216  0.00  0.00    +0.012 A 
ATOM     14  C   UNL     1       0.575  -5.193   3.242  0.00  0.00    +0.008 A 
ATOM     15  C   UNL     1       1.856  -5.633   3.213  0.00  0.00    +0.045 A 
ATOM     16  S   UNL     1       2.462  -4.909   1.698  0.00  0.00    -0.101 S 
ENDBRANCH   1  12
BRANCH   1  17
ATOM     17  C   UNL     1       0.941  -4.042  -1.269  0.00  0.00    +0.118 C 
BRANCH  17  18
ATOM     18  N   UNL     1      -0.058  -5.113  -1.331  0.00  0.00    -0.298 N 
ATOM     19  C   UNL     1      -0.053  -5.979  -2.364  0.00  0.00    +0.304 C 
ATOM     20  O   UNL     1       0.779  -5.871  -3.244  0.00  0.00    -0.253 OA
ATOM     21  N   UNL     1      -0.972  -6.963  -2.421  0.00  0.00    -0.267 N 
ATOM     22  H   UNL     1      -0.721  -5.199  -0.629  0.00  0.00    +0.150 HD
ATOM     23  H   UNL     1      -1.594  -7.089  -1.688  0.00  0.00    +0.156 HD
BRANCH  21  24
ATOM     24  C   UNL     1      -1.027  -7.806  -3.541  0.00  0.00    +0.070 A 
ATOM     25  C   UNL     1       0.141  -8.160  -4.202  0.00  0.00    +0.029 A 
ATOM     26  C   UNL     1       0.084  -8.991  -5.304  0.00  0.00    +0.040 A 
ATOM     27  C   UNL     1      -1.135  -9.470  -5.751  0.00  0.00    +0.126 A 
ATOM     28  C   UNL     1      -2.302  -9.119  -5.094  0.00  0.00    +0.078 A 
ATOM     29  C   UNL     1      -2.251  -8.293  -3.986  0.00  0.00    +0.147 A 
ATOM     30  F   UNL     1      -3.388  -7.954  -3.341  0.00  0.00    -0.203 F 
ATOM     31  F   UNL     1      -1.187 -10.282  -6.830  0.00  0.00    -0.205 F 
ENDBRANCH  21  24
ENDBRANCH  17  18
ENDBRANCH   1  17
TORSDOF 5
