REMARK  Name = ZINC59107450
REMARK  11 active torsions:
REMARK  status: ('A' for Active; 'I' for Inactive)
REMARK    1  A    between atoms: C_1  and  C_2
REMARK    2  A    between atoms: C_7  and  C_8
REMARK    3  A    between atoms: C_8  and  N_9
REMARK    4  A    between atoms: N_9  and  C_10
REMARK    5  A    between atoms: N_9  and  C_20
REMARK    6  A    between atoms: C_12  and  C_18
REMARK    7  A    between atoms: C_12  and  C_19
REMARK    8  A    between atoms: C_14  and  C_16
REMARK    9  A    between atoms: C_14  and  C_17
REMARK   10  A    between atoms: C_20  and  N_22
REMARK   11  A    between atoms: N_22  and  C_23
REMARK                            x       y       z     vdW  Elec       q    Type
REMARK                         _______ _______ _______ _____ _____    ______ ____
ROOT
ATOM      1  N   UNL     1      -1.647   0.034   2.777  0.00  0.00    -0.305 N 
ENDROOT
BRANCH   1   2
ATOM      2  C   UNL     1      -2.430  -0.986   3.486  0.00  0.00    +0.073 C 
ATOM      3  C   UNL     1      -3.749  -1.211   2.744  0.00  0.00    +0.009 C 
ATOM      4  C   UNL     1      -4.582  -2.262   3.477  0.00  0.00    -0.072 C 
ATOM      5  N   UNL     1      -4.781  -1.924   4.879  0.00  0.00    +0.386 N 
ATOM      6  C   UNL     1      -3.620  -1.492   5.641  0.00  0.00    -0.072 C 
ATOM      7  C   UNL     1      -2.751  -0.486   4.894  0.00  0.00    +0.009 C 
ATOM      8  C   UNL     1      -2.769  -2.680   6.097  0.00  0.00    -0.010 C 
ATOM      9  C   UNL     1      -4.139  -0.791   6.919  0.00  0.00    -0.010 C 
ATOM     10  C   UNL     1      -3.960  -3.647   3.301  0.00  0.00    -0.010 C 
ATOM     11  C   UNL     1      -5.974  -2.295   2.803  0.00  0.00    -0.010 C 
ATOM     12  H   UNL     1      -5.493  -1.191   4.934  0.00  0.00    -0.084 HD
ATOM     13  H   UNL     1      -5.193  -2.734   5.349  0.00  0.00    -0.084 HD
ENDBRANCH   1   2
BRANCH   1  14
ATOM     14  C   UNL     1      -2.176   1.252   2.548  0.00  0.00    +0.138 C 
ATOM     15  S   UNL     1      -3.709   1.655   3.195  0.00  0.00    -0.018 S 
BRANCH  14  16
ATOM     16  N   UNL     1      -1.499   2.153   1.809  0.00  0.00    -0.297 N 
ATOM     17  H   UNL     1      -1.795   2.362   0.909  0.00  0.00    +0.154 HD
BRANCH  16  18
ATOM     18  C   UNL     1      -0.370   2.786   2.339  0.00  0.00    +0.033 A 
ATOM     19  C   UNL     1       0.098   2.434   3.599  0.00  0.00    +0.024 A 
ATOM     20  C   UNL     1       1.213   3.060   4.120  0.00  0.00    +0.017 A 
ATOM     21  C   UNL     1       1.864   4.038   3.388  0.00  0.00    +0.018 A 
ATOM     22  C   UNL     1       1.400   4.391   2.134  0.00  0.00    +0.017 A 
ATOM     23  C   UNL     1       0.289   3.764   1.605  0.00  0.00    +0.024 A 
ATOM     24 BR   UNL     1       3.390   4.894   4.106  0.00  0.00    -0.050 Br
ENDBRANCH  16  18
ENDBRANCH  14  16
ENDBRANCH   1  14
BRANCH   1  25
ATOM     25  C   UNL     1      -0.289  -0.273   2.320  0.00  0.00    +0.142 C 
BRANCH  25  32
ATOM     26  C   UNL     1       2.120  -1.201   1.022  0.00  0.00    +0.044 C 
ATOM     27  C   UNL     1       0.818  -1.171   0.263  0.00  0.00    -0.046 A 
ATOM     28  C   UNL     1       0.776  -1.593  -1.053  0.00  0.00    +0.003 A 
ATOM     29  C   UNL     1      -0.417  -1.565  -1.750  0.00  0.00    +0.000 A 
ATOM     30  C   UNL     1      -1.569  -1.116  -1.131  0.00  0.00    +0.000 A 
ATOM     31  C   UNL     1      -1.527  -0.695   0.185  0.00  0.00    +0.005 A 
ATOM     32  C   UNL     1      -0.334  -0.727   0.883  0.00  0.00    -0.027 A 
ENDBRANCH  25  32
ENDBRANCH   1  25
TORSDOF 6
