REMARK  Name = ZINC20868394
REMARK  6 active torsions:
REMARK  status: ('A' for Active; 'I' for Inactive)
REMARK    1  A    between atoms: C_1  and  C_2
REMARK    2  A    between atoms: C_6  and  N_8
REMARK    3  A    between atoms: C_9  and  C_19
REMARK    4  A    between atoms: C_19  and  C_20
REMARK    5  A    between atoms: C_24  and  C_32
REMARK    6  A    between atoms: N_28  and  C_31
REMARK                            x       y       z     vdW  Elec       q    Type
REMARK                         _______ _______ _______ _____ _____    ______ ____
ROOT
ATOM      1  N   UNL     1       0.036  -2.797   2.395  0.00  0.00    -0.264 N 
ATOM      2  C   UNL     1      -0.026  -4.156   2.379  0.00  0.00    +0.119 A 
ATOM      3  N   UNL     1      -0.001  -4.883   3.455  0.00  0.00    -0.233 NA
ATOM      4  C   UNL     1       0.090  -4.327   4.688  0.00  0.00    +0.078 A 
ATOM      5  C   UNL     1       0.117  -5.109   5.845  0.00  0.00    +0.028 A 
ATOM      6  C   UNL     1       0.210  -4.501   7.077  0.00  0.00    +0.002 A 
ATOM      7  C   UNL     1       0.278  -3.118   7.185  0.00  0.00    +0.001 A 
ATOM      8  C   UNL     1       0.253  -2.325   6.059  0.00  0.00    +0.015 A 
ATOM      9  C   UNL     1       0.159  -2.920   4.802  0.00  0.00    +0.065 A 
ATOM     10  C   UNL     1       0.134  -2.125   3.566  0.00  0.00    +0.266 A 
ATOM     11  O   UNL     1       0.196  -0.910   3.594  0.00  0.00    -0.267 OA
ENDROOT
BRANCH   1  17
ATOM     12  C   UNL     1      -2.554  -0.514  -1.107  0.00  0.00    +0.044 C 
ATOM     13  C   UNL     1      -1.238  -0.969  -0.532  0.00  0.00    -0.048 A 
ATOM     14  C   UNL     1      -0.059  -0.685  -1.197  0.00  0.00    +0.003 A 
ATOM     15  C   UNL     1       1.152  -1.100  -0.672  0.00  0.00    +0.002 A 
ATOM     16  C   UNL     1       1.186  -1.800   0.518  0.00  0.00    +0.026 A 
ATOM     17  C   UNL     1       0.004  -2.087   1.188  0.00  0.00    +0.051 A 
ATOM     18  C   UNL     1      -1.209  -1.664   0.661  0.00  0.00    +0.029 A 
ENDBRANCH   1  17
BRANCH   2  19
ATOM     19  C   UNL     1      -0.129  -4.853   1.047  0.00  0.00    +0.092 C 
BRANCH  19  20
ATOM     20  C   UNL     1      -0.331  -6.353   1.270  0.00  0.00    +0.114 C 
ATOM     21  C   UNL     1      -0.361  -7.085  -0.052  0.00  0.00    -0.013 A 
ATOM     22  C   UNL     1       0.562  -7.232  -1.063  0.00  0.00    +0.009 A 
ATOM     23  C   UNL     1       0.245  -7.979  -2.183  0.00  0.00    -0.050 A 
ATOM     24  C   UNL     1      -0.998  -8.577  -2.283  0.00  0.00    +0.005 A 
ATOM     25  C   UNL     1      -1.925  -8.432  -1.272  0.00  0.00    +0.024 A 
ATOM     26  C   UNL     1      -1.613  -7.680  -0.140  0.00  0.00    +0.040 A 
ATOM     27  N   UNL     1      -2.366  -7.390   0.998  0.00  0.00    -0.274 N 
ATOM     28  C   UNL     1      -1.692  -6.621   1.875  0.00  0.00    +0.227 C 
ATOM     29  O   UNL     1      -2.097  -6.219   2.945  0.00  0.00    -0.275 OA
ATOM     30  C   UNL     1      -3.734  -7.869   1.216  0.00  0.00    +0.138 C 
ATOM     31  C   UNL     1       1.252  -8.142  -3.293  0.00  0.00    +0.044 C 
ENDBRANCH  19  20
ENDBRANCH   2  19
TORSDOF 3
