REMARK  Name = ZINC00048922
REMARK  4 active torsions:
REMARK  status: ('A' for Active; 'I' for Inactive)
REMARK    1  A    between atoms: C_4  and  N_7
REMARK    2  A    between atoms: N_7  and  C_8
REMARK    3  A    between atoms: C_9  and  C_19
REMARK    4  A    between atoms: C_13  and  N_18
REMARK                            x       y       z     vdW  Elec       q    Type
REMARK                         _______ _______ _______ _____ _____    ______ ____
ROOT
ATOM      1  C   UNL     1      -4.637  -0.604   0.044  0.00  0.00    +0.090 A 
ATOM      2  C   UNL     1      -4.816   0.755   0.270  0.00  0.00    +0.106 A 
ATOM      3  C   UNL     1      -3.636   1.613   0.247  0.00  0.00    +0.104 A 
ATOM      4  C   UNL     1      -2.422   0.952  -0.007  0.00  0.00    +0.080 A 
ATOM      5  S   UNL     1      -2.877  -0.749  -0.202  0.00  0.00    -0.067 S 
ATOM      6  C   UNL     1      -1.227   1.649  -0.056  0.00  0.00    +0.136 A 
ATOM      7  N   UNL     1      -1.249   2.967   0.148  0.00  0.00    -0.199 NA
ATOM      8  C   UNL     1      -2.401   3.582   0.382  0.00  0.00    +0.215 A 
ATOM      9  N   UNL     1      -3.555   2.951   0.436  0.00  0.00    -0.213 NA
ATOM     10  N   UNL     1      -2.388   4.953   0.585  0.00  0.00    -0.327 N 
ATOM     11  H   UNL     1      -3.217   5.425   0.761  0.00  0.00    +0.145 HD
ATOM     12  H   UNL     1      -1.550   5.440   0.551  0.00  0.00    +0.145 HD
ENDROOT
BRANCH   6  13
ATOM     13  N   UNL     1      -0.032   0.992  -0.306  0.00  0.00    -0.342 N 
ATOM     14  H   UNL     1      -0.028   0.032  -0.449  0.00  0.00    +0.144 HD
ATOM     15  H   UNL     1       0.798   1.491  -0.342  0.00  0.00    +0.144 HD
ENDBRANCH   6  13
BRANCH   1  16
ATOM     16  N   UNL     1      -5.589  -1.600   0.017  0.00  0.00    -0.308 N 
ATOM     17  H   UNL     1      -6.530  -1.372   0.078  0.00  0.00    +0.153 HD
BRANCH  16  21
ATOM     18  C   UNL     1      -4.428  -5.584  -0.328  0.00  0.00    +0.000 A 
ATOM     19  C   UNL     1      -3.633  -4.692   0.368  0.00  0.00    +0.002 A 
ATOM     20  C   UNL     1      -4.015  -3.370   0.484  0.00  0.00    +0.023 A 
ATOM     21  C   UNL     1      -5.199  -2.937  -0.099  0.00  0.00    +0.032 A 
ATOM     22  C   UNL     1      -5.998  -3.837  -0.793  0.00  0.00    +0.023 A 
ATOM     23  C   UNL     1      -5.607  -5.156  -0.910  0.00  0.00    +0.002 A 
ENDBRANCH  16  21
ENDBRANCH   1  16
BRANCH   2  24
ATOM     24  C   UNL     1      -6.119   1.297   0.516  0.00  0.00    +0.104 C 
ATOM     25  N   UNL     1      -7.152   1.727   0.712  0.00  0.00    -0.191 NA
ENDBRANCH   2  24
TORSDOF 4
