REMARK  Name = ZINC67457305
REMARK  9 active torsions:
REMARK  status: ('A' for Active; 'I' for Inactive)
REMARK    1  A    between atoms: C_1  and  C_2
REMARK    2  A    between atoms: C_2  and  N_3
REMARK    3  A    between atoms: C_4  and  C_6
REMARK    4  A    between atoms: C_6  and  C_8
REMARK    5  A    between atoms: C_6  and  N_9
REMARK    6  A    between atoms: N_12  and  C_13
REMARK    7  A    between atoms: C_13  and  C_14
REMARK    8  A    between atoms: N_19  and  C_20
REMARK    9  A    between atoms: C_20  and  C_21
REMARK                            x       y       z     vdW  Elec       q    Type
REMARK                         _______ _______ _______ _____ _____    ______ ____
ROOT
ATOM      1  N   UNL     1       1.552  -3.749  -2.673  0.00  0.00    -0.288 N 
ATOM      2  C   UNL     1       2.511  -4.407  -3.355  0.00  0.00    +0.300 C 
ATOM      3  O   UNL     1       3.359  -3.784  -3.964  0.00  0.00    -0.253 OA
ATOM      4  N   UNL     1       2.529  -5.754  -3.363  0.00  0.00    -0.301 N 
ATOM      5  H   UNL     1       0.875  -4.246  -2.187  0.00  0.00    +0.151 HD
ATOM      6  H   UNL     1       1.852  -6.251  -2.877  0.00  0.00    +0.150 HD
ENDROOT
BRANCH   1   7
ATOM      7  C   UNL     1       1.532  -2.285  -2.665  0.00  0.00    +0.157 C 
ATOM      8  C   UNL     1       0.792  -1.778  -3.904  0.00  0.00    +0.038 C 
BRANCH   7  10
ATOM      9  N   UNL     1       0.688  -0.476  -1.203  0.00  0.00    -0.314 N 
ATOM     10  C   UNL     1       0.827  -1.799  -1.425  0.00  0.00    +0.233 C 
ATOM     11  O   UNL     1       0.384  -2.597  -0.627  0.00  0.00    -0.274 OA
ATOM     12  H   UNL     1       1.042   0.162  -1.842  0.00  0.00    +0.149 HD
BRANCH   9  14
ATOM     13  C   UNL     1      -0.019   1.526   0.010  0.00  0.00    +0.024 C 
ATOM     14  C   UNL     1       0.002  -0.004   0.002  0.00  0.00    +0.101 C 
ENDBRANCH   9  14
ENDBRANCH   7  10
ENDBRANCH   1   7
BRANCH   4  15
ATOM     15  C   UNL     1       3.571  -6.469  -4.104  0.00  0.00    +0.090 C 
BRANCH  15  16
ATOM     16  C   UNL     1       3.364  -7.977  -3.950  0.00  0.00    -0.051 C 
ATOM     17  C   UNL     1       4.351  -8.738  -4.860  0.00  0.00    -0.016 C 
ATOM     18  C   UNL     1       3.500  -9.927  -5.381  0.00  0.00    -0.020 C 
ATOM     19  C   UNL     1       2.103  -9.272  -5.524  0.00  0.00    -0.078 C 
ATOM     20  N   UNL     1       2.001  -8.342  -4.376  0.00  0.00    +0.383 N 
ATOM     21  H   UNL     1       1.498  -7.512  -4.653  0.00  0.00    -0.081 HD
BRANCH  20  22
ATOM     22  C   UNL     1       1.295  -8.997  -3.266  0.00  0.00    -0.075 C 
BRANCH  22  23
ATOM     23  C   UNL     1      -0.157  -9.262  -3.670  0.00  0.00    -0.028 C 
ATOM     24  C   UNL     1      -0.879  -7.929  -3.878  0.00  0.00    +0.002 C 
ATOM     25  C   UNL     1      -2.331  -8.194  -4.282  0.00  0.00    +0.000 C 
ATOM     26  C   UNL     1      -3.031  -8.987  -3.177  0.00  0.00    +0.000 C 
ATOM     27  C   UNL     1      -2.309 -10.319  -2.969  0.00  0.00    +0.000 C 
ATOM     28  C   UNL     1      -0.857 -10.055  -2.565  0.00  0.00    +0.002 C 
ENDBRANCH  22  23
ENDBRANCH  20  22
ENDBRANCH  15  16
ENDBRANCH   4  15
TORSDOF 7
