REMARK  Name = ZINC62827424
REMARK  5 active torsions:
REMARK  status: ('A' for Active; 'I' for Inactive)
REMARK    1  A    between atoms: C_1  and  C_2
REMARK    2  A    between atoms: C_3  and  C_21
REMARK    3  A    between atoms: C_5  and  N_10
REMARK    4  A    between atoms: C_6  and  C_7
REMARK    5  A    between atoms: N_17  and  C_20
REMARK                            x       y       z     vdW  Elec       q    Type
REMARK                         _______ _______ _______ _____ _____    ______ ____
ROOT
ATOM      1  N   UNL     1       0.066  -4.803   0.459  0.00  0.00    -0.263 N 
ATOM      2  C   UNL     1       0.071  -4.430   1.754  0.00  0.00    +0.307 C 
ATOM      3  O   UNL     1       0.152  -3.252   2.047  0.00  0.00    -0.252 OA
ATOM      4  N   UNL     1      -0.014  -5.361   2.724  0.00  0.00    -0.287 N 
ATOM      5  C   UNL     1      -0.130  -4.918   4.128  0.00  0.00    +0.107 C 
ATOM      6  C   UNL     1      -1.152  -5.775   4.897  0.00  0.00    +0.000 C 
ATOM      7  C   UNL     1      -2.340  -6.063   4.005  0.00  0.00    -0.078 C 
ATOM      8  N   UNL     1      -2.136  -7.342   3.329  0.00  0.00    +0.379 N 
ATOM      9  C   UNL     1      -1.430  -7.264   2.107  0.00  0.00    -0.060 C 
ATOM     10  C   UNL     1       0.006  -6.761   2.352  0.00  0.00    +0.091 C 
ATOM     11  C   UNL     1      -3.450  -7.943   3.067  0.00  0.00    -0.096 C 
ATOM     12  H   UNL     1       0.075  -5.745   0.226  0.00  0.00    +0.157 HD
ATOM     13  H   UNL     1      -1.628  -7.954   3.951  0.00  0.00    -0.082 HD
ENDROOT
BRANCH   1  18
ATOM     14  C   UNL     1       0.012  -2.916  -4.242  0.00  0.00    +0.045 C 
ATOM     15  C   UNL     1       0.022  -2.849  -2.736  0.00  0.00    -0.025 A 
ATOM     16  C   UNL     1       0.014  -1.680  -2.073  0.00  0.00    -0.008 A 
ATOM     17  S   UNL     1       0.031  -2.175  -0.364  0.00  0.00    -0.078 S 
ATOM     18  C   UNL     1       0.048  -3.843  -0.538  0.00  0.00    +0.088 A 
ATOM     19  C   UNL     1       0.035  -4.040  -1.915  0.00  0.00    +0.095 A 
ATOM     20  C   UNL     1      -0.005  -0.284  -2.641  0.00  0.00    +0.052 C 
BRANCH  19  21
ATOM     21  C   UNL     1       0.039  -5.339  -2.483  0.00  0.00    +0.389 C 
ATOM     22  O   UNL     1       0.032  -5.475  -3.701  0.00  0.00    -0.240 OA
ATOM     23  O   UNL     1       0.050  -6.325  -1.757  0.00  0.00    -0.240 OA
ENDBRANCH  19  21
ENDBRANCH   1  18
TORSDOF 2
