REMARK  Name = ZINC21265800
REMARK  8 active torsions:
REMARK  status: ('A' for Active; 'I' for Inactive)
REMARK    1  A    between atoms: C_3  and  S_22
REMARK    2  A    between atoms: C_6  and  C_7
REMARK    3  A    between atoms: C_7  and  C_8
REMARK    4  A    between atoms: C_8  and  N_9
REMARK    5  A    between atoms: N_9  and  C_10
REMARK    6  A    between atoms: C_10  and  C_11
REMARK    7  A    between atoms: N_13  and  C_14
REMARK    8  A    between atoms: S_22  and  N_25
REMARK                            x       y       z     vdW  Elec       q    Type
REMARK                         _______ _______ _______ _____ _____    ______ ____
ROOT
ATOM      1  N   UNL     1       3.419   2.298  -0.312  0.00  0.00    +0.385 N 
ATOM      2  H   UNL     1       3.267   3.083   0.444  0.00  0.00    -0.085 HD
ATOM      3  H   UNL     1       3.246   2.717  -1.315  0.00  0.00    -0.085 HD
ENDROOT
BRANCH   1   4
ATOM      4  C   UNL     1       4.796   1.793  -0.224  0.00  0.00    -0.077 C 
BRANCH   4   5
ATOM      5  C   UNL     1       5.777   2.940  -0.475  0.00  0.00    +0.016 C 
BRANCH   5  11
ATOM      6  C   UNL     1       7.853   2.434   0.828  0.00  0.00    +0.005 A 
ATOM      7  C   UNL     1       9.147   1.955   0.911  0.00  0.00    +0.029 A 
ATOM      8  C   UNL     1       9.780   1.473  -0.219  0.00  0.00    +0.105 A 
ATOM      9  C   UNL     1       9.118   1.466  -1.432  0.00  0.00    +0.029 A 
ATOM     10  C   UNL     1       7.823   1.941  -1.515  0.00  0.00    +0.005 A 
ATOM     11  C   UNL     1       7.189   2.422  -0.385  0.00  0.00    -0.049 A 
BRANCH   8  12
ATOM     12  S   UNL     1      11.431   0.866  -0.113  0.00  0.00    +0.056 S 
ATOM     13  O   UNL     1      11.635   0.476   1.238  0.00  0.00    -0.153 OA
ATOM     14  O   UNL     1      11.604  -0.034  -1.200  0.00  0.00    -0.153 OA
BRANCH  12  15
ATOM     15  N   UNL     1      12.443   2.147  -0.393  0.00  0.00    -0.204 NA
ATOM     16  H   UNL     1      13.488   1.808  -0.336  0.00  0.00    +0.144 HD
ATOM     17  H   UNL     1      12.267   2.925   0.364  0.00  0.00    +0.144 HD
ENDBRANCH  12  15
ENDBRANCH   8  12
ENDBRANCH   5  11
ENDBRANCH   4   5
ENDBRANCH   1   4
BRANCH   1  18
ATOM     18  C   UNL     1       2.448   1.222  -0.076  0.00  0.00    +0.015 C 
BRANCH  18  19
ATOM     19  C   UNL     1       1.050   1.777  -0.175  0.00  0.00    +0.200 C 
ATOM     20  O   UNL     1       0.880   2.953  -0.417  0.00  0.00    -0.278 OA
ATOM     21  N   UNL     1      -0.011   0.966   0.007  0.00  0.00    -0.287 N 
ATOM     22  H   UNL     1       0.140  -0.115   0.144  0.00  0.00    +0.155 HD
BRANCH  21  23
ATOM     23  C   UNL     1      -1.305   1.499   0.022  0.00  0.00    +0.035 A 
ATOM     24  C   UNL     1      -1.528   2.770   0.536  0.00  0.00    +0.025 A 
ATOM     25  C   UNL     1      -2.804   3.296   0.546  0.00  0.00    +0.023 A 
ATOM     26  C   UNL     1      -3.864   2.555   0.053  0.00  0.00    +0.059 A 
ATOM     27  C   UNL     1      -3.646   1.286  -0.456  0.00  0.00    +0.061 A 
ATOM     28  C   UNL     1      -2.369   0.756  -0.472  0.00  0.00    +0.044 A 
ATOM     29 CL   UNL     1      -4.977   0.358  -1.074  0.00  0.00    -0.082 Cl
ATOM     30 CL   UNL     1      -5.468   3.217   0.071  0.00  0.00    -0.082 Cl
ENDBRANCH  21  23
ENDBRANCH  18  19
ENDBRANCH   1  18
TORSDOF 8
