REMARK  Name = ZINC63161132
REMARK  10 active torsions:
REMARK  status: ('A' for Active; 'I' for Inactive)
REMARK    1  A    between atoms: C_1  and  C_2
REMARK    2  A    between atoms: C_5  and  C_8
REMARK    3  A    between atoms: N_10  and  N_11
REMARK    4  A    between atoms: C_12  and  C_14
REMARK    5  A    between atoms: C_14  and  C_16
REMARK    6  A    between atoms: C_14  and  N_26
REMARK    7  A    between atoms: C_16  and  C_17
REMARK    8  A    between atoms: C_27  and  O_29
REMARK    9  A    between atoms: O_29  and  C_30
REMARK   10  A    between atoms: C_30  and  C_31
REMARK                            x       y       z     vdW  Elec       q    Type
REMARK                         _______ _______ _______ _____ _____    ______ ____
ROOT
ATOM      1  C   UNL     1       0.143  -8.638   2.377  0.00  0.00    +0.168 C 
ENDROOT
BRANCH   1   3
ATOM      2  N   UNL     1      -0.578  -6.545   1.272  0.00  0.00    -0.233 N 
ATOM      3  C   UNL     1      -0.255  -7.185   2.414  0.00  0.00    +0.250 C 
ATOM      4  O   UNL     1      -0.286  -6.592   3.471  0.00  0.00    -0.272 OA
ATOM      5  H   UNL     1      -0.554  -7.020   0.427  0.00  0.00    +0.173 HD
BRANCH   2   8
ATOM      6  C   UNL     1      -1.271  -4.555   0.166  0.00  0.00    +0.260 C 
ATOM      7  O   UNL     1      -1.240  -5.149  -0.894  0.00  0.00    -0.269 OA
ATOM      8  N   UNL     1      -0.948  -5.195   1.307  0.00  0.00    -0.230 N 
ATOM      9  H   UNL     1      -0.972  -4.720   2.153  0.00  0.00    +0.173 HD
BRANCH   6  14
ATOM     10  C   UNL     1      -2.793   0.993   0.309  0.00  0.00    +0.044 C 
ATOM     11  C   UNL     1      -2.394  -0.460   0.271  0.00  0.00    -0.050 A 
ATOM     12  C   UNL     1      -2.360  -1.134  -0.937  0.00  0.00    +0.004 A 
ATOM     13  C   UNL     1      -1.996  -2.464  -0.978  0.00  0.00    +0.013 A 
ATOM     14  C   UNL     1      -1.661  -3.129   0.202  0.00  0.00    +0.038 A 
ATOM     15  C   UNL     1      -1.698  -2.443   1.418  0.00  0.00    +0.013 A 
ATOM     16  C   UNL     1      -2.058  -1.112   1.444  0.00  0.00    +0.004 A 
ENDBRANCH   6  14
ENDBRANCH   2   8
ENDBRANCH   1   3
BRANCH   1  17
ATOM     17  N   UNL     1       0.443  -9.097   3.735  0.00  0.00    -0.269 N 
ATOM     18  C   UNL     1       0.275 -10.395   4.060  0.00  0.00    +0.401 C 
ATOM     19  O   UNL     1      -0.125 -11.183   3.227  0.00  0.00    -0.226 OA
ATOM     20  H   UNL     1       0.762  -8.468   4.400  0.00  0.00    +0.153 HD
BRANCH  18  21
ATOM     21  O   UNL     1       0.551 -10.816   5.309  0.00  0.00    -0.446 OA
BRANCH  21  22
ATOM     22  C   UNL     1       0.350 -12.204   5.584  0.00  0.00    +0.269 C 
BRANCH  22  23
ATOM     23  C   UNL     1       0.708 -12.489   7.020  0.00  0.00    -0.010 A 
ATOM     24  C   UNL     1       2.002 -12.842   7.353  0.00  0.00    +0.007 A 
ATOM     25  C   UNL     1       2.331 -13.103   8.670  0.00  0.00    +0.000 A 
ATOM     26  C   UNL     1       1.364 -13.011   9.654  0.00  0.00    +0.000 A 
ATOM     27  C   UNL     1       0.070 -12.657   9.321  0.00  0.00    +0.000 A 
ATOM     28  C   UNL     1      -0.257 -12.392   8.005  0.00  0.00    +0.007 A 
ENDBRANCH  22  23
ENDBRANCH  21  22
ENDBRANCH  18  21
ENDBRANCH   1  17
BRANCH   1  29
ATOM     29  C   UNL     1       1.383  -8.805   1.496  0.00  0.00    +0.065 C 
BRANCH  29  30
ATOM     30  C   UNL     1       2.531  -8.033   2.095  0.00  0.00    -0.039 C 
ATOM     31  C   UNL     1       3.487  -8.511   2.925  0.00  0.00    -0.001 A 
ATOM     32  C   UNL     1       3.733  -9.840   3.497  0.00  0.00    +0.010 A 
ATOM     33  C   UNL     1       4.796 -10.015   4.315  0.00  0.00    +0.001 A 
ATOM     34  C   UNL     1       5.665  -8.961   4.630  0.00  0.00    +0.002 A 
ATOM     35  C   UNL     1       5.504  -7.713   4.143  0.00  0.00    +0.026 A 
ATOM     36  C   UNL     1       4.420  -7.415   3.272  0.00  0.00    +0.043 A 
ATOM     37  N   UNL     1       4.055  -6.304   2.680  0.00  0.00    -0.380 N 
ATOM     38  C   UNL     1       2.852  -6.570   1.885  0.00  0.00    +0.144 C 
ATOM     39  H   UNL     1       4.508  -5.449   2.753  0.00  0.00    +0.160 HD
ENDBRANCH  29  30
ENDBRANCH   1  29
TORSDOF 9
