REMARK  Name = ZINC02391600
REMARK  7 active torsions:
REMARK  status: ('A' for Active; 'I' for Inactive)
REMARK    1  A    between atoms: C_4  and  O_22
REMARK    2  A    between atoms: C_5  and  C_7
REMARK    3  A    between atoms: N_8  and  N_9
REMARK    4  A    between atoms: C_10  and  C_12
REMARK    5  A    between atoms: N_14  and  C_15
REMARK    6  A    between atoms: O_22  and  C_23
REMARK    7  A    between atoms: C_23  and  C_25
REMARK                            x       y       z     vdW  Elec       q    Type
REMARK                         _______ _______ _______ _____ _____    ______ ____
ROOT
ATOM      1  C   UNL     1      -0.922   1.059   0.381  0.00  0.00    +0.001 A 
ATOM      2  C   UNL     1       0.328   1.653   0.322  0.00  0.00    +0.004 A 
ATOM      3  C   UNL     1       0.446   3.029   0.264  0.00  0.00    +0.047 A 
ATOM      4  C   UNL     1      -0.688   3.825   0.265  0.00  0.00    +0.141 A 
ATOM      5  C   UNL     1      -1.956   3.228   0.325  0.00  0.00    +0.037 A 
ATOM      6  C   UNL     1      -2.061   1.835   0.378  0.00  0.00    +0.013 A 
ENDROOT
BRANCH   5   7
ATOM      7  C   UNL     1      -3.168   4.063   0.327  0.00  0.00    +0.142 C 
ATOM      8  N   UNL     1      -3.066   5.357   0.272  0.00  0.00    -0.187 NA
BRANCH   8   9
ATOM      9  N   UNL     1      -4.220   6.152   0.273  0.00  0.00    -0.199 N 
ATOM     10  C   UNL     1      -4.114   7.494   0.216  0.00  0.00    +0.318 C 
ATOM     11  O   UNL     1      -3.018   8.015   0.164  0.00  0.00    -0.263 OA
ATOM     12  H   UNL     1      -5.095   5.736   0.315  0.00  0.00    +0.178 HD
BRANCH  10  13
ATOM     13  C   UNL     1      -5.341   8.340   0.218  0.00  0.00    +0.305 C 
ATOM     14  O   UNL     1      -6.437   7.820   0.270  0.00  0.00    -0.265 OA
ATOM     15  N   UNL     1      -5.235   9.682   0.161  0.00  0.00    -0.276 N 
ATOM     16  H   UNL     1      -4.366  10.095   0.036  0.00  0.00    +0.155 HD
BRANCH  15  17
ATOM     17  C   UNL     1      -6.377  10.480   0.282  0.00  0.00    +0.052 A 
ATOM     18  C   UNL     1      -7.420  10.080   1.107  0.00  0.00    +0.025 A 
ATOM     19  C   UNL     1      -8.545  10.873   1.229  0.00  0.00    +0.002 A 
ATOM     20  C   UNL     1      -8.637  12.058   0.523  0.00  0.00    +0.002 A 
ATOM     21  C   UNL     1      -7.603  12.457  -0.304  0.00  0.00    +0.022 A 
ATOM     22  C   UNL     1      -6.473  11.672  -0.426  0.00  0.00    +0.062 A 
ATOM     23 CL   UNL     1      -5.175  12.173  -1.465  0.00  0.00    -0.082 Cl
ENDBRANCH  15  17
ENDBRANCH  10  13
ENDBRANCH   8   9
ENDBRANCH   5   7
BRANCH   4  24
ATOM     24  O   UNL     1      -0.573   5.176   0.209  0.00  0.00    -0.421 OA
BRANCH  24  25
ATOM     25  C   UNL     1      -0.657   5.847   1.376  0.00  0.00    +0.353 C 
ATOM     26  O   UNL     1      -0.938   5.254   2.399  0.00  0.00    -0.244 OA
BRANCH  25  27
ATOM     27  C   UNL     1      -0.411   7.293   1.410  0.00  0.00    +0.116 A 
ATOM     28  C   UNL     1      -0.454   8.136   2.479  0.00  0.00    +0.070 A 
ATOM     29  C   UNL     1      -0.180   9.505   2.302  0.00  0.00    +0.008 A 
ATOM     30  C   UNL     1      -0.170  10.531   3.282  0.00  0.00    +0.010 A 
ATOM     31  C   UNL     1       0.112  11.815   2.940  0.00  0.00    +0.001 A 
ATOM     32  C   UNL     1       0.401  12.173   1.628  0.00  0.00    +0.001 A 
ATOM     33  C   UNL     1       0.402  11.205   0.644  0.00  0.00    +0.016 A 
ATOM     34  C   UNL     1       0.118   9.898   0.976  0.00  0.00    +0.022 A 
ATOM     35  S   UNL     1       0.012   8.381   0.060  0.00  0.00    -0.080 S 
ATOM     36 CL   UNL     1      -0.842   7.522   4.056  0.00  0.00    -0.082 Cl
ENDBRANCH  25  27
ENDBRANCH  24  25
ENDBRANCH   4  24
TORSDOF 7
