REMARK  Name = ZINC63908143
REMARK  7 active torsions:
REMARK  status: ('A' for Active; 'I' for Inactive)
REMARK    1  A    between atoms: C_7  and  C_10
REMARK    2  A    between atoms: C_10  and  C_11
REMARK    3  A    between atoms: C_11  and  C_12
REMARK    4  A    between atoms: N_14  and  C_15
REMARK    5  A    between atoms: C_17  and  S_27
REMARK    6  A    between atoms: C_20  and  N_21
REMARK    7  A    between atoms: S_27  and  N_30
REMARK                            x       y       z     vdW  Elec       q    Type
REMARK                         _______ _______ _______ _____ _____    ______ ____
ROOT
ATOM      1  C   UNL     1      -1.636  -6.564  -2.669  0.00  0.00    +0.057 A 
ATOM      2  C   UNL     1      -2.178  -7.081  -1.502  0.00  0.00    +0.053 A 
ATOM      3  C   UNL     1      -2.965  -8.217  -1.550  0.00  0.00    +0.107 A 
ATOM      4  C   UNL     1      -3.215  -8.840  -2.759  0.00  0.00    +0.030 A 
ATOM      5  C   UNL     1      -2.679  -8.331  -3.927  0.00  0.00    +0.027 A 
ATOM      6  C   UNL     1      -1.893  -7.189  -3.889  0.00  0.00    +0.051 A 
ENDROOT
BRANCH   6   7
ATOM      7  N   UNL     1      -1.354  -6.668  -5.071  0.00  0.00    -0.328 N 
ATOM      8  C   UNL     1      -0.040  -7.114  -5.554  0.00  0.00    +0.105 C 
ATOM      9  C   UNL     1      -0.184  -7.590  -7.003  0.00  0.00    +0.019 C 
ATOM     10  C   UNL     1      -0.818  -6.477  -7.841  0.00  0.00    +0.003 C 
ATOM     11  C   UNL     1      -2.212  -6.158  -7.298  0.00  0.00    +0.019 C 
ATOM     12  C   UNL     1      -2.094  -5.670  -5.855  0.00  0.00    +0.105 C 
ENDBRANCH   6   7
BRANCH   1  15
ATOM     13  C   UNL     1      -0.030  -5.195  -1.566  0.00  0.00    +0.218 C 
ATOM     14  O   UNL     1      -0.054  -5.951  -0.618  0.00  0.00    -0.275 OA
ATOM     15  N   UNL     1      -0.837  -5.413  -2.623  0.00  0.00    -0.284 N 
ATOM     16  H   UNL     1      -0.865  -4.774  -3.352  0.00  0.00    +0.155 HD
BRANCH  13  17
ATOM     17  C   UNL     1       0.902  -4.011  -1.562  0.00  0.00    +0.100 C 
BRANCH  17  18
ATOM     18  C   UNL     1       1.700  -3.994  -0.256  0.00  0.00    +0.042 C 
BRANCH  18  25
ATOM     19  C   UNL     1       1.319   0.245   1.458  0.00  0.00    +0.001 A 
ATOM     20  C   UNL     1       2.447   1.046   1.232  0.00  0.00    +0.002 A 
ATOM     21  C   UNL     1       3.538   0.601   0.573  0.00  0.00    +0.026 A 
ATOM     22  C   UNL     1       3.580  -0.729   0.070  0.00  0.00    +0.043 A 
ATOM     23  N   UNL     1       4.505  -1.383  -0.590  0.00  0.00    -0.380 N 
ATOM     24  C   UNL     1       4.016  -2.740  -0.859  0.00  0.00    +0.144 C 
ATOM     25  C   UNL     1       2.632  -2.810  -0.252  0.00  0.00    -0.041 C 
ATOM     26  C   UNL     1       2.401  -1.595   0.295  0.00  0.00    -0.001 A 
ATOM     27  C   UNL     1       1.256  -1.034   1.023  0.00  0.00    +0.010 A 
ATOM     28  H   UNL     1       5.368  -1.030  -0.857  0.00  0.00    +0.160 HD
ENDBRANCH  18  25
ENDBRANCH  17  18
ENDBRANCH  13  17
ENDBRANCH   1  15
BRANCH   3  29
ATOM     29  S   UNL     1      -3.651  -8.872  -0.065  0.00  0.00    +0.061 S 
ATOM     30  O   UNL     1      -3.901 -10.250  -0.307  0.00  0.00    -0.153 OA
ATOM     31  O   UNL     1      -2.823  -8.423   0.998  0.00  0.00    -0.153 OA
BRANCH  29  32
ATOM     32  N   UNL     1      -5.128  -8.154   0.150  0.00  0.00    -0.172 NA
ATOM     33  C   UNL     1      -5.257  -6.897   0.904  0.00  0.00    +0.137 C 
ATOM     34  C   UNL     1      -6.066  -5.907   0.059  0.00  0.00    +0.177 C 
ATOM     35  O   UNL     1      -7.286  -6.528  -0.353  0.00  0.00    -0.377 OA
ATOM     36  C   UNL     1      -7.106  -7.673  -1.189  0.00  0.00    +0.177 C 
ATOM     37  C   UNL     1      -6.349  -8.751  -0.413  0.00  0.00    +0.137 C 
ENDBRANCH  29  32
ENDBRANCH   3  29
TORSDOF 7
