REMARK  Name = ZINC13694693
REMARK  7 active torsions:
REMARK  status: ('A' for Active; 'I' for Inactive)
REMARK    1  A    between atoms: C_1  and  O_2
REMARK    2  A    between atoms: O_2  and  C_3
REMARK    3  A    between atoms: C_7  and  N_9
REMARK    4  A    between atoms: N_17  and  C_20
REMARK    5  A    between atoms: C_20  and  C_21
REMARK    6  A    between atoms: N_23  and  C_24
REMARK    7  A    between atoms: C_26  and  C_31
REMARK                            x       y       z     vdW  Elec       q    Type
REMARK                         _______ _______ _______ _____ _____    ______ ____
ROOT
ATOM      1  N   UNL     1      -0.021   5.078   0.018  0.00  0.00    -0.289 N 
ATOM      2  C   UNL     1       0.567   5.896   0.959  0.00  0.00    +0.112 A 
ATOM      3  C   UNL     1       0.038   7.120   0.799  0.00  0.00    +0.103 A 
ATOM      4  N   UNL     1      -0.851   7.069  -0.208  0.00  0.00    -0.334 N 
ATOM      5  C   UNL     1      -0.892   5.850  -0.690  0.00  0.00    +0.181 A 
ATOM      6  N   UNL     1      -1.688   5.420  -1.739  0.00  0.00    -0.300 N 
ATOM      7  C   UNL     1      -0.876   4.813  -2.802  0.00  0.00    +0.123 C 
ATOM      8  C   UNL     1      -1.797   4.280  -3.902  0.00  0.00    +0.104 C 
ATOM      9  N   UNL     1      -2.613   5.382  -4.431  0.00  0.00    -0.291 NA
ATOM     10  C   UNL     1      -3.425   5.990  -3.368  0.00  0.00    +0.104 C 
ATOM     11  C   UNL     1      -2.504   6.522  -2.267  0.00  0.00    +0.123 C 
ATOM     12  H   UNL     1      -1.405   7.974  -0.499  0.00  0.00    +0.168 HD
ENDROOT
BRANCH   1  17
ATOM     13  C   UNL     1       1.788   1.911  -0.490  0.00  0.00    +0.122 A 
ATOM     14  C   UNL     1       0.731   1.015  -0.564  0.00  0.00    +0.046 A 
ATOM     15  C   UNL     1      -0.570   1.469  -0.451  0.00  0.00    +0.006 A 
ATOM     16  C   UNL     1      -0.820   2.813  -0.253  0.00  0.00    +0.026 A 
ATOM     17  C   UNL     1       0.234   3.713  -0.177  0.00  0.00    +0.053 A 
ATOM     18  C   UNL     1       1.540   3.260  -0.296  0.00  0.00    +0.071 A 
BRANCH  13  20
ATOM     19  C   UNL     1       3.248   0.061  -0.805  0.00  0.00    +0.277 C 
ATOM     20  O   UNL     1       3.067   1.464  -0.607  0.00  0.00    -0.495 OA
ENDBRANCH  13  20
ENDBRANCH   1  17
BRANCH   9  21
ATOM     21  C   UNL     1      -3.457   4.926  -5.543  0.00  0.00    +0.180 C 
BRANCH  21  22
ATOM     22  C   UNL     1      -4.078   6.118  -6.224  0.00  0.00    +0.231 C 
ATOM     23  O   UNL     1      -3.752   7.240  -5.900  0.00  0.00    -0.274 OA
ATOM     24  N   UNL     1      -4.996   5.938  -7.195  0.00  0.00    -0.283 N 
ATOM     25  H   UNL     1      -5.344   4.923  -7.440  0.00  0.00    +0.155 HD
BRANCH  24  26
ATOM     26  C   UNL     1      -5.506   7.040  -7.890  0.00  0.00    +0.052 A 
ATOM     27  C   UNL     1      -5.667   8.258  -7.242  0.00  0.00    +0.037 A 
ATOM     28  C   UNL     1      -6.166   9.345  -7.931  0.00  0.00    +0.057 A 
ATOM     29  C   UNL     1      -6.515   9.221  -9.264  0.00  0.00    +0.014 A 
ATOM     30  C   UNL     1      -6.361   8.009  -9.912  0.00  0.00    +0.022 A 
ATOM     31  C   UNL     1      -5.857   6.918  -9.229  0.00  0.00    +0.062 A 
ATOM     32 CL   UNL     1      -5.663   5.397 -10.043  0.00  0.00    -0.082 Cl
BRANCH  28  33
ATOM     33  C   UNL     1      -6.337  10.668  -7.229  0.00  0.00    +0.417 C 
ATOM     34  F   UNL     1      -6.859  11.607  -8.125  0.00  0.00    -0.166 F 
ATOM     35  F   UNL     1      -7.214  10.513  -6.151  0.00  0.00    -0.166 F 
ATOM     36  F   UNL     1      -5.095  11.111  -6.761  0.00  0.00    -0.166 F 
ENDBRANCH  28  33
ENDBRANCH  24  26
ENDBRANCH  21  22
ENDBRANCH   9  21
TORSDOF 6
