REMARK  Name = ZINC02191501
REMARK  4 active torsions:
REMARK  status: ('A' for Active; 'I' for Inactive)
REMARK    1  A    between atoms: C_3  and  C_11
REMARK    2  A    between atoms: C_5  and  C_7
REMARK    3  A    between atoms: N_19  and  C_22
REMARK    4  A    between atoms: C_25  and  C_27
REMARK                            x       y       z     vdW  Elec       q    Type
REMARK                         _______ _______ _______ _____ _____    ______ ____
ROOT
ATOM      1  C   UNL     1      -2.328   1.518  -0.228  0.00  0.00    +0.251 C 
ATOM      2  O   UNL     1      -2.404   0.308  -0.307  0.00  0.00    -0.270 OA
ATOM      3  N   UNL     1      -1.124   2.110  -0.101  0.00  0.00    -0.236 N 
ATOM      4  C   UNL     1      -0.005   1.361  -0.062  0.00  0.00    +0.309 C 
ATOM      5  O   UNL     1      -0.086   0.148  -0.042  0.00  0.00    -0.252 OA
ATOM      6  N   UNL     1       1.205   1.955  -0.038  0.00  0.00    -0.282 N 
ATOM      7  C   UNL     1       2.439   1.158  -0.093  0.00  0.00    +0.128 C 
ATOM      8  C   UNL     1       3.331   1.726  -1.209  0.00  0.00    +0.125 C 
ATOM      9  N   UNL     1       3.530   3.164  -0.984  0.00  0.00    -0.313 N 
ATOM     10  C   UNL     1       2.260   3.898  -1.067  0.00  0.00    +0.125 C 
ATOM     11  C   UNL     1       1.325   3.419   0.048  0.00  0.00    +0.128 C 
ATOM     12  H   UNL     1      -1.063   3.076  -0.038  0.00  0.00    +0.159 HD
ENDROOT
BRANCH   9  13
ATOM     13  C   UNL     1       4.464   3.683  -1.875  0.00  0.00    +0.118 A 
ATOM     14  C   UNL     1       5.706   4.104  -1.406  0.00  0.00    +0.079 A 
ATOM     15  C   UNL     1       6.627   4.612  -2.305  0.00  0.00    +0.037 A 
ATOM     16  C   UNL     1       6.270   4.694  -3.645  0.00  0.00    +0.072 A 
ATOM     17  C   UNL     1       5.019   4.263  -4.039  0.00  0.00    +0.096 A 
ATOM     18 CL   UNL     1       6.095   3.986   0.281  0.00  0.00    -0.080 Cl
ATOM     19  N   UNL     1       4.091   3.753  -3.185  0.00  0.00    -0.348 N 
ATOM     20  H   UNL     1       3.168   3.440  -3.507  0.00  0.00    +0.167 HD
BRANCH  16  21
ATOM     21  C   UNL     1       7.239   5.246  -4.658  0.00  0.00    +0.419 C 
ATOM     22  F   UNL     1       6.650   5.223  -5.927  0.00  0.00    -0.166 F 
ATOM     23  F   UNL     1       7.567   6.564  -4.320  0.00  0.00    -0.166 F 
ATOM     24  F   UNL     1       8.399   4.465  -4.668  0.00  0.00    -0.166 F 
ENDBRANCH  16  21
ENDBRANCH   9  13
BRANCH   1  27
ATOM     25  C   UNL     1      -4.620   4.492  -0.221  0.00  0.00    +0.001 A 
ATOM     26  C   UNL     1      -3.471   3.730  -0.175  0.00  0.00    +0.013 A 
ATOM     27  C   UNL     1      -3.555   2.340  -0.271  0.00  0.00    +0.038 A 
ATOM     28  C   UNL     1      -4.804   1.730  -0.403  0.00  0.00    +0.025 A 
ATOM     29  C   UNL     1      -5.945   2.503  -0.442  0.00  0.00    +0.056 A 
ATOM     30  C   UNL     1      -5.855   3.881  -0.351  0.00  0.00    +0.012 A 
BRANCH  29  31
ATOM     31  C   UNL     1      -7.294   1.846  -0.584  0.00  0.00    +0.417 C 
ATOM     32  F   UNL     1      -7.810   1.563   0.685  0.00  0.00    -0.166 F 
ATOM     33  F   UNL     1      -8.164   2.708  -1.260  0.00  0.00    -0.166 F 
ATOM     34  F   UNL     1      -7.159   0.656  -1.308  0.00  0.00    -0.166 F 
ENDBRANCH  29  31
ENDBRANCH   1  27
TORSDOF 4
