REMARK  Name = ZINC44714171
REMARK  7 active torsions:
REMARK  status: ('A' for Active; 'I' for Inactive)
REMARK    1  A    between atoms: C_1  and  C_2
REMARK    2  A    between atoms: C_3  and  C_9
REMARK    3  A    between atoms: C_4  and  C_8
REMARK    4  A    between atoms: C_9  and  C_11
REMARK    5  A    between atoms: C_9  and  N_12
REMARK    6  A    between atoms: C_13  and  C_15
REMARK    7  A    between atoms: C_26  and  C_28
REMARK                            x       y       z     vdW  Elec       q    Type
REMARK                         _______ _______ _______ _____ _____    ______ ____
ROOT
ATOM      1  C   UNL     1      -2.715  -1.625  -4.856  0.00  0.00    +0.100 C 
ATOM      2  C   UNL     1      -2.016  -2.882  -5.421  0.00  0.00    +0.121 C 
ATOM      3  N   UNL     1      -2.691  -3.136  -6.715  0.00  0.00    -0.300 N 
ATOM      4  C   UNL     1      -2.901  -1.786  -7.292  0.00  0.00    +0.115 C 
ATOM      5  C   UNL     1      -3.294  -0.908  -6.088  0.00  0.00    -0.004 C 
ATOM      6  C   UNL     1      -4.812  -0.812  -5.977  0.00  0.00    -0.010 C 
ATOM      7  C   UNL     1      -5.359  -0.046  -7.185  0.00  0.00    -0.082 C 
ATOM      8  N   UNL     1      -4.765   1.296  -7.226  0.00  0.00    +0.379 N 
ATOM      9  C   UNL     1      -3.315   1.196  -7.425  0.00  0.00    -0.082 C 
ATOM     10  C   UNL     1      -2.681   0.482  -6.227  0.00  0.00    -0.010 C 
ATOM     11  C   UNL     1      -3.036  -4.325  -7.248  0.00  0.00    +0.219 C 
ATOM     12  O   UNL     1      -2.871  -5.345  -6.613  0.00  0.00    -0.275 OA
ATOM     13  H   UNL     1      -5.173   1.820  -7.986  0.00  0.00    -0.086 HD
ATOM     14  H   UNL     1      -4.952   1.772  -6.355  0.00  0.00    -0.086 HD
ENDROOT
BRANCH  11  15
ATOM     15  C   UNL     1      -3.628  -4.387  -8.633  0.00  0.00    +0.079 C 
ATOM     16  C   UNL     1      -4.078  -5.822  -8.937  0.00  0.00    +0.017 C 
ATOM     17  C   UNL     1      -4.832  -5.820 -10.269  0.00  0.00    +0.027 C 
ATOM     18  C   UNL     1      -4.036  -5.093 -11.313  0.00  0.00    -0.031 C 
ATOM     19  C   UNL     1      -3.055  -4.290 -11.049  0.00  0.00    -0.030 C 
ATOM     20  C   UNL     1      -2.572  -3.977  -9.662  0.00  0.00    +0.039 C 
ENDBRANCH  11  15
BRANCH   1  22
ATOM     21  N   UNL     1      -2.135   0.157  -3.241  0.00  0.00    -0.308 N 
ATOM     22  C   UNL     1      -1.716  -0.740  -4.156  0.00  0.00    +0.219 C 
ATOM     23  O   UNL     1      -0.535  -0.835  -4.415  0.00  0.00    -0.275 OA
ATOM     24  H   UNL     1      -3.080   0.233  -3.034  0.00  0.00    +0.149 HD
BRANCH  21  25
ATOM     25  C   UNL     1      -1.164   1.017  -2.560  0.00  0.00    +0.104 C 
ATOM     26  C   UNL     1      -0.504   0.238  -1.421  0.00  0.00    +0.033 C 
BRANCH  25  29
ATOM     27  C   UNL     1      -3.844   1.002  -0.946  0.00  0.00    +0.065 C 
ATOM     28  C   UNL     1      -3.029   2.218  -1.302  0.00  0.00    +0.038 A 
ATOM     29  C   UNL     1      -1.870   2.225  -2.000  0.00  0.00    +0.015 A 
ATOM     30  C   UNL     1      -1.442   3.553  -2.110  0.00  0.00    +0.065 A 
ATOM     31  N   UNL     1      -2.313   4.315  -1.500  0.00  0.00    -0.179 NA
ATOM     32  N   UNL     1      -3.326   3.496  -0.986  0.00  0.00    -0.281 N 
ATOM     33  H   UNL     1      -4.104   3.794  -0.489  0.00  0.00    +0.189 HD
ATOM     34  C   UNL     1      -0.193   4.023  -2.810  0.00  0.00    +0.068 C 
ENDBRANCH  25  29
ENDBRANCH  21  25
ENDBRANCH   1  22
TORSDOF 4
