REMARK  Name = ZINC64674424
REMARK  8 active torsions:
REMARK  status: ('A' for Active; 'I' for Inactive)
REMARK    1  A    between atoms: C_1  and  C_2
REMARK    2  A    between atoms: N_4  and  C_5
REMARK    3  A    between atoms: C_5  and  C_7
REMARK    4  A    between atoms: C_5  and  C_17
REMARK    5  A    between atoms: C_7  and  C_8
REMARK    6  A    between atoms: N_19  and  N_20
REMARK    7  A    between atoms: C_21  and  C_23
REMARK    8  A    between atoms: N_32  and  C_34
REMARK                            x       y       z     vdW  Elec       q    Type
REMARK                         _______ _______ _______ _____ _____    ______ ____
ROOT
ATOM      1  C   UNL     1      -1.197  -2.659  -0.458  0.00  0.00    +0.250 C 
ATOM      2  O   UNL     1      -1.800  -1.943   0.314  0.00  0.00    -0.272 OA
ATOM      3  N   UNL     1      -1.615  -3.923  -0.671  0.00  0.00    -0.233 N 
ATOM      4  H   UNL     1      -1.133  -4.495  -1.288  0.00  0.00    +0.173 HD
ENDROOT
BRANCH   3   5
ATOM      5  N   UNL     1      -2.746  -4.409  -0.003  0.00  0.00    -0.229 N 
ATOM      6  C   UNL     1      -3.164  -5.672  -0.216  0.00  0.00    +0.281 C 
ATOM      7  O   UNL     1      -2.560  -6.390  -0.989  0.00  0.00    -0.267 OA
ATOM      8  H   UNL     1      -3.228  -3.836   0.614  0.00  0.00    +0.173 HD
BRANCH   6   9
ATOM      9  C   UNL     1      -4.356  -6.184   0.488  0.00  0.00    +0.155 A 
ATOM     10  C   UNL     1      -4.817  -7.564   0.266  0.00  0.00    +0.020 A 
ATOM     11  C   UNL     1      -4.173  -8.443  -0.598  0.00  0.00    +0.011 A 
ATOM     12  C   UNL     1      -4.666  -9.722  -0.754  0.00  0.00    +0.001 A 
ATOM     13  C   UNL     1      -5.794 -10.138  -0.059  0.00  0.00    +0.001 A 
ATOM     14  C   UNL     1      -6.447  -9.283   0.802  0.00  0.00    +0.014 A 
ATOM     15  C   UNL     1      -5.965  -7.989   0.974  0.00  0.00    +0.050 A 
ATOM     16  C   UNL     1      -6.599  -7.013   1.871  0.00  0.00    +0.275 A 
ATOM     17  O   UNL     1      -7.591  -7.309   2.512  0.00  0.00    -0.266 OA
ATOM     18  N   UNL     1      -6.057  -5.782   1.968  0.00  0.00    -0.231 N 
ATOM     19  N   UNL     1      -5.013  -5.417   1.323  0.00  0.00    -0.163 NA
ATOM     20  C   UNL     1      -6.693  -4.813   2.864  0.00  0.00    +0.176 C 
ENDBRANCH   6   9
ENDBRANCH   3   5
BRANCH   1  21
ATOM     21  C   UNL     1       0.020  -2.136  -1.177  0.00  0.00    +0.164 C 
BRANCH  21  25
ATOM     22  C   UNL     1      -0.018   1.503   0.010  0.00  0.00    +0.109 C 
ATOM     23  C   UNL     1       0.002  -0.004   0.002  0.00  0.00    +0.211 C 
ATOM     24  O   UNL     1       0.020  -0.616   1.049  0.00  0.00    -0.276 OA
ATOM     25  N   UNL     1       0.000  -0.672  -1.169  0.00  0.00    -0.304 N 
ATOM     26  H   UNL     1      -0.015  -0.182  -2.006  0.00  0.00    +0.149 HD
ENDBRANCH  21  25
BRANCH  21  27
ATOM     27  C   UNL     1       1.283  -2.633  -0.470  0.00  0.00    +0.065 C 
BRANCH  27  28
ATOM     28  C   UNL     1       2.497  -2.214  -1.258  0.00  0.00    -0.039 C 
ATOM     29  C   UNL     1       3.258  -1.114  -1.055  0.00  0.00    -0.001 A 
ATOM     30  C   UNL     1       3.185  -0.021  -0.078  0.00  0.00    +0.010 A 
ATOM     31  C   UNL     1       4.111   0.964  -0.125  0.00  0.00    +0.001 A 
ATOM     32  C   UNL     1       5.136   0.967  -1.082  0.00  0.00    +0.002 A 
ATOM     33  C   UNL     1       5.268  -0.003  -2.012  0.00  0.00    +0.026 A 
ATOM     34  C   UNL     1       4.350  -1.088  -2.054  0.00  0.00    +0.043 A 
ATOM     35  N   UNL     1       4.267  -2.131  -2.845  0.00  0.00    -0.380 N 
ATOM     36  C   UNL     1       3.115  -2.940  -2.432  0.00  0.00    +0.144 C 
ATOM     37  H   UNL     1       4.869  -2.335  -3.578  0.00  0.00    +0.160 HD
ENDBRANCH  27  28
ENDBRANCH  21  27
ENDBRANCH   1  21
TORSDOF 6
