REMARK  Name = ZINC22990692
REMARK  3 active torsions:
REMARK  status: ('A' for Active; 'I' for Inactive)
REMARK    1  A    between atoms: C_1  and  C_2
REMARK    2  A    between atoms: C_9  and  C_11
REMARK    3  A    between atoms: C_22  and  C_24
REMARK                            x       y       z     vdW  Elec       q    Type
REMARK                         _______ _______ _______ _____ _____    ______ ____
ROOT
ATOM      1  C   UNL     1      -3.682   1.728   0.520  0.00  0.00    +0.167 C 
ATOM      2  C   UNL     1      -2.515   0.892  -0.003  0.00  0.00    +0.067 C 
ATOM      3  C   UNL     1      -1.242   1.696  -0.020  0.00  0.00    -0.040 A 
ATOM      4  C   UNL     1      -0.040   1.000  -0.056  0.00  0.00    +0.004 A 
ATOM      5  C   UNL     1       1.161   1.676  -0.093  0.00  0.00    +0.000 A 
ATOM      6  C   UNL     1       1.173   3.058  -0.088  0.00  0.00    +0.000 A 
ATOM      7  C   UNL     1      -0.018   3.752  -0.040  0.00  0.00    +0.005 A 
ATOM      8  C   UNL     1      -1.228   3.073  -0.001  0.00  0.00    -0.027 A 
ATOM      9  C   UNL     1      -2.493   3.892   0.065  0.00  0.00    +0.144 C 
ATOM     10  N   UNL     1      -3.655   3.027  -0.171  0.00  0.00    -0.279 N 
ATOM     11  C   UNL     1      -4.656   3.407  -0.990  0.00  0.00    +0.283 C 
ATOM     12  O   UNL     1      -5.551   2.627  -1.259  0.00  0.00    -0.267 OA
ENDROOT
BRANCH   1  20
ATOM     13  C   UNL     1      -9.789   0.761   0.474  0.00  0.00    +0.009 C 
ATOM     14  C   UNL     1      -8.464   1.523   0.544  0.00  0.00    +0.003 C 
ATOM     15  C   UNL     1      -8.514   2.529   1.697  0.00  0.00    +0.006 C 
ATOM     16  C   UNL     1      -7.202   3.314   1.748  0.00  0.00    +0.019 C 
ATOM     17  C   UNL     1      -6.039   2.343   2.004  0.00  0.00    +0.108 C 
ATOM     18  N   UNL     1      -6.074   1.292   0.977  0.00  0.00    -0.300 N 
ATOM     19  C   UNL     1      -7.318   0.535   0.783  0.00  0.00    +0.111 C 
ATOM     20  C   UNL     1      -4.983   1.024   0.232  0.00  0.00    +0.236 C 
ATOM     21  O   UNL     1      -5.049   0.217  -0.671  0.00  0.00    -0.274 OA
ENDBRANCH   1  20
BRANCH  11  22
ATOM     22  C   UNL     1      -4.667   4.760  -1.556  0.00  0.00    +0.189 A 
ATOM     23  C   UNL     1      -5.544   5.231  -2.491  0.00  0.00    +0.054 A 
ATOM     24  C   UNL     1      -5.191   6.567  -2.737  0.00  0.00    +0.042 A 
ATOM     25  C   UNL     1      -4.123   6.846  -1.958  0.00  0.00    +0.196 A 
ATOM     26  O   UNL     1      -3.810   5.755  -1.248  0.00  0.00    -0.458 OA
ENDBRANCH  11  22
TORSDOF 2
