REMARK  Name = ZINC50588524
REMARK  4 active torsions:
REMARK  status: ('A' for Active; 'I' for Inactive)
REMARK    1  A    between atoms: C_1  and  C_2
REMARK    2  A    between atoms: C_4  and  C_20
REMARK    3  A    between atoms: N_5  and  C_7
REMARK    4  A    between atoms: C_12  and  N_13
REMARK                            x       y       z     vdW  Elec       q    Type
REMARK                         _______ _______ _______ _____ _____    ______ ____
ROOT
ATOM      1  C   UNL     1       0.029  -3.256   1.417  0.00  0.00    +0.088 A 
ATOM      2  C   UNL     1       0.141  -4.506   0.836  0.00  0.00    +0.058 A 
ATOM      3  C   UNL     1       0.135  -5.645   1.640  0.00  0.00    +0.080 A 
ATOM      4  C   UNL     1       0.015  -5.508   3.042  0.00  0.00    +0.067 A 
ATOM      5  C   UNL     1      -0.097  -4.243   3.616  0.00  0.00    +0.040 A 
ATOM      6  C   UNL     1      -0.085  -3.123   2.807  0.00  0.00    +0.051 A 
ATOM      7  C   UNL     1       0.013  -6.731   3.857  0.00  0.00    +0.259 A 
ATOM      8  O   UNL     1      -0.088  -6.683   5.069  0.00  0.00    -0.267 OA
ATOM      9  N   UNL     1       0.126  -7.913   3.208  0.00  0.00    -0.313 N 
ATOM     10  H   UNL     1       0.128  -8.741   3.714  0.00  0.00    +0.170 HD
ATOM     11  C   UNL     1       0.237  -7.952   1.853  0.00  0.00    +0.199 A 
ATOM     12  N   UNL     1       0.243  -6.889   1.107  0.00  0.00    -0.237 NA
ENDROOT
BRANCH   1  17
ATOM     13  C   UNL     1       1.165   1.247  -0.320  0.00  0.00    +0.069 C 
ATOM     14  C   UNL     1       0.546  -0.117  -0.151  0.00  0.00    +0.075 A 
ATOM     15  C   UNL     1      -0.416  -0.689  -0.991  0.00  0.00    +0.062 A 
ATOM     16  C   UNL     1      -0.716  -1.917  -0.506  0.00  0.00    +0.056 A 
ATOM     17  N   UNL     1       0.035  -2.113   0.609  0.00  0.00    -0.234 N 
ATOM     18  N   UNL     1       0.820  -0.969   0.803  0.00  0.00    -0.170 NA
ATOM     19  C   UNL     1      -1.705  -2.889  -1.095  0.00  0.00    +0.067 C 
ATOM     20 BR   UNL     1      -1.165   0.111  -2.533  0.00  0.00    -0.047 Br
ENDBRANCH   1  17
BRANCH   6  21
ATOM     21  N   UNL     1      -0.191  -1.851   3.377  0.00  0.00    -0.356 N 
ATOM     22  H   UNL     1      -0.264  -1.069   2.808  0.00  0.00    +0.142 HD
ATOM     23  H   UNL     1      -0.191  -1.750   4.342  0.00  0.00    +0.142 HD
ENDBRANCH   6  21
TORSDOF 2
