REMARK  Name = ZINC20235782
REMARK  18 active torsions:
REMARK  status: ('A' for Active; 'I' for Inactive)
REMARK    1  A    between atoms: C_1  and  C_2
REMARK    2  A    between atoms: C_2  and  N_3
REMARK    3  A    between atoms: N_6  and  C_9
REMARK    4  A    between atoms: C_9  and  C_10
REMARK    5  A    between atoms: C_10  and  C_12
REMARK    6  A    between atoms: C_10  and  O_30
REMARK    7  A    between atoms: C_12  and  O_13
REMARK    8  A    between atoms: O_13  and  C_14
REMARK    9  A    between atoms: C_17  and  C_22
REMARK   10  A    between atoms: C_19  and  O_20
REMARK   11  A    between atoms: O_20  and  C_21
REMARK   12  A    between atoms: C_22  and  N_23
REMARK   13  A    between atoms: N_23  and  C_24
REMARK   14  A    between atoms: C_24  and  C_25
REMARK   15  A    between atoms: C_25  and  C_26
REMARK   16  A    between atoms: C_25  and  C_27
REMARK   17  A    between atoms: C_25  and  O_28
REMARK   18  A    between atoms: O_28  and  C_29
REMARK                            x       y       z     vdW  Elec       q    Type
REMARK                         _______ _______ _______ _____ _____    ______ ____
ROOT
ATOM      1  C   UNL     1      -4.739  -0.124  -1.000  0.00  0.00    +0.162 A 
ATOM      2  C   UNL     1      -3.733  -0.774  -1.697  0.00  0.00    +0.049 A 
ATOM      3  C   UNL     1      -2.461  -0.235  -1.739  0.00  0.00    +0.005 A 
ATOM      4  C   UNL     1      -2.186   0.947  -1.076  0.00  0.00    -0.061 A 
ATOM      5  C   UNL     1      -3.184   1.601  -0.379  0.00  0.00    +0.051 A 
ATOM      6  C   UNL     1      -4.463   1.069  -0.338  0.00  0.00    +0.162 A 
ENDROOT
BRANCH   6   7
ATOM      7  O   UNL     1      -5.446   1.710   0.348  0.00  0.00    -0.491 OA
ATOM      8  C   UNL     1      -5.091   2.929   1.004  0.00  0.00    +0.277 C 
ENDBRANCH   6   7
BRANCH   1   9
ATOM      9  O   UNL     1      -5.992  -0.649  -0.963  0.00  0.00    -0.486 OA
BRANCH   9  10
ATOM     10  C   UNL     1      -6.202  -1.876  -1.665  0.00  0.00    +0.261 C 
BRANCH  10  11
ATOM     11  C   UNL     1      -7.662  -2.309  -1.511  0.00  0.00    +0.166 C 
BRANCH  11  12
ATOM     12  O   UNL     1      -8.512  -1.356  -2.152  0.00  0.00    -0.387 OA
ATOM     13  H   UNL     1      -8.509  -0.307  -1.821  0.00  0.00    +0.210 HD
ENDBRANCH  11  12
BRANCH  11  14
ATOM     14  C   UNL     1      -7.857  -3.682  -2.156  0.00  0.00    +0.119 C 
BRANCH  14  18
ATOM     15  N   UNL     1     -11.361  -5.876  -1.283  0.00  0.00    +0.381 N 
ATOM     16  C   UNL     1     -11.026  -5.646  -2.695  0.00  0.00    -0.063 C 
ATOM     17  C   UNL     1      -9.542  -5.293  -2.814  0.00  0.00    +0.066 C 
ATOM     18  N   UNL     1      -9.259  -4.098  -2.008  0.00  0.00    -0.303 NA
ATOM     19  C   UNL     1      -9.593  -4.328  -0.595  0.00  0.00    +0.066 C 
ATOM     20  C   UNL     1     -11.077  -4.681  -0.476  0.00  0.00    -0.063 C 
ATOM     21  H   UNL     1     -10.726  -6.694  -0.912  0.00  0.00    -0.082 HD
BRANCH  15  23
ATOM     22  C   UNL     1     -13.005  -6.760   0.302  0.00  0.00    -0.017 C 
ATOM     23  C   UNL     1     -12.762  -6.292  -1.134  0.00  0.00    -0.082 C 
ENDBRANCH  15  23
ENDBRANCH  14  18
ENDBRANCH  11  14
ENDBRANCH  10  11
ENDBRANCH   9  10
ENDBRANCH   1   9
BRANCH   4  24
ATOM     24  C   UNL     1      -0.795   1.527  -1.120  0.00  0.00    -0.047 C 
BRANCH  24  25
ATOM     25  N   UNL     1      -0.012   1.005   0.008  0.00  0.00    +0.384 N 
ATOM     26  H   UNL     1      -0.497   1.287   0.954  0.00  0.00    -0.085 HD
ATOM     27  H   UNL     1       0.046  -0.091  -0.062  0.00  0.00    -0.085 HD
BRANCH  25  28
ATOM     28  C   UNL     1       1.353   1.550  -0.003  0.00  0.00    -0.047 C 
BRANCH  28  29
ATOM     29  C   UNL     1       2.136   0.985   1.184  0.00  0.00    +0.049 C 
ATOM     30  C   UNL     1       3.515   1.646   1.246  0.00  0.00    +0.039 C 
ATOM     31  C   UNL     1       1.375   1.269   2.480  0.00  0.00    +0.039 C 
BRANCH  29  32
ATOM     32  O   UNL     1       2.292  -0.427   1.022  0.00  0.00    -0.379 OA
ATOM     33  C   UNL     1       3.014  -1.057   2.082  0.00  0.00    +0.194 C 
ENDBRANCH  29  32
ENDBRANCH  28  29
ENDBRANCH  25  28
ENDBRANCH  24  25
ENDBRANCH   4  24
TORSDOF 13
