REMARK  Name = ZINC34749489
REMARK  9 active torsions:
REMARK  status: ('A' for Active; 'I' for Inactive)
REMARK    1  A    between atoms: C_1  and  C_2
REMARK    2  A    between atoms: C_2  and  C_3
REMARK    3  A    between atoms: C_4  and  C_37
REMARK    4  A    between atoms: N_10  and  C_33
REMARK    5  A    between atoms: N_16  and  C_19
REMARK    6  A    between atoms: C_19  and  C_20
REMARK    7  A    between atoms: N_22  and  C_23
REMARK    8  A    between atoms: C_33  and  C_34
REMARK    9  A    between atoms: C_34  and  C_36
REMARK                            x       y       z     vdW  Elec       q    Type
REMARK                         _______ _______ _______ _____ _____    ______ ____
ROOT
ATOM      1  C   UNL     1      -1.114  -1.749  -0.557  0.00  0.00    -0.023 A 
ATOM      2  C   UNL     1      -0.145  -2.631  -0.843  0.00  0.00    -0.007 A 
ATOM      3  S   UNL     1      -0.588  -3.222  -2.465  0.00  0.00    -0.073 S 
ATOM      4  C   UNL     1      -2.064  -2.268  -2.712  0.00  0.00    +0.117 A 
ATOM      5  C   UNL     1      -2.174  -1.521  -1.524  0.00  0.00    +0.076 A 
ATOM      6  C   UNL     1      -3.302  -0.645  -1.442  0.00  0.00    +0.264 A 
ATOM      7  O   UNL     1      -3.477   0.045  -0.453  0.00  0.00    -0.267 OA
ATOM      8  N   UNL     1      -4.167  -0.594  -2.472  0.00  0.00    -0.276 N 
ATOM      9  C   UNL     1      -3.987  -1.359  -3.587  0.00  0.00    +0.202 A 
ATOM     10  N   UNL     1      -2.952  -2.165  -3.694  0.00  0.00    -0.208 NA
ATOM     11  N   UNL     1      -4.892  -1.278  -4.616  0.00  0.00    -0.304 N 
ATOM     12  C   UNL     1      -4.444  -1.099  -6.005  0.00  0.00    +0.089 C 
ATOM     13  C   UNL     1      -5.129  -2.156  -6.877  0.00  0.00    -0.059 C 
ATOM     14  N   UNL     1      -6.583  -2.072  -6.694  0.00  0.00    +0.387 N 
ATOM     15  C   UNL     1      -6.934  -2.414  -5.310  0.00  0.00    -0.059 C 
ATOM     16  C   UNL     1      -6.338  -1.375  -4.361  0.00  0.00    +0.089 C 
ATOM     17  C   UNL     1       1.037  -3.026   0.005  0.00  0.00    +0.052 C 
ATOM     18  H   UNL     1      -6.893  -1.133  -6.896  0.00  0.00    -0.081 HD
ENDROOT
BRANCH   1  20
ATOM     19  C   UNL     1      -1.883  -1.816   1.800  0.00  0.00    +0.009 C 
ATOM     20  C   UNL     1      -1.109  -1.009   0.756  0.00  0.00    +0.033 C 
ENDBRANCH   1  20
BRANCH  14  21
ATOM     21  C   UNL     1      -7.246  -3.010  -7.611  0.00  0.00    +0.019 C 
BRANCH  21  22
ATOM     22  C   UNL     1      -8.739  -2.837  -7.513  0.00  0.00    +0.201 C 
ATOM     23  O   UNL     1      -9.207  -2.014  -6.754  0.00  0.00    -0.278 OA
ATOM     24  N   UNL     1      -9.556  -3.598  -8.269  0.00  0.00    -0.287 N 
ATOM     25  H   UNL     1      -9.188  -4.307  -8.819  0.00  0.00    +0.155 HD
BRANCH  24  26
ATOM     26  C   UNL     1     -10.933  -3.365  -8.260  0.00  0.00    +0.041 A 
ATOM     27  C   UNL     1     -11.426  -2.122  -7.926  0.00  0.00    +0.024 A 
ATOM     28  C   UNL     1     -12.796  -1.879  -7.914  0.00  0.00    +0.002 A 
ATOM     29  C   UNL     1     -13.686  -2.859  -8.232  0.00  0.00    +0.008 A 
ATOM     30  C   UNL     1     -13.225  -4.140  -8.579  0.00  0.00    -0.016 A 
ATOM     31  C   UNL     1     -11.832  -4.398  -8.599  0.00  0.00    +0.003 A 
ATOM     32  C   UNL     1     -11.373  -5.677  -8.951  0.00  0.00    +0.010 A 
ATOM     33  C   UNL     1     -12.269  -6.650  -9.272  0.00  0.00    +0.001 A 
ATOM     34  C   UNL     1     -13.639  -6.396  -9.258  0.00  0.00    +0.001 A 
ATOM     35  C   UNL     1     -14.121  -5.171  -8.912  0.00  0.00    +0.008 A 
ENDBRANCH  24  26
ENDBRANCH  21  22
ENDBRANCH  14  21
BRANCH   8  36
ATOM     36  C   UNL     1      -5.324   0.301  -2.393  0.00  0.00    +0.158 C 
BRANCH  36  37
ATOM     37  C   UNL     1      -4.941   1.665  -2.906  0.00  0.00    -0.060 C 
ATOM     38  C   UNL     1      -5.216   2.002  -4.142  0.00  0.00    +0.009 C 
ATOM     39  C   UNL     1      -4.240   2.642  -1.997  0.00  0.00    +0.040 C 
ENDBRANCH  36  37
ENDBRANCH   8  36
TORSDOF 6
