REMARK  Name = ZINC39940769
REMARK  12 active torsions:
REMARK  status: ('A' for Active; 'I' for Inactive)
REMARK    1  A    between atoms: C_1  and  C_2
REMARK    2  A    between atoms: C_2  and  C_3
REMARK    3  A    between atoms: C_8  and  C_12
REMARK    4  A    between atoms: C_12  and  C_14
REMARK    5  A    between atoms: C_14  and  S_15
REMARK    6  A    between atoms: S_15  and  C_16
REMARK    7  A    between atoms: C_20  and  C_25
REMARK    8  A    between atoms: C_21  and  C_23
REMARK    9  A    between atoms: C_23  and  C_24
REMARK   10  A    between atoms: N_28  and  C_29
REMARK   11  A    between atoms: C_33  and  O_35
REMARK   12  A    between atoms: O_35  and  C_36
REMARK                            x       y       z     vdW  Elec       q    Type
REMARK                         _______ _______ _______ _____ _____    ______ ____
ROOT
ATOM      1  C   UNL     1      -7.674  -2.943  -6.378  0.00  0.00    +0.178 A 
ATOM      2  N   UNL     1      -6.732  -2.541  -7.207  0.00  0.00    -0.215 NA
ATOM      3  C   UNL     1      -7.036  -1.863  -8.307  0.00  0.00    +0.117 A 
ATOM      4  C   UNL     1      -8.365  -1.542  -8.643  0.00  0.00    +0.076 A 
ATOM      5  C   UNL     1      -8.521  -0.797  -9.881  0.00  0.00    -0.026 A 
ATOM      6  C   UNL     1      -7.431  -0.478 -10.594  0.00  0.00    -0.005 A 
ATOM      7  S   UNL     1      -6.093  -1.166  -9.638  0.00  0.00    -0.073 S 
ATOM      8  C   UNL     1      -9.891  -0.389 -10.358  0.00  0.00    +0.045 C 
ATOM      9  C   UNL     1      -9.366  -1.989  -7.724  0.00  0.00    +0.268 A 
ATOM     10  O   UNL     1     -10.544  -1.757  -7.933  0.00  0.00    -0.267 OA
ATOM     11  N   UNL     1      -8.990  -2.678  -6.631  0.00  0.00    -0.255 N 
ENDROOT
BRANCH  11  12
ATOM     12  C   UNL     1      -9.967  -3.126  -5.731  0.00  0.00    +0.055 A 
ATOM     13  C   UNL     1     -10.542  -4.380  -5.896  0.00  0.00    +0.026 A 
ATOM     14  C   UNL     1     -11.505  -4.821  -5.010  0.00  0.00    +0.006 A 
ATOM     15  C   UNL     1     -11.899  -4.017  -3.957  0.00  0.00    +0.046 A 
ATOM     16  C   UNL     1     -11.329  -2.763  -3.788  0.00  0.00    +0.122 A 
ATOM     17  C   UNL     1     -10.357  -2.320  -4.672  0.00  0.00    +0.072 A 
BRANCH  16  18
ATOM     18  O   UNL     1     -11.718  -1.973  -2.753  0.00  0.00    -0.495 OA
ATOM     19  C   UNL     1     -12.719  -2.497  -1.878  0.00  0.00    +0.277 C 
ENDBRANCH  16  18
ENDBRANCH  11  12
BRANCH   6  20
ATOM     20  C   UNL     1      -7.356   0.281 -11.894  0.00  0.00    +0.039 C 
ATOM     21  C   UNL     1      -7.216   1.777 -11.604  0.00  0.00    +0.009 C 
ENDBRANCH   6  20
BRANCH   1  22
ATOM     22  S   UNL     1      -7.230  -3.841  -4.928  0.00  0.00    -0.079 S 
BRANCH  22  23
ATOM     23  C   UNL     1      -5.421  -3.948  -5.014  0.00  0.00    +0.156 C 
BRANCH  23  24
ATOM     24  C   UNL     1      -4.905  -4.703  -3.816  0.00  0.00    +0.172 C 
ATOM     25  O   UNL     1      -5.683  -5.127  -2.984  0.00  0.00    -0.291 OA
BRANCH  24  31
ATOM     26  C   UNL     1      -0.554  -6.225  -1.892  0.00  0.00    -0.024 A 
ATOM     27  C   UNL     1      -1.113  -6.815  -0.814  0.00  0.00    +0.005 A 
ATOM     28  C   UNL     1      -2.502  -6.816  -0.604  0.00  0.00    +0.001 A 
ATOM     29  C   UNL     1      -3.366  -6.231  -1.463  0.00  0.00    +0.010 A 
ATOM     30  C   UNL     1      -2.887  -5.584  -2.626  0.00  0.00    +0.006 A 
ATOM     31  C   UNL     1      -3.519  -4.916  -3.660  0.00  0.00    +0.024 C 
ATOM     32  C   UNL     1      -2.414  -4.464  -4.588  0.00  0.00    +0.152 C 
ATOM     33  N   UNL     1      -1.161  -4.931  -3.986  0.00  0.00    -0.380 N 
ATOM     34  C   UNL     1      -1.425  -5.558  -2.875  0.00  0.00    +0.046 A 
ATOM     35  H   UNL     1      -0.275  -4.791  -4.354  0.00  0.00    +0.160 HD
BRANCH  26  37
ATOM     36  C   UNL     1       1.543  -4.955  -1.519  0.00  0.00    +0.009 C 
ATOM     37  C   UNL     1       0.941  -6.243  -2.084  0.00  0.00    +0.034 C 
ENDBRANCH  26  37
ENDBRANCH  24  31
ENDBRANCH  23  24
ENDBRANCH  22  23
ENDBRANCH   1  22
TORSDOF 8
