REMARK  Name = ZINC20568198
REMARK  10 active torsions:
REMARK  status: ('A' for Active; 'I' for Inactive)
REMARK    1  A    between atoms: C_1  and  C_2
REMARK    2  A    between atoms: C_2  and  C_30
REMARK    3  A    between atoms: C_4  and  N_10
REMARK    4  A    between atoms: C_6  and  C_8
REMARK    5  A    between atoms: C_6  and  C_9
REMARK    6  A    between atoms: N_10  and  C_11
REMARK    7  A    between atoms: N_10  and  C_19
REMARK    8  A    between atoms: C_11  and  C_12
REMARK    9  A    between atoms: C_19  and  N_21
REMARK   10  A    between atoms: N_21  and  C_22
REMARK                            x       y       z     vdW  Elec       q    Type
REMARK                         _______ _______ _______ _____ _____    ______ ____
ROOT
ATOM      1  N   UNL     1       1.265   3.180  -3.505  0.00  0.00    -0.305 N 
ENDROOT
BRANCH   1   5
ATOM      2  C   UNL     1       2.994   2.871   1.081  0.00  0.00    -0.010 C 
ATOM      3  C   UNL     1       1.887   2.339   0.144  0.00  0.00    -0.072 C 
ATOM      4  C   UNL     1       2.171   2.878  -1.255  0.00  0.00    +0.009 C 
ATOM      5  C   UNL     1       0.974   2.632  -2.174  0.00  0.00    +0.073 C 
ATOM      6  C   UNL     1      -0.243   3.350  -1.590  0.00  0.00    +0.009 C 
ATOM      7  C   UNL     1      -0.556   2.814  -0.195  0.00  0.00    -0.072 C 
ATOM      8  N   UNL     1       0.607   2.768   0.667  0.00  0.00    +0.386 N 
ATOM      9  C   UNL     1      -1.213   1.433  -0.312  0.00  0.00    -0.010 C 
ATOM     10  C   UNL     1      -1.595   3.762   0.445  0.00  0.00    -0.010 C 
ATOM     11  C   UNL     1       1.996   0.809   0.136  0.00  0.00    -0.010 C 
ATOM     12  H   UNL     1       0.301   2.099   1.485  0.00  0.00    -0.084 HD
ATOM     13  H   UNL     1       0.692   3.797   1.047  0.00  0.00    -0.084 HD
ENDBRANCH   1   5
BRANCH   1  14
ATOM     14  C   UNL     1       1.365   2.355  -4.566  0.00  0.00    +0.138 C 
ATOM     15  S   UNL     1       1.806   2.980  -6.098  0.00  0.00    -0.018 S 
BRANCH  14  16
ATOM     16  N   UNL     1       1.118   1.038  -4.421  0.00  0.00    -0.296 N 
ATOM     17  H   UNL     1       0.145   0.625  -4.723  0.00  0.00    +0.154 HD
BRANCH  16  18
ATOM     18  C   UNL     1       2.100   0.197  -3.887  0.00  0.00    +0.053 A 
ATOM     19  C   UNL     1       3.320   0.721  -3.479  0.00  0.00    +0.025 A 
ATOM     20  C   UNL     1       4.287  -0.111  -2.952  0.00  0.00    +0.003 A 
ATOM     21  C   UNL     1       4.044  -1.467  -2.829  0.00  0.00    +0.021 A 
ATOM     22  C   UNL     1       2.831  -1.994  -3.234  0.00  0.00    +0.061 A 
ATOM     23  C   UNL     1       1.855  -1.165  -3.758  0.00  0.00    +0.080 A 
ATOM     24 CL   UNL     1       0.330  -1.825  -4.260  0.00  0.00    -0.080 Cl
ATOM     25 CL   UNL     1       2.530  -3.697  -3.078  0.00  0.00    -0.082 Cl
ENDBRANCH  16  18
ENDBRANCH  14  16
ENDBRANCH   1  14
BRANCH   1  26
ATOM     26  C   UNL     1       1.447   4.623  -3.679  0.00  0.00    +0.142 C 
BRANCH  26  27
ATOM     27  C   UNL     1       2.902   4.972  -3.495  0.00  0.00    -0.030 A 
ATOM     28  C   UNL     1       3.348   5.452  -2.278  0.00  0.00    +0.008 A 
ATOM     29  C   UNL     1       4.683   5.768  -2.107  0.00  0.00    +0.038 A 
ATOM     30  C   UNL     1       5.571   5.613  -3.157  0.00  0.00    +0.123 A 
ATOM     31  C   UNL     1       5.121   5.137  -4.378  0.00  0.00    +0.038 A 
ATOM     32  C   UNL     1       3.787   4.817  -4.545  0.00  0.00    +0.008 A 
ATOM     33  F   UNL     1       6.874   5.926  -2.992  0.00  0.00    -0.205 F 
ENDBRANCH  26  27
ENDBRANCH   1  26
TORSDOF 6
