REMARK  Name = ZINC43253689
REMARK  8 active torsions:
REMARK  status: ('A' for Active; 'I' for Inactive)
REMARK    1  A    between atoms: C_1  and  C_2
REMARK    2  A    between atoms: C_2  and  C_4
REMARK    3  A    between atoms: C_2  and  N_21
REMARK    4  A    between atoms: C_4  and  C_6
REMARK    5  A    between atoms: C_4  and  N_12
REMARK    6  A    between atoms: N_12  and  C_13
REMARK    7  A    between atoms: N_12  and  C_14
REMARK    8  A    between atoms: C_14  and  C_15
REMARK                            x       y       z     vdW  Elec       q    Type
REMARK                         _______ _______ _______ _____ _____    ______ ____
ROOT
ATOM      1  C   UNL     1       0.833  -0.503   1.161  0.00  0.00    +0.079 C 
ENDROOT
BRANCH   1   2
ATOM      2  C   UNL     1      -0.164  -0.240   2.260  0.00  0.00    +0.007 A 
ATOM      3  C   UNL     1      -0.917  -1.125   2.958  0.00  0.00    +0.014 A 
ATOM      4  C   UNL     1      -1.776  -0.651   3.933  0.00  0.00    +0.028 A 
ATOM      5  C   UNL     1      -1.839   0.684   4.161  0.00  0.00    +0.078 A 
ATOM      6  S   UNL     1      -0.655   1.316   2.983  0.00  0.00    -0.080 S 
ATOM      7 CL   UNL     1      -2.813   1.553   5.306  0.00  0.00    -0.076 Cl
ENDBRANCH   1   2
BRANCH   1   9
ATOM      8  C   UNL     1      -0.125   1.305  -0.271  0.00  0.00    -0.012 C 
ATOM      9  C   UNL     1       0.196  -0.189  -0.193  0.00  0.00    -0.056 C 
BRANCH   9  10
ATOM     10  N   UNL     1      -1.043  -0.964  -0.343  0.00  0.00    +0.381 N 
ATOM     11  H   UNL     1      -0.832  -1.949  -0.291  0.00  0.00    -0.090 HD
ATOM     12  H   UNL     1      -1.685  -0.719   0.396  0.00  0.00    -0.090 HD
ATOM     13  H   UNL     1      -1.464  -0.756  -1.236  0.00  0.00    -0.090 HD
ENDBRANCH   9  10
ENDBRANCH   1   9
BRANCH   1  14
ATOM     14  N   UNL     1       2.013   0.350   1.357  0.00  0.00    -0.295 NA
ATOM     15  C   UNL     1       2.978   0.174   0.263  0.00  0.00    +0.105 C 
BRANCH  14  16
ATOM     16  C   UNL     1       2.641   0.089   2.659  0.00  0.00    +0.127 C 
BRANCH  16  17
ATOM     17  C   UNL     1       3.688   1.139   2.931  0.00  0.00    +0.005 A 
ATOM     18  C   UNL     1       3.556   2.333   3.560  0.00  0.00    +0.027 A 
ATOM     19  C   UNL     1       4.667   3.144   3.697  0.00  0.00    +0.025 A 
ATOM     20  C   UNL     1       5.855   2.722   3.199  0.00  0.00    +0.060 A 
ATOM     21  S   UNL     1       5.424   1.130   2.516  0.00  0.00    -0.099 S 
ATOM     22 BR   UNL     1       4.532   4.818   4.567  0.00  0.00    -0.050 Br
ENDBRANCH  16  17
ENDBRANCH  14  16
ENDBRANCH   1  14
TORSDOF 6
