REMARK  Name = ZINC59170562
REMARK  7 active torsions:
REMARK  status: ('A' for Active; 'I' for Inactive)
REMARK    1  A    between atoms: C_1  and  O_2
REMARK    2  A    between atoms: O_2  and  C_3
REMARK    3  A    between atoms: N_11  and  C_12
REMARK    4  A    between atoms: C_15  and  S_18
REMARK    5  A    between atoms: S_18  and  N_21
REMARK    6  A    between atoms: C_22  and  C_24
REMARK    7  A    between atoms: N_26  and  C_27
REMARK                            x       y       z     vdW  Elec       q    Type
REMARK                         _______ _______ _______ _____ _____    ______ ____
ROOT
ATOM      1  C   UNL     1      -1.404  -0.800  -0.051  0.00  0.00    +0.163 A 
ATOM      2  C   UNL     1      -2.530  -0.196  -0.585  0.00  0.00    +0.049 A 
ATOM      3  C   UNL     1      -3.522  -0.957  -1.186  0.00  0.00    +0.004 A 
ATOM      4  C   UNL     1      -3.402  -2.326  -1.260  0.00  0.00    +0.012 A 
ATOM      5  C   UNL     1      -2.272  -2.954  -0.723  0.00  0.00    +0.022 A 
ATOM      6  C   UNL     1      -1.262  -2.183  -0.121  0.00  0.00    +0.179 A 
ATOM      7  O   UNL     1      -0.161  -2.790   0.387  0.00  0.00    -0.435 OA
ATOM      8  C   UNL     1      -0.303  -4.072   0.809  0.00  0.00    +0.212 A 
ATOM      9  N   UNL     1       0.272  -4.489   1.916  0.00  0.00    -0.325 N 
ATOM     10  C   UNL     1      -1.124  -4.984  -0.013  0.00  0.00    +0.098 A 
ATOM     11  C   UNL     1      -2.125  -4.411  -0.781  0.00  0.00    +0.030 A 
ATOM     12  H   UNL     1       0.066  -5.370   2.268  0.00  0.00    +0.169 HD
ENDROOT
BRANCH   9  13
ATOM     13  C   UNL     1       1.159  -3.682   2.572  0.00  0.00    +0.042 A 
ATOM     14  C   UNL     1       2.140  -2.991   1.857  0.00  0.00    +0.027 A 
ATOM     15  C   UNL     1       3.032  -2.178   2.526  0.00  0.00    +0.030 A 
ATOM     16  C   UNL     1       2.956  -2.046   3.901  0.00  0.00    +0.105 A 
ATOM     17  C   UNL     1       1.987  -2.728   4.616  0.00  0.00    +0.030 A 
ATOM     18  C   UNL     1       1.085  -3.539   3.960  0.00  0.00    +0.027 A 
BRANCH  16  19
ATOM     19  S   UNL     1       4.100  -1.006   4.746  0.00  0.00    +0.056 S 
ATOM     20  O   UNL     1       4.165  -1.478   6.085  0.00  0.00    -0.153 OA
ATOM     21  O   UNL     1       5.250  -0.908   3.917  0.00  0.00    -0.153 OA
BRANCH  19  22
ATOM     22  N   UNL     1       3.431   0.507   4.810  0.00  0.00    -0.204 NA
ATOM     23  H   UNL     1       3.638   1.098   5.551  0.00  0.00    +0.144 HD
ATOM     24  H   UNL     1       2.833   0.803   4.106  0.00  0.00    +0.144 HD
ENDBRANCH  19  22
ENDBRANCH  16  19
ENDBRANCH   9  13
BRANCH  10  25
ATOM     25  C   UNL     1      -0.895  -6.439  -0.007  0.00  0.00    +0.253 C 
ATOM     26  O   UNL     1      -1.652  -7.176  -0.610  0.00  0.00    -0.270 OA
ATOM     27  N   UNL     1       0.153  -6.954   0.665  0.00  0.00    -0.280 N 
ATOM     28  H   UNL     1       0.730  -6.371   1.185  0.00  0.00    +0.155 HD
BRANCH  27  29
ATOM     29  C   UNL     1       0.410  -8.328   0.615  0.00  0.00    +0.052 A 
ATOM     30  C   UNL     1      -0.601  -9.212   0.263  0.00  0.00    +0.025 A 
ATOM     31  C   UNL     1      -0.345 -10.568   0.214  0.00  0.00    +0.002 A 
ATOM     32  C   UNL     1       0.917 -11.047   0.516  0.00  0.00    +0.002 A 
ATOM     33  C   UNL     1       1.927 -10.170   0.867  0.00  0.00    +0.022 A 
ATOM     34  C   UNL     1       1.679  -8.811   0.911  0.00  0.00    +0.062 A 
ATOM     35 CL   UNL     1       2.949  -7.709   1.345  0.00  0.00    -0.082 Cl
ENDBRANCH  27  29
ENDBRANCH  10  25
BRANCH   1  37
ATOM     36  C   UNL     1      -0.652   1.368   0.571  0.00  0.00    +0.277 C 
ATOM     37  O   UNL     1      -0.438  -0.044   0.535  0.00  0.00    -0.491 OA
ENDBRANCH   1  37
TORSDOF 6
