REMARK  Name = ZINC08456342
REMARK  5 active torsions:
REMARK  status: ('A' for Active; 'I' for Inactive)
REMARK    1  A    between atoms: C_4  and  C_7
REMARK    2  A    between atoms: C_7  and  O_8
REMARK    3  A    between atoms: O_8  and  C_9
REMARK    4  A    between atoms: C_14  and  C_15
REMARK    5  A    between atoms: N_16  and  N_17
REMARK                            x       y       z     vdW  Elec       q    Type
REMARK                         _______ _______ _______ _____ _____    ______ ____
ROOT
ATOM      1  N   UNL     1       2.867  -0.719  -4.949  0.00  0.00    -0.205 N 
ATOM      2  C   UNL     1       1.825   0.174  -4.797  0.00  0.00    +0.241 A 
ATOM      3  N   UNL     1       1.492   0.606  -3.584  0.00  0.00    -0.180 NA
ATOM      4  C   UNL     1       0.491   1.469  -3.438  0.00  0.00    +0.224 A 
ATOM      5  N   UNL     1      -0.182   1.893  -4.504  0.00  0.00    -0.181 NA
ATOM      6  C   UNL     1       0.148   1.457  -5.715  0.00  0.00    +0.224 A 
ATOM      7  N   UNL     1       1.152   0.598  -5.862  0.00  0.00    -0.180 NA
ATOM      8  N   UNL     1      -0.551   1.897  -6.821  0.00  0.00    -0.299 N 
ATOM      9  C   UNL     1      -1.988   1.633  -6.674  0.00  0.00    +0.108 C 
ATOM     10  C   UNL     1      -2.746   2.261  -7.846  0.00  0.00    +0.019 C 
ATOM     11  C   UNL     1      -2.231   1.665  -9.159  0.00  0.00    +0.003 C 
ATOM     12  C   UNL     1      -0.723   1.911  -9.265  0.00  0.00    +0.019 C 
ATOM     13  C   UNL     1      -0.024   1.293  -8.052  0.00  0.00    +0.108 C 
ATOM     14  N   UNL     1       0.149   1.922  -2.180  0.00  0.00    -0.299 N 
ATOM     15  C   UNL     1      -0.101   3.369  -2.192  0.00  0.00    +0.108 C 
ATOM     16  C   UNL     1      -0.618   3.809  -0.820  0.00  0.00    +0.019 C 
ATOM     17  C   UNL     1       0.422   3.460   0.248  0.00  0.00    +0.003 C 
ATOM     18  C   UNL     1       0.700   1.955   0.206  0.00  0.00    +0.019 C 
ATOM     19  C   UNL     1       1.179   1.568  -1.195  0.00  0.00    +0.108 C 
ATOM     20  H   UNL     1       2.803  -1.433  -5.603  0.00  0.00    +0.177 HD
ENDROOT
BRANCH   1  22
ATOM     21  C   UNL     1       4.966  -1.476  -4.251  0.00  0.00    +0.142 C 
ATOM     22  N   UNL     1       4.018  -0.594  -4.160  0.00  0.00    -0.187 NA
BRANCH  21  28
ATOM     23  C   UNL     1       6.657   0.197  -3.504  0.00  0.00    +0.130 A 
ATOM     24  C   UNL     1       7.950   0.515  -3.123  0.00  0.00    +0.046 A 
ATOM     25  C   UNL     1       8.925  -0.464  -3.092  0.00  0.00    +0.004 A 
ATOM     26  C   UNL     1       8.618  -1.769  -3.439  0.00  0.00    +0.001 A 
ATOM     27  C   UNL     1       7.335  -2.103  -3.820  0.00  0.00    +0.013 A 
ATOM     28  C   UNL     1       6.340  -1.124  -3.850  0.00  0.00    +0.036 A 
BRANCH  23  29
ATOM     29  O   UNL     1       5.699   1.158  -3.535  0.00  0.00    -0.487 OA
BRANCH  29  30
ATOM     30  C   UNL     1       6.117   2.499  -3.273  0.00  0.00    +0.264 C 
BRANCH  30  34
ATOM     31  C   UNL     1       2.683   5.010  -2.876  0.00  0.00    +0.000 A 
ATOM     32  C   UNL     1       2.957   4.400  -4.086  0.00  0.00    +0.000 A 
ATOM     33  C   UNL     1       4.068   3.587  -4.214  0.00  0.00    +0.007 A 
ATOM     34  C   UNL     1       4.905   3.385  -3.133  0.00  0.00    -0.010 A 
ATOM     35  C   UNL     1       4.631   3.995  -1.923  0.00  0.00    +0.007 A 
ATOM     36  C   UNL     1       3.520   4.807  -1.795  0.00  0.00    +0.000 A 
ENDBRANCH  30  34
ENDBRANCH  29  30
ENDBRANCH  23  29
ENDBRANCH  21  28
ENDBRANCH   1  22
TORSDOF 5
