REMARK  Name = ZINC16587305
REMARK  15 active torsions:
REMARK  status: ('A' for Active; 'I' for Inactive)
REMARK    1  A    between atoms: C_1  and  C_2
REMARK    2  A    between atoms: C_2  and  O_3
REMARK    3  A    between atoms: O_3  and  C_4
REMARK    4  A    between atoms: C_4  and  C_6
REMARK    5  A    between atoms: C_7  and  C_31
REMARK    6  A    between atoms: C_8  and  C_27
REMARK    7  A    between atoms: C_10  and  N_11
REMARK    8  A    between atoms: C_12  and  C_14
REMARK    9  A    between atoms: C_14  and  N_57
REMARK   10  A    between atoms: C_15  and  N_57
REMARK   11  A    between atoms: C_16  and  C_17
REMARK   12  A    between atoms: C_16  and  N_57
REMARK   13  A    between atoms: C_20  and  O_23
REMARK   14  A    between atoms: O_23  and  C_24
REMARK   15  A    between atoms: N_29  and  C_30
REMARK                            x       y       z     vdW  Elec       q    Type
REMARK                         _______ _______ _______ _____ _____    ______ ____
ROOT
ATOM      1  N   UNL     1       0.520  -5.837  -3.176  0.00  0.00    -0.281 N 
ATOM      2  C   UNL     1       0.750  -4.541  -2.886  0.00  0.00    +0.201 C 
ATOM      3  O   UNL     1       0.758  -3.714  -3.772  0.00  0.00    -0.278 OA
ATOM      4  H   UNL     1       0.513  -6.499  -2.467  0.00  0.00    +0.155 HD
ENDROOT
BRANCH   1   9
ATOM      5  C   UNL     1       0.040  -7.505  -4.982  0.00  0.00    +0.091 A 
ATOM      6  C   UNL     1      -0.156  -7.637  -6.349  0.00  0.00    -0.015 A 
ATOM      7  C   UNL     1      -0.087  -6.505  -7.114  0.00  0.00    +0.079 A 
ATOM      8  S   UNL     1       0.249  -5.236  -5.907  0.00  0.00    -0.068 S 
ATOM      9  C   UNL     1       0.294  -6.223  -4.483  0.00  0.00    +0.087 A 
ATOM     10  C   UNL     1      -0.435  -8.982  -6.970  0.00  0.00    +0.046 C 
BRANCH   7  11
ATOM     11  C   UNL     1      -0.253  -6.368  -8.562  0.00  0.00    +0.251 C 
ATOM     12  O   UNL     1      -0.486  -7.350  -9.243  0.00  0.00    -0.270 OA
ATOM     13  N   UNL     1      -0.148  -5.156  -9.142  0.00  0.00    -0.314 N 
ATOM     14  C   UNL     1      -0.315  -5.019 -10.591  0.00  0.00    +0.128 C 
ATOM     15  H   UNL     1       0.038  -4.374  -8.599  0.00  0.00    +0.149 HD
ENDBRANCH   7  11
BRANCH   5  16
ATOM     16  C   UNL     1      -0.017  -8.668  -4.091  0.00  0.00    +0.342 C 
ATOM     17  O   UNL     1      -1.074  -8.998  -3.588  0.00  0.00    -0.245 OA
BRANCH  16  18
ATOM     18  O   UNL     1       1.103  -9.373  -3.829  0.00  0.00    -0.461 OA
BRANCH  18  20
ATOM     19  C   UNL     1       2.336 -11.181  -2.763  0.00  0.00    +0.048 C 
ATOM     20  C   UNL     1       0.972 -10.512  -2.939  0.00  0.00    +0.229 C 
ENDBRANCH  18  20
ENDBRANCH  16  18
ENDBRANCH   5  16
ENDBRANCH   1   9
BRANCH   2  21
ATOM     21  C   UNL     1       0.996  -4.121  -1.460  0.00  0.00    +0.019 C 
BRANCH  21  23
ATOM     22  C   UNL     1       2.460  -2.302  -2.100  0.00  0.00    -0.095 C 
ATOM     23  N   UNL     1       1.196  -2.657  -1.422  0.00  0.00    +0.386 N 
ATOM     24  H   UNL     1       0.416  -2.201  -1.910  0.00  0.00    -0.081 HD
BRANCH  23  25
ATOM     25  C   UNL     1       1.226  -2.187  -0.021  0.00  0.00    -0.043 C 
BRANCH  25  26
ATOM     26  C   UNL     1       1.208  -0.680  -0.013  0.00  0.00    -0.064 A 
ATOM     27  C   UNL     1       0.002  -0.004   0.002  0.00  0.00    +0.005 A 
ATOM     28  C   UNL     1      -0.017   1.377   0.010  0.00  0.00    +0.046 A 
ATOM     29  C   UNL     1       1.176   2.086   0.002  0.00  0.00    +0.127 A 
ATOM     30  C   UNL     1       2.385   1.405  -0.013  0.00  0.00    +0.046 A 
ATOM     31  C   UNL     1       2.398   0.024  -0.021  0.00  0.00    +0.005 A 
BRANCH  29  32
ATOM     32  O   UNL     1       1.160   3.445   0.009  0.00  0.00    -0.434 OA
BRANCH  32  33
ATOM     33  C   UNL     1       2.426   4.108   0.001  0.00  0.00    +0.541 C 
ATOM     34  F   UNL     1       3.156   3.735   1.134  0.00  0.00    -0.166 F 
ATOM     35  F   UNL     1       3.134   3.747  -1.150  0.00  0.00    -0.166 F 
ENDBRANCH  32  33
ENDBRANCH  29  32
ENDBRANCH  25  26
ENDBRANCH  23  25
ENDBRANCH  21  23
ENDBRANCH   2  21
TORSDOF 11
