REMARK  Name = ZINC39704648
REMARK  7 active torsions:
REMARK  status: ('A' for Active; 'I' for Inactive)
REMARK    1  A    between atoms: C_6  and  C_7
REMARK    2  A    between atoms: C_9  and  S_13
REMARK    3  A    between atoms: S_13  and  C_14
REMARK    4  A    between atoms: C_14  and  C_15
REMARK    5  A    between atoms: N_17  and  C_18
REMARK    6  A    between atoms: C_20  and  C_27
REMARK    7  A    between atoms: C_22  and  C_24
REMARK                            x       y       z     vdW  Elec       q    Type
REMARK                         _______ _______ _______ _____ _____    ______ ____
ROOT
ATOM      1  C   UNL     1      -3.059  -2.909   4.187  0.00  0.00    +0.227 C 
ATOM      2  O   UNL     1      -3.538  -4.023   4.200  0.00  0.00    -0.275 OA
ATOM      3  N   UNL     1      -2.800  -2.274   5.347  0.00  0.00    -0.285 N 
ATOM      4  H   UNL     1      -2.356  -1.411   5.339  0.00  0.00    +0.155 HD
ENDROOT
BRANCH   3   5
ATOM      5  C   UNL     1      -3.171  -2.858   6.564  0.00  0.00    +0.035 A 
ATOM      6  C   UNL     1      -3.105  -4.235   6.718  0.00  0.00    +0.038 A 
ATOM      7  C   UNL     1      -3.475  -4.822   7.931  0.00  0.00    +0.066 A 
ATOM      8  C   UNL     1      -3.911  -4.023   8.987  0.00  0.00    +0.030 A 
ATOM      9  C   UNL     1      -3.976  -2.639   8.828  0.00  0.00    +0.066 A 
ATOM     10  C   UNL     1      -3.599  -2.059   7.613  0.00  0.00    +0.038 A 
BRANCH   9  11
ATOM     11  C   UNL     1      -4.437  -1.788   9.941  0.00  0.00    +0.387 C 
ATOM     12  O   UNL     1      -4.763  -2.296  11.005  0.00  0.00    -0.241 OA
ATOM     13  O   UNL     1      -4.494  -0.575   9.801  0.00  0.00    -0.241 OA
ENDBRANCH   9  11
BRANCH   7  14
ATOM     14  C   UNL     1      -3.404  -6.287   8.094  0.00  0.00    +0.387 C 
ATOM     15  O   UNL     1      -3.022  -6.988   7.168  0.00  0.00    -0.241 OA
ATOM     16  O   UNL     1      -3.728  -6.801   9.156  0.00  0.00    -0.241 OA
ENDBRANCH   7  14
ENDBRANCH   3   5
BRANCH   1  17
ATOM     17  C   UNL     1      -2.754  -2.235   2.874  0.00  0.00    +0.169 C 
BRANCH  17  18
ATOM     18  S   UNL     1      -3.211  -3.337   1.508  0.00  0.00    -0.102 S 
BRANCH  18  21
ATOM     19  C   UNL     1      -1.245  -0.780   0.013  0.00  0.00    +0.087 C 
ATOM     20  N   UNL     1      -1.353  -2.077   0.013  0.00  0.00    -0.245 NA
ATOM     21  C   UNL     1      -2.787  -2.390   0.020  0.00  0.00    +0.281 C 
ATOM     22  N   UNL     1      -3.487  -1.100   0.024  0.00  0.00    -0.253 NA
ATOM     23  C   UNL     1      -2.591  -0.173   0.025  0.00  0.00    +0.136 C 
BRANCH  19  29
ATOM     24  C   UNL     1       0.023   1.366   0.013  0.00  0.00    +0.011 A 
ATOM     25  C   UNL     1       1.214   2.061   0.008  0.00  0.00    +0.016 A 
ATOM     26  C   UNL     1       2.418   1.376  -0.004  0.00  0.00    +0.018 A 
ATOM     27  C   UNL     1       2.433  -0.008  -0.010  0.00  0.00    +0.016 A 
ATOM     28  C   UNL     1       1.247  -0.714  -0.005  0.00  0.00    +0.011 A 
ATOM     29  C   UNL     1       0.032  -0.029   0.007  0.00  0.00    +0.002 A 
ATOM     30 BR   UNL     1       4.047   2.336  -0.012  0.00  0.00    -0.050 Br
ENDBRANCH  19  29
ENDBRANCH  18  21
ENDBRANCH  17  18
ENDBRANCH   1  17
TORSDOF 7
