REMARK  Name = ZINC00845613
REMARK  7 active torsions:
REMARK  status: ('A' for Active; 'I' for Inactive)
REMARK    1  A    between atoms: C_1  and  C_2
REMARK    2  A    between atoms: C_3  and  C_17
REMARK    3  A    between atoms: C_4  and  C_10
REMARK    4  A    between atoms: C_13  and  O_16
REMARK    5  A    between atoms: N_19  and  C_20
REMARK    6  A    between atoms: C_23  and  O_26
REMARK    7  A    between atoms: O_26  and  C_27
REMARK                            x       y       z     vdW  Elec       q    Type
REMARK                         _______ _______ _______ _____ _____    ______ ____
ROOT
ATOM      1  C   UNL     1       0.168   4.472  -0.771  0.00  0.00    +0.061 C 
ATOM      2  C   UNL     1      -0.063   3.136  -0.113  0.00  0.00    +0.017 C 
ATOM      3  C   UNL     1      -1.309   2.795   0.277  0.00  0.00    +0.056 C 
ATOM      4  C   UNL     1      -1.497   1.440   0.929  0.00  0.00    +0.139 C 
ATOM      5  N   UNL     1      -0.295   0.606   1.095  0.00  0.00    -0.315 N 
ATOM      6  C   UNL     1       0.884   1.086   0.653  0.00  0.00    +0.135 C 
ATOM      7  S   UNL     1       2.290   0.125   0.833  0.00  0.00    -0.019 S 
ATOM      8  N   UNL     1       0.993   2.291   0.078  0.00  0.00    -0.300 N 
ATOM      9  H   UNL     1      -0.351  -0.270   1.508  0.00  0.00    +0.149 HD
ATOM     10  H   UNL     1       1.870   2.579  -0.219  0.00  0.00    +0.154 HD
ENDROOT
BRANCH   4  11
ATOM     11  C   UNL     1      -2.098   1.665   2.292  0.00  0.00    -0.022 A 
ATOM     12  C   UNL     1      -1.298   2.089   3.337  0.00  0.00    +0.009 A 
ATOM     13  C   UNL     1      -1.848   2.301   4.587  0.00  0.00    +0.046 A 
ATOM     14  C   UNL     1      -3.201   2.078   4.795  0.00  0.00    +0.117 A 
ATOM     15  C   UNL     1      -4.000   1.647   3.747  0.00  0.00    +0.046 A 
ATOM     16  C   UNL     1      -3.447   1.442   2.498  0.00  0.00    +0.009 A 
BRANCH  14  17
ATOM     17  O   UNL     1      -3.743   2.282   6.025  0.00  0.00    -0.507 OA
ATOM     18  H   UNL     1      -3.729   1.501   6.595  0.00  0.00    +0.292 HD
ENDBRANCH  14  17
ENDBRANCH   4  11
BRANCH   3  19
ATOM     19  C   UNL     1      -2.404   3.671   0.079  0.00  0.00    +0.248 C 
ATOM     20  O   UNL     1      -3.203   3.454  -0.814  0.00  0.00    -0.270 OA
ATOM     21  N   UNL     1      -2.562   4.744   0.880  0.00  0.00    -0.282 N 
ATOM     22  H   UNL     1      -1.886   4.959   1.541  0.00  0.00    +0.155 HD
BRANCH  21  23
ATOM     23  C   UNL     1      -3.701   5.548   0.756  0.00  0.00    +0.034 A 
ATOM     24  C   UNL     1      -4.261   5.772  -0.495  0.00  0.00    +0.027 A 
ATOM     25  C   UNL     1      -5.388   6.561  -0.616  0.00  0.00    +0.047 A 
ATOM     26  C   UNL     1      -5.955   7.138   0.510  0.00  0.00    +0.120 A 
ATOM     27  C   UNL     1      -5.393   6.920   1.760  0.00  0.00    +0.047 A 
ATOM     28  C   UNL     1      -4.269   6.127   1.883  0.00  0.00    +0.027 A 
BRANCH  26  29
ATOM     29  O   UNL     1      -7.061   7.919   0.390  0.00  0.00    -0.495 OA
ATOM     30  C   UNL     1      -7.587   8.101  -0.926  0.00  0.00    +0.277 C 
ENDBRANCH  26  29
ENDBRANCH  21  23
ENDBRANCH   3  19
TORSDOF 5
