REMARK  Name = ZINC36273729
REMARK  8 active torsions:
REMARK  status: ('A' for Active; 'I' for Inactive)
REMARK    1  A    between atoms: C_4  and  C_7
REMARK    2  A    between atoms: C_7  and  C_8
REMARK    3  A    between atoms: C_8  and  N_9
REMARK    4  A    between atoms: C_10  and  C_12
REMARK    5  A    between atoms: C_12  and  O_13
REMARK    6  A    between atoms: O_13  and  C_14
REMARK    7  A    between atoms: C_21  and  C_23
REMARK    8  A    between atoms: C_26  and  N_29
REMARK                            x       y       z     vdW  Elec       q    Type
REMARK                         _______ _______ _______ _____ _____    ______ ____
ROOT
ATOM      1  C   UNL     1       8.973  -3.647   4.028  0.00  0.00    +0.162 A 
ATOM      2  C   UNL     1       9.696  -4.046   2.942  0.00  0.00    +0.051 A 
ATOM      3  C   UNL     1      10.911  -4.725   3.127  0.00  0.00    +0.022 A 
ATOM      4  C   UNL     1      11.364  -4.985   4.371  0.00  0.00    +0.093 A 
ATOM      5  N   UNL     1      10.652  -4.592   5.470  0.00  0.00    -0.305 N 
ATOM      6  C   UNL     1       9.466  -3.921   5.325  0.00  0.00    +0.159 A 
ATOM      7  N   UNL     1       8.989  -3.653   6.532  0.00  0.00    -0.337 N 
ATOM      8  C   UNL     1       9.838  -4.128   7.455  0.00  0.00    +0.065 A 
ATOM      9  C   UNL     1      10.880  -4.726   6.811  0.00  0.00    +0.119 A 
ATOM     10  H   UNL     1       8.158  -3.188   6.717  0.00  0.00    +0.167 HD
ENDROOT
BRANCH   8  11
ATOM     11  C   UNL     1       9.667  -4.030   8.926  0.00  0.00    -0.000 A 
ATOM     12  C   UNL     1       8.540  -3.405   9.457  0.00  0.00    +0.012 A 
ATOM     13  C   UNL     1       8.383  -3.315  10.824  0.00  0.00    +0.023 A 
ATOM     14  C   UNL     1       9.347  -3.848  11.672  0.00  0.00    +0.025 A 
ATOM     15  C   UNL     1      10.471  -4.472  11.144  0.00  0.00    +0.023 A 
ATOM     16  C   UNL     1      10.630  -4.568   9.778  0.00  0.00    +0.012 A 
BRANCH  14  17
ATOM     17  N   UNL     1       9.185  -3.756  13.056  0.00  0.00    -0.358 N 
ATOM     18  H   UNL     1       8.401  -3.320  13.425  0.00  0.00    +0.142 HD
ATOM     19  H   UNL     1       9.858  -4.127  13.649  0.00  0.00    +0.142 HD
ENDBRANCH  14  17
ENDBRANCH   8  11
BRANCH   1  20
ATOM     20  O   UNL     1       7.795  -2.988   3.865  0.00  0.00    -0.479 OA
BRANCH  20  21
ATOM     21  C   UNL     1       7.365  -2.749   2.524  0.00  0.00    +0.324 C 
BRANCH  21  23
ATOM     22  N   UNL     1       5.450  -1.678   1.382  0.00  0.00    -0.312 N 
ATOM     23  C   UNL     1       6.050  -2.013   2.541  0.00  0.00    +0.251 C 
ATOM     24  O   UNL     1       5.532  -1.722   3.599  0.00  0.00    -0.272 OA
ATOM     25  H   UNL     1       5.864  -1.911   0.536  0.00  0.00    +0.149 HD
BRANCH  22  26
ATOM     26  C   UNL     1       4.171  -0.963   1.399  0.00  0.00    +0.109 C 
BRANCH  26  27
ATOM     27  C   UNL     1       3.711  -0.707  -0.038  0.00  0.00    +0.054 C 
BRANCH  27  31
ATOM     28  C   UNL     1      -0.017   1.378   0.010  0.00  0.00    +0.000 A 
ATOM     29  C   UNL     1       1.171   2.086   0.002  0.00  0.00    +0.000 A 
ATOM     30  C   UNL     1       2.377   1.411  -0.013  0.00  0.00    +0.004 A 
ATOM     31  C   UNL     1       2.396   0.029  -0.020  0.00  0.00    -0.046 A 
ATOM     32  C   UNL     1       1.208  -0.679  -0.012  0.00  0.00    +0.004 A 
ATOM     33  C   UNL     1       0.002  -0.004   0.002  0.00  0.00    +0.000 A 
ENDBRANCH  27  31
ENDBRANCH  26  27
ENDBRANCH  22  26
ENDBRANCH  21  23
ENDBRANCH  20  21
ENDBRANCH   1  20
TORSDOF 8
