REMARK  Name = ZINC64623137
REMARK  7 active torsions:
REMARK  status: ('A' for Active; 'I' for Inactive)
REMARK    1  A    between atoms: C_1  and  O_2
REMARK    2  A    between atoms: O_2  and  C_3
REMARK    3  A    between atoms: C_6  and  C_9
REMARK    4  A    between atoms: N_27  and  C_28
REMARK    5  A    between atoms: C_32  and  C_34
REMARK    6  A    between atoms: C_34  and  O_36
REMARK    7  A    between atoms: O_36  and  C_37
REMARK                            x       y       z     vdW  Elec       q    Type
REMARK                         _______ _______ _______ _____ _____    ______ ____
ROOT
ATOM      1  C   UNL     1      -5.493  -3.355  -0.546  0.00  0.00    +0.134 C 
ATOM      2  C   UNL     1      -5.531  -4.191  -1.830  0.00  0.00    +0.131 C 
ATOM      3  C   UNL     1      -4.215  -4.957  -1.889  0.00  0.00    -0.035 C 
ATOM      4  C   UNL     1      -3.651  -4.646  -3.050  0.00  0.00    +0.001 A 
ATOM      5  C   UNL     1      -2.417  -5.119  -3.697  0.00  0.00    +0.030 A 
ATOM      6  C   UNL     1      -2.126  -4.571  -4.907  0.00  0.00    +0.042 A 
ATOM      7  C   UNL     1      -2.931  -3.610  -5.530  0.00  0.00    +0.022 A 
ATOM      8  C   UNL     1      -4.085  -3.122  -5.009  0.00  0.00    +0.027 A 
ATOM      9  C   UNL     1      -4.498  -3.626  -3.741  0.00  0.00    +0.043 A 
ATOM     10  N   UNL     1      -5.574  -3.348  -3.026  0.00  0.00    -0.375 N 
ATOM     11 CL   UNL     1      -0.682  -5.088  -5.720  0.00  0.00    -0.084 Cl
ATOM     12  C   UNL     1      -3.722  -5.809  -0.745  0.00  0.00    +0.052 C 
ATOM     13  C   UNL     1      -3.798  -4.936   0.522  0.00  0.00    +0.114 C 
ATOM     14  N   UNL     1      -5.089  -4.240   0.558  0.00  0.00    -0.276 N 
ATOM     15  C   UNL     1      -5.913  -4.414   1.610  0.00  0.00    +0.307 C 
ATOM     16  O   UNL     1      -7.022  -3.914   1.603  0.00  0.00    -0.252 OA
ATOM     17  N   UNL     1      -5.508  -5.141   2.671  0.00  0.00    -0.269 N 
ATOM     18  H   UNL     1      -4.608  -5.502   2.696  0.00  0.00    +0.156 HD
ATOM     19  H   UNL     1      -6.267  -2.704  -3.242  0.00  0.00    +0.160 HD
ENDROOT
BRANCH   1  23
ATOM     20  C   UNL     1      -2.662  -0.182  -0.965  0.00  0.00    +0.120 A 
ATOM     21  C   UNL     1      -3.944   0.086  -0.505  0.00  0.00    +0.046 A 
ATOM     22  C   UNL     1      -4.857  -0.941  -0.371  0.00  0.00    +0.009 A 
ATOM     23  C   UNL     1      -4.495  -2.236  -0.694  0.00  0.00    -0.024 A 
ATOM     24  C   UNL     1      -3.219  -2.506  -1.152  0.00  0.00    +0.009 A 
ATOM     25  C   UNL     1      -2.304  -1.481  -1.294  0.00  0.00    +0.046 A 
BRANCH  20  27
ATOM     26  C   UNL     1      -2.201   2.140  -0.742  0.00  0.00    +0.277 C 
ATOM     27  O   UNL     1      -1.762   0.828  -1.099  0.00  0.00    -0.495 OA
ENDBRANCH  20  27
ENDBRANCH   1  23
BRANCH  17  28
ATOM     28  C   UNL     1      -6.386  -5.375   3.735  0.00  0.00    +0.036 A 
ATOM     29  C   UNL     1      -7.356  -4.432   4.056  0.00  0.00    +0.023 A 
ATOM     30  C   UNL     1      -8.226  -4.658   5.106  0.00  0.00    +0.003 A 
ATOM     31  C   UNL     1      -8.137  -5.821   5.844  0.00  0.00    +0.015 A 
ATOM     32  C   UNL     1      -7.166  -6.774   5.530  0.00  0.00    +0.061 A 
ATOM     33  C   UNL     1      -6.292  -6.548   4.466  0.00  0.00    +0.038 A 
BRANCH  32  34
ATOM     34  C   UNL     1      -7.068  -8.019   6.319  0.00  0.00    +0.339 C 
ATOM     35  O   UNL     1      -6.223  -8.847   6.044  0.00  0.00    -0.245 OA
BRANCH  34  36
ATOM     36  O   UNL     1      -7.917  -8.237   7.343  0.00  0.00    -0.464 OA
ATOM     37  C   UNL     1      -7.764  -9.463   8.062  0.00  0.00    +0.280 C 
ENDBRANCH  34  36
ENDBRANCH  32  34
ENDBRANCH  17  28
TORSDOF 5
