REMARK  Name = ZINC22262737
REMARK  7 active torsions:
REMARK  status: ('A' for Active; 'I' for Inactive)
REMARK    1  A    between atoms: C_1  and  C_2
REMARK    2  A    between atoms: C_8  and  C_10
REMARK    3  A    between atoms: C_10  and  S_11
REMARK    4  A    between atoms: S_11  and  C_12
REMARK    5  A    between atoms: C_12  and  C_13
REMARK    6  A    between atoms: N_15  and  C_16
REMARK    7  A    between atoms: C_17  and  O_22
REMARK                            x       y       z     vdW  Elec       q    Type
REMARK                         _______ _______ _______ _____ _____    ______ ____
ROOT
ATOM      1  C   UNL     1       2.492  -4.209  -0.043  0.00  0.00    +0.165 C 
ENDROOT
BRANCH   1   2
ATOM      2  C   UNL     1       2.452  -2.702  -0.035  0.00  0.00    +0.228 C 
ATOM      3  O   UNL     1       3.486  -2.068  -0.042  0.00  0.00    -0.275 OA
ATOM      4  N   UNL     1       1.268  -2.059  -0.021  0.00  0.00    -0.268 N 
ATOM      5  H   UNL     1       0.330  -2.634  -0.014  0.00  0.00    +0.156 HD
BRANCH   4   6
ATOM      6  C   UNL     1       1.231  -0.664  -0.013  0.00  0.00    +0.145 A 
ATOM      7  C   UNL     1       0.002  -0.004   0.002  0.00  0.00    +0.155 A 
ATOM      8  C   UNL     1      -0.017   1.383   0.009  0.00  0.00    +0.050 A 
ATOM      9  C   UNL     1       1.195   2.061   0.001  0.00  0.00    +0.021 A 
ATOM     10  C   UNL     1       2.373   1.342  -0.014  0.00  0.00    +0.084 A 
ATOM     11  N   UNL     1       2.362   0.022  -0.021  0.00  0.00    -0.347 N 
ATOM     12  H   UNL     1       3.326  -0.508  -0.033  0.00  0.00    +0.167 HD
BRANCH   7  13
ATOM     13  O   UNL     1      -1.160  -0.710   0.010  0.00  0.00    -0.503 OA
ATOM     14  H   UNL     1      -2.125  -0.181   0.022  0.00  0.00    +0.292 HD
ENDBRANCH   7  13
ENDBRANCH   4   6
ENDBRANCH   1   2
BRANCH   1  15
ATOM     15  S   UNL     1       4.217  -4.768  -0.063  0.00  0.00    -0.142 S 
BRANCH  15  16
ATOM     16  C   UNL     1       4.091  -6.578  -0.071  0.00  0.00    +0.165 C 
BRANCH  16  24
ATOM     17  C   UNL     1      10.571  -9.165  -0.146  0.00  0.00    +0.089 C 
ATOM     18  C   UNL     1       9.075  -9.347  -0.133  0.00  0.00    +0.136 A 
ATOM     19  C   UNL     1       8.142  -8.368  -0.119  0.00  0.00    +0.091 A 
ATOM     20  C   UNL     1       6.908  -9.071  -0.111  0.00  0.00    +0.168 A 
ATOM     21  N   UNL     1       7.212 -10.342  -0.114  0.00  0.00    -0.063 NA
ATOM     22  O   UNL     1       8.409 -10.511  -0.132  0.00  0.00    -0.358 OA
ATOM     23  N   UNL     1       5.628  -8.516  -0.096  0.00  0.00    -0.267 N 
ATOM     24  C   UNL     1       5.474  -7.177  -0.087  0.00  0.00    +0.228 C 
ATOM     25  O   UNL     1       6.448  -6.455  -0.093  0.00  0.00    -0.275 OA
ATOM     26  H   UNL     1       4.744  -9.171  -0.090  0.00  0.00    +0.156 HD
ENDBRANCH  16  24
ENDBRANCH  15  16
ENDBRANCH   1  15
TORSDOF 6
