REMARK  Name = ZINC14245951
REMARK  8 active torsions:
REMARK  status: ('A' for Active; 'I' for Inactive)
REMARK    1  A    between atoms: C_1  and  C_2
REMARK    2  A    between atoms: C_2  and  C_4
REMARK    3  A    between atoms: C_2  and  N_57
REMARK    4  A    between atoms: N_6  and  C_7
REMARK    5  A    between atoms: C_10  and  S_13
REMARK    6  A    between atoms: S_13  and  N_16
REMARK    7  A    between atoms: N_20  and  S_23
REMARK    8  A    between atoms: S_23  and  C_26
REMARK                            x       y       z     vdW  Elec       q    Type
REMARK                         _______ _______ _______ _____ _____    ______ ____
ROOT
ATOM      1  C   UNL     1       1.671  -4.775  -1.034  0.00  0.00    -0.004 C 
ATOM      2  C   UNL     1       2.492  -4.046   0.031  0.00  0.00    +0.016 C 
ENDROOT
BRANCH   2   9
ATOM      3  C   UNL     1       4.646  -3.849  -1.044  0.00  0.00    -0.076 C 
ATOM      4  C   UNL     1       6.068  -3.657  -0.565  0.00  0.00    -0.001 C 
ATOM      5  C   UNL     1       6.933  -4.844  -1.022  0.00  0.00    +0.107 C 
ATOM      6  N   UNL     1       6.200  -6.120  -0.898  0.00  0.00    -0.178 NA
ATOM      7  C   UNL     1       5.368  -6.431   0.245  0.00  0.00    +0.091 C 
ATOM      8  C   UNL     1       3.922  -5.944  -0.014  0.00  0.00    -0.060 C 
ATOM      9  N   UNL     1       3.885  -4.504   0.060  0.00  0.00    +0.388 N 
ATOM     10  H   UNL     1       4.307  -4.221   0.952  0.00  0.00    -0.081 HD
BRANCH   6  11
ATOM     11  S   UNL     1       6.335  -7.237  -2.113  0.00  0.00    +0.061 S 
ATOM     12  O   UNL     1       7.563  -6.969  -2.777  0.00  0.00    -0.153 OA
ATOM     13  O   UNL     1       6.042  -8.502  -1.536  0.00  0.00    -0.153 OA
BRANCH  11  14
ATOM     14  C   UNL     1       5.052  -6.902  -3.274  0.00  0.00    +0.106 A 
ATOM     15  C   UNL     1       3.820  -7.513  -3.135  0.00  0.00    +0.031 A 
ATOM     16  C   UNL     1       2.811  -7.247  -4.042  0.00  0.00    +0.040 A 
ATOM     17  C   UNL     1       3.039  -6.378  -5.095  0.00  0.00    +0.124 A 
ATOM     18  C   UNL     1       4.275  -5.771  -5.236  0.00  0.00    +0.040 A 
ATOM     19  C   UNL     1       5.281  -6.034  -4.325  0.00  0.00    +0.031 A 
ATOM     20  F   UNL     1       2.055  -6.122  -5.985  0.00  0.00    -0.205 F 
ENDBRANCH  11  14
ENDBRANCH   6  11
ENDBRANCH   2   9
BRANCH   2  21
ATOM     21  C   UNL     1       1.900  -4.312   1.391  0.00  0.00    +0.203 C 
ATOM     22  O   UNL     1       2.479  -5.035   2.174  0.00  0.00    -0.277 OA
ATOM     23  N   UNL     1       0.727  -3.746   1.738  0.00  0.00    -0.287 N 
ATOM     24  H   UNL     1       0.234  -3.218   1.091  0.00  0.00    +0.155 HD
BRANCH  23  25
ATOM     25  C   UNL     1       0.222  -3.921   3.031  0.00  0.00    +0.033 A 
ATOM     26  C   UNL     1      -0.472  -2.890   3.652  0.00  0.00    +0.025 A 
ATOM     27  C   UNL     1      -0.970  -3.066   4.928  0.00  0.00    +0.030 A 
ATOM     28  C   UNL     1      -0.779  -4.266   5.587  0.00  0.00    +0.105 A 
ATOM     29  C   UNL     1      -0.089  -5.294   4.972  0.00  0.00    +0.030 A 
ATOM     30  C   UNL     1       0.412  -5.125   3.696  0.00  0.00    +0.025 A 
BRANCH  28  31
ATOM     31  S   UNL     1      -1.416  -4.486   7.215  0.00  0.00    +0.056 S 
ATOM     32  O   UNL     1      -0.633  -5.503   7.824  0.00  0.00    -0.153 OA
ATOM     33  O   UNL     1      -1.549  -3.188   7.778  0.00  0.00    -0.153 OA
BRANCH  31  34
ATOM     34  N   UNL     1      -2.949  -5.095   7.063  0.00  0.00    -0.204 NA
ATOM     35  H   UNL     1      -3.310  -5.676   7.751  0.00  0.00    +0.144 HD
ATOM     36  H   UNL     1      -3.485  -4.871   6.287  0.00  0.00    +0.144 HD
ENDBRANCH  31  34
ENDBRANCH  28  31
ENDBRANCH  23  25
ENDBRANCH   2  21
TORSDOF 7
