REMARK  Name = ZINC48276844
REMARK  8 active torsions:
REMARK  status: ('A' for Active; 'I' for Inactive)
REMARK    1  A    between atoms: C_1  and  C_2
REMARK    2  A    between atoms: C_6  and  C_16
REMARK    3  A    between atoms: C_7  and  N_8
REMARK    4  A    between atoms: N_8  and  S_9
REMARK    5  A    between atoms: S_9  and  C_12
REMARK    6  A    between atoms: C_12  and  C_13
REMARK    7  A    between atoms: C_13  and  C_14
REMARK    8  A    between atoms: C_14  and  N_15
REMARK                            x       y       z     vdW  Elec       q    Type
REMARK                         _______ _______ _______ _____ _____    ______ ____
ROOT
ATOM      1  N   UNL     1      -0.120  -0.048   2.389  0.00  0.00    -0.220 N 
ATOM      2  H   UNL     1      -0.281   0.909   2.381  0.00  0.00    +0.173 HD
ENDROOT
BRANCH   1   9
ATOM      3  C   UNL     1       2.248   0.408   0.879  0.00  0.00    +0.046 C 
ATOM      4  C   UNL     1       1.178  -0.547   0.416  0.00  0.00    -0.027 A 
ATOM      5  C   UNL     1       1.333  -1.236  -0.771  0.00  0.00    +0.020 A 
ATOM      6  C   UNL     1       0.351  -2.112  -1.198  0.00  0.00    +0.018 A 
ATOM      7  C   UNL     1      -0.789  -2.301  -0.437  0.00  0.00    +0.020 A 
ATOM      8  C   UNL     1      -0.950  -1.615   0.751  0.00  0.00    -0.027 A 
ATOM      9  C   UNL     1       0.037  -0.739   1.184  0.00  0.00    +0.054 A 
ATOM     10  C   UNL     1      -2.192  -1.820   1.579  0.00  0.00    +0.046 C 
ATOM     11 BR   UNL     1       0.567  -3.053  -2.824  0.00  0.00    -0.050 Br
ENDBRANCH   1   9
BRANCH   1  12
ATOM     12  S   UNL     1      -0.032  -0.861   3.828  0.00  0.00    +0.043 S 
ATOM     13  O   UNL     1      -0.280   0.126   4.819  0.00  0.00    -0.155 OA
ATOM     14  O   UNL     1      -0.908  -1.969   3.673  0.00  0.00    -0.155 OA
BRANCH  12  15
ATOM     15  C   UNL     1       1.686  -1.435   3.934  0.00  0.00    +0.187 C 
BRANCH  15  16
ATOM     16  C   UNL     1       1.919  -2.100   5.293  0.00  0.00    +0.005 C 
BRANCH  16  17
ATOM     17  C   UNL     1       3.368  -2.583   5.382  0.00  0.00    -0.085 C 
BRANCH  17  18
ATOM     18  N   UNL     1       3.591  -3.222   6.686  0.00  0.00    +0.378 N 
ATOM     19  H   UNL     1       3.413  -2.555   7.422  0.00  0.00    -0.090 HD
ATOM     20  H   UNL     1       2.967  -4.008   6.787  0.00  0.00    -0.090 HD
ATOM     21  H   UNL     1       4.546  -3.540   6.745  0.00  0.00    -0.090 HD
ENDBRANCH  17  18
ENDBRANCH  16  17
ENDBRANCH  15  16
ENDBRANCH  12  15
ENDBRANCH   1  12
TORSDOF 6
