REMARK  Name = ZINC40589514
REMARK  3 active torsions:
REMARK  status: ('A' for Active; 'I' for Inactive)
REMARK    1  A    between atoms: C_3  and  N_10
REMARK    2  A    between atoms: C_6  and  C_7
REMARK    3  A    between atoms: N_13  and  C_14
REMARK                            x       y       z     vdW  Elec       q    Type
REMARK                         _______ _______ _______ _____ _____    ______ ____
ROOT
ATOM      1  N   UNL     1       3.507   2.069  -1.270  0.00  0.00    -0.297 N 
ATOM      2  C   UNL     1       4.164   2.213  -2.438  0.00  0.00    +0.300 C 
ATOM      3  O   UNL     1       3.615   1.922  -3.483  0.00  0.00    -0.253 OA
ATOM      4  N   UNL     1       5.428   2.680  -2.447  0.00  0.00    -0.296 N 
ATOM      5  H   UNL     1       3.945   2.301  -0.436  0.00  0.00    +0.151 HD
ATOM      6  H   UNL     1       5.866   2.912  -1.614  0.00  0.00    +0.151 HD
ENDROOT
BRANCH   1   9
ATOM      7  C   UNL     1      -0.019   1.526   0.010  0.00  0.00    +0.016 C 
ATOM      8  C   UNL     1       1.417   2.055  -0.000  0.00  0.00    +0.023 C 
ATOM      9  C   UNL     1       2.133   1.562  -1.259  0.00  0.00    +0.074 C 
ATOM     10  C   UNL     1       2.154   0.032  -1.268  0.00  0.00    +0.023 C 
ATOM     11  C   UNL     1       0.718  -0.497  -1.257  0.00  0.00    +0.016 C 
ATOM     12  C   UNL     1       0.002  -0.004   0.002  0.00  0.00    +0.102 C 
BRANCH  12  13
ATOM     13  C   UNL     1      -1.412  -0.526   0.013  0.00  0.00    +0.359 C 
ATOM     14  O   UNL     1      -1.672  -1.592  -0.518  0.00  0.00    -0.246 OA
ATOM     15  O   UNL     1      -2.295   0.118   0.553  0.00  0.00    -0.246 OA
ENDBRANCH  12  13
ENDBRANCH   1   9
BRANCH   4  16
ATOM     16  C   UNL     1       6.141   2.836  -3.717  0.00  0.00    +0.079 C 
ATOM     17  C   UNL     1       6.796   1.507  -4.105  0.00  0.00    +0.050 C 
ATOM     18  C   UNL     1       7.604   1.700  -5.391  0.00  0.00    +0.161 C 
ATOM     19  O   UNL     1       8.577   2.727  -5.191  0.00  0.00    -0.380 OA
ATOM     20  C   UNL     1       8.020   4.004  -4.873  0.00  0.00    +0.161 C 
ATOM     21  C   UNL     1       7.229   3.904  -3.566  0.00  0.00    +0.050 C 
ENDBRANCH   4  16
TORSDOF 3
