REMARK  Name = ZINC19502183
REMARK  11 active torsions:
REMARK  status: ('A' for Active; 'I' for Inactive)
REMARK    1  A    between atoms: C_1  and  C_2
REMARK    2  A    between atoms: C_2  and  C_3
REMARK    3  A    between atoms: C_3  and  C_4
REMARK    4  A    between atoms: C_4  and  C_5
REMARK    5  A    between atoms: C_5  and  C_31
REMARK    6  A    between atoms: C_10  and  C_13
REMARK    7  A    between atoms: C_16  and  O_19
REMARK    8  A    between atoms: N_22  and  C_25
REMARK    9  A    between atoms: C_31  and  O_33
REMARK   10  A    between atoms: O_33  and  C_34
REMARK   11  A    between atoms: C_34  and  C_35
REMARK                            x       y       z     vdW  Elec       q    Type
REMARK                         _______ _______ _______ _____ _____    ______ ____
ROOT
ATOM      1  C   UNL     1       1.527  -2.578   2.414  0.00  0.00    +0.129 C 
ATOM      2  C   UNL     1       1.478  -4.116   2.524  0.00  0.00    +0.120 C 
ATOM      3  C   UNL     1       1.299  -4.403   4.039  0.00  0.00    +0.111 C 
ATOM      4  C   UNL     1       1.272  -3.011   4.704  0.00  0.00    +0.097 C 
ATOM      5  N   UNL     1       0.814  -2.091   3.623  0.00  0.00    -0.293 NA
ATOM      6  C   UNL     1      -0.074  -5.032   4.115  0.00  0.00    +0.232 C 
ATOM      7  O   UNL     1      -0.614  -5.414   5.131  0.00  0.00    -0.274 OA
ATOM      8  N   UNL     1      -0.599  -5.103   2.886  0.00  0.00    -0.210 N 
ATOM      9  C   UNL     1       0.194  -4.619   1.903  0.00  0.00    +0.232 C 
ATOM     10  O   UNL     1      -0.072  -4.586   0.721  0.00  0.00    -0.274 OA
ATOM     11  H   UNL     1       1.067  -1.138   3.833  0.00  0.00    +0.124 HD
ENDROOT
BRANCH   4  12
ATOM     12  C   UNL     1       0.287  -2.992   5.844  0.00  0.00    -0.029 A 
ATOM     13  C   UNL     1      -1.064  -2.850   5.587  0.00  0.00    +0.009 A 
ATOM     14  C   UNL     1      -1.969  -2.833   6.630  0.00  0.00    +0.046 A 
ATOM     15  C   UNL     1      -1.522  -2.958   7.937  0.00  0.00    +0.117 A 
ATOM     16  C   UNL     1      -0.166  -3.101   8.193  0.00  0.00    +0.046 A 
ATOM     17  C   UNL     1       0.735  -3.123   7.146  0.00  0.00    +0.009 A 
BRANCH  15  18
ATOM     18  O   UNL     1      -2.410  -2.941   8.965  0.00  0.00    -0.507 OA
ATOM     19  H   UNL     1      -2.749  -3.813   9.207  0.00  0.00    +0.292 HD
ENDBRANCH  15  18
ENDBRANCH   4  12
BRANCH   8  20
ATOM     20  C   UNL     1      -1.868  -5.642   2.634  0.00  0.00    +0.044 A 
ATOM     21  C   UNL     1      -2.896  -4.823   2.186  0.00  0.00    +0.024 A 
ATOM     22  C   UNL     1      -4.145  -5.357   1.939  0.00  0.00    +0.002 A 
ATOM     23  C   UNL     1      -4.373  -6.707   2.137  0.00  0.00    +0.000 A 
ATOM     24  C   UNL     1      -3.352  -7.525   2.583  0.00  0.00    +0.002 A 
ATOM     25  C   UNL     1      -2.099  -6.998   2.827  0.00  0.00    +0.024 A 
ENDBRANCH   8  20
BRANCH   1  26
ATOM     26  C   UNL     1       2.955  -2.094   2.417  0.00  0.00    +0.328 C 
ATOM     27  O   UNL     1       3.838  -2.817   2.022  0.00  0.00    -0.249 OA
BRANCH  26  28
ATOM     28  O   UNL     1       3.244  -0.861   2.860  0.00  0.00    -0.464 OA
BRANCH  28  29
ATOM     29  C   UNL     1       4.618  -0.468   2.834  0.00  0.00    +0.229 C 
ATOM     30  C   UNL     1       4.751   0.958   3.371  0.00  0.00    +0.048 C 
ENDBRANCH  28  29
ENDBRANCH  26  28
ENDBRANCH   1  26
BRANCH   1  31
ATOM     31  C   UNL     1       0.810  -2.111   1.147  0.00  0.00    +0.034 C 
BRANCH  31  32
ATOM     32  C   UNL     1       0.800  -0.581   1.101  0.00  0.00    +0.002 C 
BRANCH  32  34
ATOM     33  C   UNL     1       0.073   1.415  -0.213  0.00  0.00    +0.004 C 
ATOM     34  C   UNL     1       0.082  -0.114  -0.167  0.00  0.00    -0.003 C 
ENDBRANCH  32  34
ENDBRANCH  31  32
ENDBRANCH   1  31
TORSDOF 9
