REMARK  Name = ZINC34749363
REMARK  9 active torsions:
REMARK  status: ('A' for Active; 'I' for Inactive)
REMARK    1  A    between atoms: C_1  and  C_2
REMARK    2  A    between atoms: C_2  and  C_3
REMARK    3  A    between atoms: C_4  and  C_37
REMARK    4  A    between atoms: N_10  and  C_28
REMARK    5  A    between atoms: N_16  and  C_19
REMARK    6  A    between atoms: C_19  and  C_20
REMARK    7  A    between atoms: C_28  and  C_29
REMARK    8  A    between atoms: C_31  and  C_36
REMARK    9  A    between atoms: C_34  and  C_35
REMARK                            x       y       z     vdW  Elec       q    Type
REMARK                         _______ _______ _______ _____ _____    ______ ____
ROOT
ATOM      1  C   UNL     1       1.060  -0.713  -1.822  0.00  0.00    -0.023 A 
ATOM      2  C   UNL     1       0.607  -0.744  -3.084  0.00  0.00    -0.007 A 
ATOM      3  S   UNL     1       2.058  -1.154  -4.035  0.00  0.00    -0.073 S 
ATOM      4  C   UNL     1       3.232  -1.272  -2.709  0.00  0.00    +0.117 A 
ATOM      5  C   UNL     1       2.464  -0.983  -1.565  0.00  0.00    +0.076 A 
ATOM      6  C   UNL     1       3.170  -1.002  -0.321  0.00  0.00    +0.264 A 
ATOM      7  O   UNL     1       2.587  -0.768   0.723  0.00  0.00    -0.267 OA
ATOM      8  N   UNL     1       4.487  -1.280  -0.320  0.00  0.00    -0.276 N 
ATOM      9  C   UNL     1       5.156  -1.544  -1.478  0.00  0.00    +0.202 A 
ATOM     10  N   UNL     1       4.529  -1.544  -2.636  0.00  0.00    -0.208 NA
ATOM     11  N   UNL     1       6.499  -1.823  -1.436  0.00  0.00    -0.304 N 
ATOM     12  C   UNL     1       7.061  -2.955  -2.190  0.00  0.00    +0.089 C 
ATOM     13  C   UNL     1       8.258  -2.450  -3.002  0.00  0.00    -0.059 C 
ATOM     14  N   UNL     1       9.212  -1.787  -2.105  0.00  0.00    +0.387 N 
ATOM     15  C   UNL     1       8.599  -0.588  -1.520  0.00  0.00    -0.059 C 
ATOM     16  C   UNL     1       7.419  -0.997  -0.639  0.00  0.00    +0.089 C 
ATOM     17  C   UNL     1      -0.794  -0.493  -3.579  0.00  0.00    +0.052 C 
ATOM     18  H   UNL     1       9.476  -2.422  -1.367  0.00  0.00    -0.081 HD
ENDROOT
BRANCH   1  20
ATOM     19  C   UNL     1       0.105   1.117  -0.447  0.00  0.00    +0.009 C 
ATOM     20  C   UNL     1       0.124  -0.395  -0.684  0.00  0.00    +0.033 C 
ENDBRANCH   1  20
BRANCH  14  21
ATOM     21  C   UNL     1      10.409  -1.401  -2.865  0.00  0.00    +0.019 C 
BRANCH  21  22
ATOM     22  C   UNL     1      11.439  -0.832  -1.924  0.00  0.00    +0.199 C 
ATOM     23  O   UNL     1      11.200  -0.754  -0.738  0.00  0.00    -0.278 OA
ATOM     24  N   UNL     1      12.627  -0.408  -2.401  0.00  0.00    -0.303 N 
ATOM     25  C   UNL     1      12.928  -0.489  -3.837  0.00  0.00    +0.107 C 
ATOM     26  C   UNL     1      13.362   0.895  -4.329  0.00  0.00    +0.019 C 
ATOM     27  C   UNL     1      14.525   1.396  -3.470  0.00  0.00    +0.003 C 
ATOM     28  C   UNL     1      14.069   1.521  -2.014  0.00  0.00    +0.019 C 
ATOM     29  C   UNL     1      13.641   0.150  -1.497  0.00  0.00    +0.107 C 
ENDBRANCH  21  22
ENDBRANCH  14  21
BRANCH   8  30
ATOM     30  C   UNL     1       5.215  -1.301   0.951  0.00  0.00    +0.163 C 
BRANCH  30  31
ATOM     31  C   UNL     1       4.631  -2.362   1.848  0.00  0.00    -0.024 A 
ATOM     32  C   UNL     1       3.829  -2.001   2.914  0.00  0.00    +0.009 A 
ATOM     33  C   UNL     1       3.293  -2.975   3.736  0.00  0.00    -0.050 A 
ATOM     34  C   UNL     1       3.560  -4.309   3.492  0.00  0.00    +0.003 A 
ATOM     35  C   UNL     1       4.361  -4.670   2.426  0.00  0.00    +0.004 A 
ATOM     36  C   UNL     1       4.893  -3.696   1.601  0.00  0.00    -0.046 A 
ATOM     37  C   UNL     1       5.763  -4.090   0.434  0.00  0.00    +0.044 C 
ATOM     38  C   UNL     1       2.419  -2.581   4.899  0.00  0.00    +0.044 C 
ENDBRANCH  30  31
ENDBRANCH   8  30
TORSDOF 5
