REMARK  Name = ZINC32664847
REMARK  8 active torsions:
REMARK  status: ('A' for Active; 'I' for Inactive)
REMARK    1  A    between atoms: C_1  and  C_2
REMARK    2  A    between atoms: C_7  and  N_8
REMARK    3  A    between atoms: C_11  and  C_16
REMARK    4  A    between atoms: C_16  and  N_17
REMARK    5  A    between atoms: N_17  and  C_18
REMARK    6  A    between atoms: N_17  and  C_25
REMARK    7  A    between atoms: C_18  and  C_19
REMARK    8  A    between atoms: C_25  and  C_26
REMARK                            x       y       z     vdW  Elec       q    Type
REMARK                         _______ _______ _______ _____ _____    ______ ____
ROOT
ATOM      1  N   UNL     1       0.930   3.443  -0.312  0.00  0.00    -0.283 N 
ATOM      2  C   UNL     1       0.962   2.087  -0.572  0.00  0.00    +0.224 A 
ATOM      3  N   UNL     1      -0.097   1.330  -0.295  0.00  0.00    -0.201 NA
ATOM      4  C   UNL     1      -0.068   0.033  -0.544  0.00  0.00    +0.120 A 
ATOM      5  N   UNL     1       1.013  -0.519  -1.068  0.00  0.00    -0.202 NA
ATOM      6  C   UNL     1       2.076   0.231  -1.347  0.00  0.00    +0.217 A 
ATOM      7  N   UNL     1       2.050   1.536  -1.099  0.00  0.00    -0.181 NA
ATOM      8  N   UNL     1       3.204  -0.346  -1.894  0.00  0.00    -0.327 N 
ATOM      9  H   UNL     1      -0.004   3.917   0.026  0.00  0.00    +0.155 HD
ATOM     10  H   UNL     1       4.083   0.275  -2.125  0.00  0.00    +0.145 HD
ATOM     11  H   UNL     1       3.225  -1.426  -2.099  0.00  0.00    +0.145 HD
ENDROOT
BRANCH   1  18
ATOM     12  C   UNL     1       0.672   6.276  -0.263  0.00  0.00    +0.045 C 
ATOM     13  C   UNL     1       2.005   5.600  -0.460  0.00  0.00    -0.029 A 
ATOM     14  C   UNL     1       3.147   6.359  -0.623  0.00  0.00    +0.005 A 
ATOM     15  C   UNL     1       4.370   5.740  -0.803  0.00  0.00    +0.000 A 
ATOM     16  C   UNL     1       4.454   4.359  -0.820  0.00  0.00    +0.002 A 
ATOM     17  C   UNL     1       3.316   3.595  -0.653  0.00  0.00    +0.023 A 
ATOM     18  C   UNL     1       2.085   4.214  -0.477  0.00  0.00    +0.036 A 
ENDBRANCH   1  18
BRANCH   4  19
ATOM     19  C   UNL     1      -1.270  -0.821  -0.229  0.00  0.00    -0.000 C 
BRANCH  19  20
ATOM     20  N   UNL     1      -2.211  -0.776  -1.356  0.00  0.00    +0.392 N 
ATOM     21  H   UNL     1      -2.432   0.281  -1.570  0.00  0.00    -0.080 HD
BRANCH  20  22
ATOM     22  C   UNL     1      -1.616  -1.366  -2.562  0.00  0.00    -0.042 C 
BRANCH  22  23
ATOM     23  C   UNL     1      -2.503  -1.085  -3.748  0.00  0.00    -0.064 A 
ATOM     24  C   UNL     1      -3.502  -1.977  -4.091  0.00  0.00    +0.002 A 
ATOM     25  C   UNL     1      -4.318  -1.717  -5.176  0.00  0.00    +0.000 A 
ATOM     26  C   UNL     1      -4.129  -0.570  -5.924  0.00  0.00    +0.000 A 
ATOM     27  C   UNL     1      -3.126   0.319  -5.585  0.00  0.00    +0.000 A 
ATOM     28  C   UNL     1      -2.313   0.061  -4.497  0.00  0.00    +0.002 A 
ENDBRANCH  22  23
ENDBRANCH  20  22
BRANCH  20  29
ATOM     29  C   UNL     1      -3.475  -1.440  -1.012  0.00  0.00    -0.002 C 
BRANCH  29  30
ATOM     30  C   UNL     1      -4.276  -0.553  -0.094  0.00  0.00    +0.089 A 
ATOM     31  C   UNL     1      -5.242   0.303  -0.471  0.00  0.00    +0.042 A 
ATOM     32  C   UNL     1      -5.721   0.924   0.705  0.00  0.00    +0.041 A 
ATOM     33  C   UNL     1      -5.020   0.410   1.731  0.00  0.00    +0.195 A 
ATOM     34  O   UNL     1      -4.149  -0.488   1.242  0.00  0.00    -0.470 OA
ENDBRANCH  29  30
ENDBRANCH  20  29
ENDBRANCH  19  20
ENDBRANCH   4  19
TORSDOF 7
