REMARK  Name = ZINC04570070
REMARK  3 active torsions:
REMARK  status: ('A' for Active; 'I' for Inactive)
REMARK    1  A    between atoms: C_1  and  C_2
REMARK    2  A    between atoms: N_8  and  S_9
REMARK    3  A    between atoms: S_9  and  C_12
REMARK                            x       y       z     vdW  Elec       q    Type
REMARK                         _______ _______ _______ _____ _____    ______ ____
ROOT
ATOM      1  C   UNL     1       0.122   0.795   3.656  0.00  0.00    +0.106 A 
ATOM      2  C   UNL     1      -0.874   1.748   3.496  0.00  0.00    +0.034 A 
ATOM      3  C   UNL     1      -1.805   1.962   4.484  0.00  0.00    -0.024 A 
ATOM      4  C   UNL     1      -1.692   1.182   5.635  0.00  0.00    +0.043 A 
ATOM      5  C   UNL     1      -0.698   0.227   5.798  0.00  0.00    -0.015 A 
ATOM      6  C   UNL     1       0.230   0.011   4.803  0.00  0.00    +0.034 A 
ATOM      7  C   UNL     1      -0.941  -0.370   7.149  0.00  0.00    +0.133 C 
ATOM      8  C   UNL     1      -2.163   0.371   7.676  0.00  0.00    +0.224 C 
ATOM      9  O   UNL     1      -2.701   0.194   8.748  0.00  0.00    -0.275 OA
ATOM     10  N   UNL     1      -2.536   1.256   6.739  0.00  0.00    -0.271 N 
ATOM     11  C   UNL     1      -3.651   2.220   6.757  0.00  0.00    +0.114 C 
ATOM     12  C   UNL     1      -3.280   3.405   5.858  0.00  0.00    +0.024 C 
ATOM     13  C   UNL     1      -2.929   2.954   4.436  0.00  0.00    +0.038 C 
ENDROOT
BRANCH   1  14
ATOM     14  S   UNL     1       1.290   0.564   2.357  0.00  0.00    +0.061 S 
ATOM     15  O   UNL     1       2.380  -0.158   2.915  0.00  0.00    -0.153 OA
ATOM     16  O   UNL     1       1.455   1.828   1.729  0.00  0.00    -0.153 OA
BRANCH  14  23
ATOM     17  C   UNL     1       1.418  -2.248   2.658  0.00  0.00    +0.026 C 
ATOM     18  C   UNL     1       0.576  -1.889   1.432  0.00  0.00    +0.077 C 
ATOM     19  C   UNL     1       1.167  -2.560   0.189  0.00  0.00    +0.020 C 
ATOM     20  C   UNL     1       0.405  -2.087  -1.052  0.00  0.00    +0.003 C 
ATOM     21  C   UNL     1       0.561  -0.572  -1.201  0.00  0.00    +0.017 C 
ATOM     22  C   UNL     1      -0.037   0.122   0.027  0.00  0.00    +0.110 C 
ATOM     23  N   UNL     1       0.586  -0.432   1.237  0.00  0.00    -0.174 NA
ENDBRANCH  14  23
ENDBRANCH   1  14
TORSDOF 2
