REMARK  Name = ZINC42615311
REMARK  11 active torsions:
REMARK  status: ('A' for Active; 'I' for Inactive)
REMARK    1  A    between atoms: C_1  and  C_2
REMARK    2  A    between atoms: C_2  and  C_4
REMARK    3  A    between atoms: C_2  and  N_7
REMARK    4  A    between atoms: N_7  and  C_8
REMARK    5  A    between atoms: N_7  and  C_12
REMARK    6  A    between atoms: C_8  and  C_9
REMARK    7  A    between atoms: C_9  and  O_10
REMARK    8  A    between atoms: O_10  and  C_11
REMARK    9  A    between atoms: C_12  and  C_14
REMARK   10  A    between atoms: C_12  and  C_16
REMARK   11  A    between atoms: C_14  and  N_15
REMARK                            x       y       z     vdW  Elec       q    Type
REMARK                         _______ _______ _______ _____ _____    ______ ____
ROOT
ATOM      1  C   UNL     1      -3.117  -0.915  -0.852  0.00  0.00    +0.073 C 
ENDROOT
BRANCH   1   2
ATOM      2  C   UNL     1      -4.556  -1.102  -0.443  0.00  0.00    +0.004 A 
ATOM      3  C   UNL     1      -4.878  -1.290   0.888  0.00  0.00    +0.023 A 
ATOM      4  C   UNL     1      -6.198  -1.461   1.263  0.00  0.00    +0.018 A 
ATOM      5  C   UNL     1      -7.197  -1.445   0.306  0.00  0.00    +0.018 A 
ATOM      6  C   UNL     1      -6.877  -1.258  -1.025  0.00  0.00    +0.040 A 
ATOM      7  C   UNL     1      -5.556  -1.081  -1.401  0.00  0.00    +0.128 A 
ATOM      8  F   UNL     1      -5.242  -0.892  -2.701  0.00  0.00    -0.205 F 
ATOM      9 BR   UNL     1      -6.637  -1.718   3.084  0.00  0.00    -0.050 Br
ENDBRANCH   1   2
BRANCH   1  10
ATOM     10  N   UNL     1      -2.317  -0.551   0.325  0.00  0.00    -0.292 NA
BRANCH  10  12
ATOM     11  C   UNL     1      -1.376   0.989  -1.330  0.00  0.00    +0.024 C 
ATOM     12  C   UNL     1      -1.099   0.168  -0.068  0.00  0.00    +0.057 C 
BRANCH  12  13
ATOM     13  C   UNL     1      -0.670   1.103   1.064  0.00  0.00    +0.006 C 
ATOM     14  C   UNL     1      -0.644   2.604   0.770  0.00  0.00    +0.005 C 
ATOM     15  C   UNL     1       0.667   1.830   0.912  0.00  0.00    +0.005 C 
ENDBRANCH  12  13
ENDBRANCH  10  12
BRANCH  10  16
ATOM     16  C   UNL     1      -1.992  -1.738   1.128  0.00  0.00    +0.113 C 
BRANCH  16  17
ATOM     17  C   UNL     1      -1.571  -1.302   2.534  0.00  0.00    +0.175 C 
BRANCH  17  18
ATOM     18  O   UNL     1      -2.640  -0.581   3.149  0.00  0.00    -0.382 OA
ATOM     19  C   UNL     1      -2.349  -0.127   4.473  0.00  0.00    +0.194 C 
ENDBRANCH  17  18
ENDBRANCH  16  17
ENDBRANCH  10  16
ENDBRANCH   1  10
BRANCH   1  20
ATOM     20  C   UNL     1      -2.583  -2.219  -1.448  0.00  0.00    -0.062 C 
BRANCH  20  21
ATOM     21  N   UNL     1      -1.175  -2.043  -1.829  0.00  0.00    +0.379 N 
ATOM     22  H   UNL     1      -0.620  -1.888  -1.000  0.00  0.00    -0.090 HD
ATOM     23  H   UNL     1      -0.848  -2.872  -2.302  0.00  0.00    -0.090 HD
ATOM     24  H   UNL     1      -1.090  -1.248  -2.444  0.00  0.00    -0.090 HD
ENDBRANCH  20  21
ENDBRANCH   1  20
TORSDOF 9
