REMARK  Name = ZINC38547868
REMARK  10 active torsions:
REMARK  status: ('A' for Active; 'I' for Inactive)
REMARK    1  A    between atoms: C_1  and  C_2
REMARK    2  A    between atoms: C_2  and  C_3
REMARK    3  A    between atoms: C_5  and  C_16
REMARK    4  A    between atoms: C_6  and  N_8
REMARK    5  A    between atoms: C_9  and  C_11
REMARK    6  A    between atoms: C_16  and  C_18
REMARK    7  A    between atoms: C_16  and  N_26
REMARK    8  A    between atoms: C_21  and  S_24
REMARK    9  A    between atoms: S_24  and  C_25
REMARK   10  A    between atoms: C_29  and  C_33
REMARK                            x       y       z     vdW  Elec       q    Type
REMARK                         _______ _______ _______ _____ _____    ______ ____
ROOT
ATOM      1  C   UNL     1       3.706  -1.686  -3.125  0.00  0.00    +0.135 C 
ENDROOT
BRANCH   1   2
ATOM      2  N   UNL     1       4.434  -2.163  -1.947  0.00  0.00    -0.320 N 
ATOM      3  C   UNL     1       4.473  -3.522  -1.657  0.00  0.00    +0.097 A 
ATOM      4  C   UNL     1       3.879  -4.430  -2.529  0.00  0.00    +0.045 A 
ATOM      5  C   UNL     1       3.925  -5.779  -2.228  0.00  0.00    -0.046 A 
ATOM      6  C   UNL     1       4.567  -6.177  -1.062  0.00  0.00    +0.021 A 
ATOM      7  C   UNL     1       5.135  -5.222  -0.243  0.00  0.00    +0.084 A 
ATOM      8  N   UNL     1       5.080  -3.942  -0.558  0.00  0.00    -0.350 N 
ATOM      9  C   UNL     1       3.294  -6.795  -3.145  0.00  0.00    +0.044 C 
ATOM     10  H   UNL     1       4.890  -1.531  -1.369  0.00  0.00    +0.148 HD
ATOM     11  H   UNL     1       5.491  -3.291   0.033  0.00  0.00    +0.166 HD
ENDBRANCH   1   2
BRANCH   1  12
ATOM     12  C   UNL     1       4.255  -0.348  -3.547  0.00  0.00    -0.023 A 
ATOM     13  C   UNL     1       4.470   0.639  -2.603  0.00  0.00    +0.007 A 
ATOM     14  C   UNL     1       4.973   1.866  -2.986  0.00  0.00    +0.015 A 
ATOM     15  C   UNL     1       5.264   2.109  -4.323  0.00  0.00    +0.008 A 
ATOM     16  C   UNL     1       5.046   1.115  -5.270  0.00  0.00    +0.015 A 
ATOM     17  C   UNL     1       4.548  -0.112  -4.878  0.00  0.00    +0.007 A 
BRANCH  15  18
ATOM     18  S   UNL     1       5.905   3.674  -4.817  0.00  0.00    -0.129 S 
ATOM     19  C   UNL     1       6.119   3.514  -6.612  0.00  0.00    +0.090 C 
ENDBRANCH  15  18
ENDBRANCH   1  12
BRANCH   1  22
ATOM     20  C   UNL     1       0.518  -1.197  -1.217  0.00  0.00    -0.008 A 
ATOM     21  C   UNL     1       1.840  -1.319  -1.485  0.00  0.00    +0.019 A 
ATOM     22  C   UNL     1       2.244  -1.545  -2.788  0.00  0.00    +0.006 A 
ATOM     23  C   UNL     1       1.295  -1.637  -3.762  0.00  0.00    +0.078 A 
ATOM     24  S   UNL     1      -0.212  -1.409  -2.832  0.00  0.00    -0.078 S 
BRANCH  23  25
ATOM     25  N   UNL     1       1.459  -1.858  -5.131  0.00  0.00    -0.273 N 
ATOM     26  C   UNL     1       0.381  -1.917  -5.938  0.00  0.00    +0.284 C 
ATOM     27  O   UNL     1      -0.736  -1.777  -5.473  0.00  0.00    -0.266 OA
ATOM     28  H   UNL     1       2.348  -1.970  -5.501  0.00  0.00    +0.156 HD
BRANCH  26  29
ATOM     29  C   UNL     1       0.553  -2.149  -7.375  0.00  0.00    +0.189 A 
ATOM     30  C   UNL     1      -0.448  -2.225  -8.301  0.00  0.00    +0.054 A 
ATOM     31  C   UNL     1       0.167  -2.456  -9.542  0.00  0.00    +0.042 A 
ATOM     32  C   UNL     1       1.499  -2.510  -9.322  0.00  0.00    +0.196 A 
ATOM     33  O   UNL     1       1.728  -2.320  -8.016  0.00  0.00    -0.458 OA
ENDBRANCH  26  29
ENDBRANCH  23  25
BRANCH  20  35
ATOM     34  C   UNL     1      -0.419   0.548   0.276  0.00  0.00    +0.009 C 
ATOM     35  C   UNL     1      -0.162  -0.951   0.106  0.00  0.00    +0.039 C 
ENDBRANCH  20  35
ENDBRANCH   1  22
TORSDOF 7
