REMARK  Name = ZINC57943656
REMARK  4 active torsions:
REMARK  status: ('A' for Active; 'I' for Inactive)
REMARK    1  A    between atoms: C_7  and  N_12
REMARK    2  A    between atoms: N_12  and  C_13
REMARK    3  A    between atoms: C_13  and  C_14
REMARK    4  A    between atoms: C_17  and  O_21
REMARK                            x       y       z     vdW  Elec       q    Type
REMARK                         _______ _______ _______ _____ _____    ______ ____
ROOT
ATOM      1  N   UNL     1       0.145  -2.671  -0.929  0.00  0.00    +0.386 N 
ATOM      2  H   UNL     1      -0.792  -2.321  -0.794  0.00  0.00    -0.085 HD
ATOM      3  H   UNL     1       0.503  -2.341  -1.812  0.00  0.00    -0.085 HD
ENDROOT
BRANCH   1  10
ATOM      4  C   UNL     1      -0.434   1.290   0.196  0.00  0.00    +0.000 A 
ATOM      5  C   UNL     1       0.691   2.068   0.403  0.00  0.00    +0.004 A 
ATOM      6  C   UNL     1       1.928   1.471   0.527  0.00  0.00    +0.046 A 
ATOM      7  C   UNL     1       2.049   0.087   0.446  0.00  0.00    +0.122 A 
ATOM      8  C   UNL     1       0.922  -0.689   0.242  0.00  0.00    -0.020 A 
ATOM      9  C   UNL     1      -0.317  -0.084   0.116  0.00  0.00    +0.005 A 
ATOM     10  C   UNL     1       1.008  -2.192   0.159  0.00  0.00    -0.034 C 
ATOM     11  C   UNL     1       2.454  -2.611  -0.116  0.00  0.00    +0.030 C 
ATOM     12  C   UNL     1       3.368  -1.859   0.859  0.00  0.00    +0.228 C 
ATOM     13  O   UNL     1       3.285  -0.463   0.568  0.00  0.00    -0.492 OA
ENDBRANCH   1  10
BRANCH   1  14
ATOM     14  C   UNL     1       0.124  -4.140  -0.927  0.00  0.00    -0.046 C 
BRANCH  14  15
ATOM     15  C   UNL     1      -0.858  -4.630  -1.959  0.00  0.00    -0.063 A 
ATOM     16  C   UNL     1      -2.180  -4.836  -1.610  0.00  0.00    +0.005 A 
ATOM     17  C   UNL     1      -3.084  -5.286  -2.553  0.00  0.00    +0.047 A 
ATOM     18  C   UNL     1      -2.664  -5.530  -3.853  0.00  0.00    +0.131 A 
ATOM     19  C   UNL     1      -1.336  -5.323  -4.201  0.00  0.00    +0.059 A 
ATOM     20  C   UNL     1      -0.438  -4.868  -3.254  0.00  0.00    +0.020 A 
ATOM     21 BR   UNL     1      -0.759  -5.656  -5.971  0.00  0.00    -0.047 Br
BRANCH  18  22
ATOM     22  O   UNL     1      -3.550  -5.973  -4.783  0.00  0.00    -0.506 OA
ATOM     23  H   UNL     1      -3.995  -5.267  -5.270  0.00  0.00    +0.292 HD
ENDBRANCH  18  22
ENDBRANCH  14  15
ENDBRANCH   1  14
TORSDOF 4
