REMARK  Name = ZINC52860276
REMARK  3 active torsions:
REMARK  status: ('A' for Active; 'I' for Inactive)
REMARK    1  A    between atoms: C_5  and  O_7
REMARK    2  A    between atoms: O_7  and  C_8
REMARK    3  A    between atoms: C_13  and  C_14
REMARK                            x       y       z     vdW  Elec       q    Type
REMARK                         _______ _______ _______ _____ _____    ______ ____
ROOT
ATOM      1  C   UNL     1       0.054  -2.692   0.218  0.00  0.00    +0.139 A 
ATOM      2  C   UNL     1      -1.138  -1.983   0.225  0.00  0.00    +0.048 A 
ATOM      3  C   UNL     1      -2.344  -2.655   0.213  0.00  0.00    +0.023 A 
ATOM      4  C   UNL     1      -2.373  -4.041   0.193  0.00  0.00    +0.042 A 
ATOM      5  C   UNL     1      -1.197  -4.761   0.185  0.00  0.00    +0.035 A 
ATOM      6  C   UNL     1       0.029  -4.093   0.192  0.00  0.00    +0.056 A 
ATOM      7 CL   UNL     1      -3.897  -4.873   0.177  0.00  0.00    -0.084 Cl
ENDROOT
BRANCH   6   8
ATOM      8  C   UNL     1       1.292  -4.858   0.177  0.00  0.00    +0.098 C 
ATOM      9  N   UNL     1       1.530  -5.769   1.121  0.00  0.00    -0.387 N 
ATOM     10  N   UNL     1       2.193  -4.638  -0.779  0.00  0.00    -0.344 N 
ATOM     11  H   UNL     1       2.325  -6.322   1.070  0.00  0.00    +0.157 HD
ATOM     12  H   UNL     1       2.020  -3.975  -1.466  0.00  0.00    +0.144 HD
ATOM     13  H   UNL     1       3.023  -5.140  -0.788  0.00  0.00    +0.144 HD
ATOM     14  H   UNL     1       0.909  -5.878   1.857  0.00  0.00    +0.157 HD
ENDBRANCH   6   8
BRANCH   1  15
ATOM     15  O   UNL     1       1.239  -2.033   0.231  0.00  0.00    -0.454 OA
BRANCH  15  20
ATOM     16  C   UNL     1       1.286   1.510  -0.596  0.00  0.00    +0.004 A 
ATOM     17  C   UNL     1       1.169   2.070   0.664  0.00  0.00    +0.001 A 
ATOM     18  C   UNL     1       1.075   1.258   1.778  0.00  0.00    +0.019 A 
ATOM     19  C   UNL     1       1.099  -0.117   1.636  0.00  0.00    +0.060 A 
ATOM     20  C   UNL     1       1.216  -0.681   0.373  0.00  0.00    +0.142 A 
ATOM     21  C   UNL     1       1.310   0.137  -0.743  0.00  0.00    +0.047 A 
ATOM     22 BR   UNL     1       0.972  -1.228   3.161  0.00  0.00    -0.046 Br
ENDBRANCH  15  20
ENDBRANCH   1  15
TORSDOF 3
