REMARK  Name = ZINC08964778
REMARK  5 active torsions:
REMARK  status: ('A' for Active; 'I' for Inactive)
REMARK    1  A    between atoms: C_3  and  C_7
REMARK    2  A    between atoms: C_13  and  N_14
REMARK    3  A    between atoms: C_13  and  N_55
REMARK    4  A    between atoms: N_22  and  N_23
REMARK    5  A    between atoms: C_24  and  C_26
REMARK                            x       y       z     vdW  Elec       q    Type
REMARK                         _______ _______ _______ _____ _____    ______ ____
ROOT
ATOM      1  N   UNL     1       3.422  -1.860  -1.907  0.00  0.00    -0.282 N 
ATOM      2  C   UNL     1       2.732  -3.039  -2.165  0.00  0.00    +0.044 A 
ATOM      3  C   UNL     1       1.513  -3.277  -2.792  0.00  0.00    +0.025 A 
ATOM      4  C   UNL     1       1.042  -4.568  -2.924  0.00  0.00    +0.017 A 
ATOM      5  C   UNL     1       1.773  -5.639  -2.436  0.00  0.00    +0.019 A 
ATOM      6  C   UNL     1       2.985  -5.421  -1.810  0.00  0.00    +0.027 A 
ATOM      7  C   UNL     1       3.467  -4.124  -1.673  0.00  0.00    +0.029 A 
ATOM      8  C   UNL     1       4.697  -3.557  -1.071  0.00  0.00    +0.153 C 
ATOM      9  N   UNL     1       5.675  -4.209  -0.489  0.00  0.00    -0.174 NA
ATOM     10  C   UNL     1       4.583  -2.099  -1.273  0.00  0.00    +0.270 C 
ATOM     11  O   UNL     1       5.395  -1.262  -0.925  0.00  0.00    -0.268 OA
ATOM     12 BR   UNL     1       1.110  -7.399  -2.626  0.00  0.00    -0.050 Br
ENDROOT
BRANCH   9  13
ATOM     13  N   UNL     1       6.772  -3.509   0.030  0.00  0.00    -0.200 N 
ATOM     14  C   UNL     1       7.777  -4.179   0.627  0.00  0.00    +0.299 C 
ATOM     15  O   UNL     1       7.732  -5.392   0.716  0.00  0.00    -0.265 OA
ATOM     16  H   UNL     1       6.808  -2.542  -0.041  0.00  0.00    +0.178 HD
BRANCH  14  17
ATOM     17  C   UNL     1       8.924  -3.447   1.170  0.00  0.00    +0.191 A 
ATOM     18  C   UNL     1      10.003  -3.999   1.802  0.00  0.00    +0.054 A 
ATOM     19  C   UNL     1      10.853  -2.938   2.150  0.00  0.00    +0.042 A 
ATOM     20  C   UNL     1      10.260  -1.798   1.729  0.00  0.00    +0.196 A 
ATOM     21  O   UNL     1       9.098  -2.109   1.139  0.00  0.00    -0.458 OA
ENDBRANCH  14  17
ENDBRANCH   9  13
BRANCH   1  22
ATOM     22  C   UNL     1       2.948  -0.526  -2.284  0.00  0.00    +0.039 C 
BRANCH  22  28
ATOM     23  C   UNL     1       2.147   1.502  -1.231  0.00  0.00    -0.034 C 
ATOM     24  C   UNL     1       1.421   2.049  -0.001  0.00  0.00    -0.011 C 
ATOM     25  C   UNL     1      -0.019   1.527   0.010  0.00  0.00    -0.003 C 
ATOM     26  C   UNL     1       0.002  -0.004   0.002  0.00  0.00    -0.019 C 
ATOM     27  C   UNL     1       0.770  -0.492  -1.228  0.00  0.00    -0.076 C 
ATOM     28  N   UNL     1       2.154   0.024  -1.167  0.00  0.00    +0.395 N 
ATOM     29  H   UNL     1       2.579  -0.268  -0.279  0.00  0.00    -0.079 HD
BRANCH  23  32
ATOM     30  C   UNL     1       5.258   3.494  -2.002  0.00  0.00    +0.020 A 
ATOM     31  C   UNL     1       3.937   3.072  -2.030  0.00  0.00    +0.005 A 
ATOM     32  C   UNL     1       3.571   1.997  -1.235  0.00  0.00    -0.043 A 
ATOM     33  C   UNL     1       4.526   1.389  -0.442  0.00  0.00    +0.112 A 
ATOM     34  N   UNL     1       5.774   1.814  -0.445  0.00  0.00    -0.263 NA
ATOM     35  C   UNL     1       6.158   2.833  -1.188  0.00  0.00    +0.111 A 
ENDBRANCH  23  32
ENDBRANCH  22  28
ENDBRANCH   1  22
TORSDOF 5
