REMARK  Name = ZINC11938081
REMARK  8 active torsions:
REMARK  status: ('A' for Active; 'I' for Inactive)
REMARK    1  A    between atoms: C_1  and  C_2
REMARK    2  A    between atoms: C_6  and  N_9
REMARK    3  A    between atoms: C_7  and  C_8
REMARK    4  A    between atoms: C_14  and  N_60
REMARK    5  A    between atoms: C_19  and  C_20
REMARK    6  A    between atoms: C_19  and  N_60
REMARK    7  A    between atoms: N_22  and  C_29
REMARK    8  A    between atoms: C_29  and  C_30
REMARK                            x       y       z     vdW  Elec       q    Type
REMARK                         _______ _______ _______ _____ _____    ______ ____
ROOT
ATOM      1  N   UNL     1      -5.481  -1.967  -0.631  0.00  0.00    +0.386 N 
ATOM      2  H   UNL     1      -4.911  -2.030  -1.483  0.00  0.00    -0.085 HD
ATOM      3  H   UNL     1      -6.397  -1.565  -0.861  0.00  0.00    -0.085 HD
ENDROOT
BRANCH   1   9
ATOM      4  N   UNL     1      -1.188  -0.742   0.088  0.00  0.00    -0.236 N 
ATOM      5  C   UNL     1      -2.425  -0.228   0.221  0.00  0.00    +0.047 A 
ATOM      6  C   UNL     1      -3.306  -1.260   0.220  0.00  0.00    -0.020 A 
ATOM      7  C   UNL     1      -2.583  -2.443   0.083  0.00  0.00    +0.137 A 
ATOM      8  N   UNL     1      -1.311  -2.137  -0.002  0.00  0.00    -0.174 NA
ATOM      9  C   UNL     1      -4.801  -1.097   0.347  0.00  0.00    -0.037 C 
ATOM     10  C   UNL     1      -5.153   0.367   0.056  0.00  0.00    -0.011 C 
ATOM     11  C   UNL     1      -4.255   1.285   0.891  0.00  0.00    +0.005 C 
ATOM     12  C   UNL     1      -2.820   1.222   0.355  0.00  0.00    +0.056 C 
BRANCH   4  18
ATOM     13  C   UNL     1       3.431  -0.083   1.643  0.00  0.00    +0.044 C 
ATOM     14  C   UNL     1       2.263   0.327   0.784  0.00  0.00    -0.046 A 
ATOM     15  C   UNL     1       2.371   1.424  -0.051  0.00  0.00    +0.004 A 
ATOM     16  C   UNL     1       1.301   1.803  -0.841  0.00  0.00    +0.002 A 
ATOM     17  C   UNL     1       0.120   1.087  -0.797  0.00  0.00    +0.028 A 
ATOM     18  C   UNL     1       0.009  -0.013   0.041  0.00  0.00    +0.069 A 
ATOM     19  C   UNL     1       1.085  -0.392   0.833  0.00  0.00    -0.022 A 
ATOM     20  C   UNL     1       0.967  -1.586   1.745  0.00  0.00    +0.046 C 
ENDBRANCH   4  18
ENDBRANCH   1   9
BRANCH   1  21
ATOM     21  C   UNL     1      -5.668  -3.318  -0.070  0.00  0.00    -0.044 C 
BRANCH  21  22
ATOM     22  C   UNL     1      -6.364  -4.183  -1.089  0.00  0.00    -0.039 A 
ATOM     23  C   UNL     1      -7.669  -4.497  -1.112  0.00  0.00    +0.089 A 
ATOM     24  N   UNL     1      -7.937  -5.299  -2.188  0.00  0.00    -0.338 N 
ATOM     25  C   UNL     1      -6.780  -5.536  -2.895  0.00  0.00    +0.050 A 
ATOM     26  C   UNL     1      -5.744  -4.847  -2.238  0.00  0.00    +0.001 A 
ATOM     27  C   UNL     1      -4.442  -4.907  -2.737  0.00  0.00    +0.010 A 
ATOM     28  C   UNL     1      -4.180  -5.635  -3.864  0.00  0.00    +0.001 A 
ATOM     29  C   UNL     1      -5.198  -6.316  -4.516  0.00  0.00    +0.002 A 
ATOM     30  C   UNL     1      -6.491  -6.270  -4.040  0.00  0.00    +0.026 A 
BRANCH  24  31
ATOM     31  C   UNL     1      -9.258  -5.832  -2.532  0.00  0.00    +0.217 C 
BRANCH  31  32
ATOM     32  C   UNL     1      -9.408  -7.215  -1.951  0.00  0.00    +0.230 C 
ATOM     33  O   UNL     1      -8.502  -7.707  -1.313  0.00  0.00    -0.274 OA
ATOM     34  N   UNL     1     -10.550  -7.905  -2.141  0.00  0.00    -0.328 N 
ATOM     35  H   UNL     1     -11.275  -7.512  -2.652  0.00  0.00    +0.145 HD
ATOM     36  H   UNL     1     -10.647  -8.795  -1.768  0.00  0.00    +0.145 HD
ENDBRANCH  31  32
ENDBRANCH  24  31
ENDBRANCH  21  22
ENDBRANCH   1  21
TORSDOF 6
