REMARK  Name = ZINC33937248
REMARK  12 active torsions:
REMARK  status: ('A' for Active; 'I' for Inactive)
REMARK    1  A    between atoms: C_1  and  C_2
REMARK    2  A    between atoms: C_6  and  C_15
REMARK    3  A    between atoms: C_13  and  C_14
REMARK    4  A    between atoms: C_15  and  N_16
REMARK    5  A    between atoms: N_16  and  C_17
REMARK    6  A    between atoms: N_16  and  C_24
REMARK    7  A    between atoms: C_17  and  C_18
REMARK    8  A    between atoms: C_24  and  C_26
REMARK    9  A    between atoms: C_24  and  C_37
REMARK   10  A    between atoms: N_30  and  C_31
REMARK   11  A    between atoms: C_37  and  C_38
REMARK   12  A    between atoms: C_37  and  C_39
REMARK                            x       y       z     vdW  Elec       q    Type
REMARK                         _______ _______ _______ _____ _____    ______ ____
ROOT
ATOM      1  N   UNL     1       1.633  -5.471  -4.050  0.00  0.00    +0.391 N 
ATOM      2  H   UNL     1       1.950  -4.523  -4.183  0.00  0.00    -0.080 HD
ENDROOT
BRANCH   1   3
ATOM      3  C   UNL     1       0.399  -5.468  -3.254  0.00  0.00    -0.036 C 
BRANCH   3   9
ATOM      4  C   UNL     1       0.098   0.767   0.828  0.00  0.00    +0.044 C 
ATOM      5  C   UNL     1       0.444  -0.692   0.681  0.00  0.00    -0.047 A 
ATOM      6  C   UNL     1       0.211  -1.327  -0.506  0.00  0.00    +0.013 A 
ATOM      7  C   UNL     1       0.532  -2.682  -0.642  0.00  0.00    -0.001 A 
ATOM      8  C   UNL     1       0.297  -3.393  -1.900  0.00  0.00    +0.017 A 
ATOM      9  C   UNL     1       0.629  -4.706  -1.974  0.00  0.00    +0.001 A 
ATOM     10  C   UNL     1       1.188  -5.361  -0.856  0.00  0.00    +0.251 A 
ATOM     11  O   UNL     1       1.478  -6.542  -0.944  0.00  0.00    -0.268 OA
ATOM     12  N   UNL     1       1.408  -4.717   0.303  0.00  0.00    -0.322 N 
ATOM     13  H   UNL     1       1.795  -5.197   1.052  0.00  0.00    +0.169 HD
ATOM     14  C   UNL     1       1.093  -3.382   0.443  0.00  0.00    +0.049 A 
ATOM     15  C   UNL     1       1.320  -2.714   1.642  0.00  0.00    +0.030 A 
ATOM     16  C   UNL     1       1.002  -1.378   1.751  0.00  0.00    -0.046 A 
ATOM     17  C   UNL     1       1.255  -0.655   3.049  0.00  0.00    +0.044 C 
ENDBRANCH   3   9
ENDBRANCH   1   3
BRANCH   1  18
ATOM     18  C   UNL     1       2.669  -6.239  -3.345  0.00  0.00    -0.045 C 
BRANCH  18  19
ATOM     19  C   UNL     1       4.018  -6.031  -4.036  0.00  0.00    +0.102 C 
ATOM     20  C   UNL     1       5.144  -6.738  -3.241  0.00  0.00    +0.032 C 
ATOM     21  C   UNL     1       6.196  -6.967  -4.360  0.00  0.00    +0.030 C 
ATOM     22  C   UNL     1       5.308  -7.223  -5.597  0.00  0.00    +0.160 C 
ATOM     23  O   UNL     1       4.017  -6.659  -5.328  0.00  0.00    -0.378 OA
ENDBRANCH  18  19
ENDBRANCH   1  18
BRANCH   1  24
ATOM     24  C   UNL     1       1.371  -6.088  -5.357  0.00  0.00    +0.006 C 
BRANCH  24  25
ATOM     25  C   UNL     1       0.336  -7.172  -5.202  0.00  0.00    +0.139 A 
ATOM     26  N   UNL     1      -0.882  -7.030  -4.737  0.00  0.00    -0.115 NA
ATOM     27  N   UNL     1      -1.455  -8.184  -4.763  0.00  0.00    -0.023 NA
ATOM     28  N   UNL     1      -0.634  -9.058  -5.233  0.00  0.00    -0.044 NA
ATOM     29  N   UNL     1       0.478  -8.472  -5.520  0.00  0.00    -0.228 N 
BRANCH  29  30
ATOM     30  C   UNL     1       1.675  -9.103  -6.083  0.00  0.00    +0.111 C 
ATOM     31  C   UNL     1       1.367  -9.611  -7.493  0.00  0.00    +0.027 C 
ATOM     32  C   UNL     1       2.616 -10.271  -8.081  0.00  0.00    +0.002 C 
ATOM     33  C   UNL     1       3.037 -11.446  -7.196  0.00  0.00    +0.000 C 
ATOM     34  C   UNL     1       3.344 -10.938  -5.786  0.00  0.00    +0.002 C 
ATOM     35  C   UNL     1       2.095 -10.278  -5.198  0.00  0.00    +0.027 C 
ENDBRANCH  29  30
ENDBRANCH  24  25
BRANCH  24  36
ATOM     36  C   UNL     1       0.856  -5.025  -6.329  0.00  0.00    -0.024 C 
ATOM     37  C   UNL     1      -0.365  -4.329  -5.723  0.00  0.00    +0.006 C 
ATOM     38  C   UNL     1       1.956  -3.993  -6.585  0.00  0.00    +0.006 C 
ENDBRANCH  24  36
ENDBRANCH   1  24
TORSDOF 8
