REMARK  Name = ZINC36499999
REMARK  10 active torsions:
REMARK  status: ('A' for Active; 'I' for Inactive)
REMARK    1  A    between atoms: C_1  and  C_2
REMARK    2  A    between atoms: C_2  and  C_4
REMARK    3  A    between atoms: C_2  and  C_10
REMARK    4  A    between atoms: C_10  and  C_12
REMARK    5  A    between atoms: C_10  and  N_21
REMARK    6  A    between atoms: N_14  and  C_15
REMARK    7  A    between atoms: N_21  and  C_22
REMARK    8  A    between atoms: C_22  and  C_23
REMARK    9  A    between atoms: C_28  and  C_30
REMARK   10  A    between atoms: C_31  and  C_32
REMARK                            x       y       z     vdW  Elec       q    Type
REMARK                         _______ _______ _______ _____ _____    ______ ____
ROOT
ATOM      1  C   UNL     1      -1.446  -0.095  -1.041  0.00  0.00    +0.170 C 
ENDROOT
BRANCH   1   2
ATOM      2  C   UNL     1      -1.138  -1.570  -0.993  0.00  0.00    +0.234 C 
ATOM      3  O   UNL     1      -1.523  -2.239  -0.057  0.00  0.00    -0.274 OA
ATOM      4  N   UNL     1      -0.435  -2.144  -1.989  0.00  0.00    -0.311 N 
ATOM      5  H   UNL     1      -0.070  -1.598  -2.703  0.00  0.00    +0.149 HD
BRANCH   4   6
ATOM      6  C   UNL     1      -0.222  -3.594  -1.993  0.00  0.00    +0.073 C 
ATOM      7  C   UNL     1       0.998  -3.932  -1.134  0.00  0.00    +0.022 C 
ATOM      8  C   UNL     1       1.221  -5.446  -1.139  0.00  0.00    +0.002 C 
ATOM      9  C   UNL     1       1.459  -5.922  -2.573  0.00  0.00    +0.000 C 
ATOM     10  C   UNL     1       0.239  -5.583  -3.432  0.00  0.00    +0.002 C 
ATOM     11  C   UNL     1       0.016  -4.070  -3.428  0.00  0.00    +0.022 C 
ENDBRANCH   4   6
ENDBRANCH   1   2
BRANCH   1  12
ATOM     12  N   UNL     1      -2.531   0.208  -0.105  0.00  0.00    -0.271 N 
ATOM     13  C   UNL     1      -3.660   0.796  -0.549  0.00  0.00    +0.292 C 
ATOM     14  O   UNL     1      -3.777   1.076  -1.727  0.00  0.00    -0.260 OA
BRANCH  13  15
ATOM     15  C   UNL     1      -4.721   1.093   0.367  0.00  0.00    -0.003 C 
ATOM     16  C   UNL     1      -5.590   1.335   1.117  0.00  0.00    -0.057 C 
BRANCH  16  17
ATOM     17  C   UNL     1      -6.651   1.632   2.032  0.00  0.00    +0.025 A 
ATOM     18  C   UNL     1      -6.517   1.318   3.388  0.00  0.00    +0.017 A 
ATOM     19  C   UNL     1      -7.543   1.607   4.263  0.00  0.00    +0.001 A 
ATOM     20  C   UNL     1      -8.703   2.205   3.803  0.00  0.00    +0.000 A 
ATOM     21  C   UNL     1      -8.842   2.519   2.462  0.00  0.00    +0.001 A 
ATOM     22  C   UNL     1      -7.823   2.242   1.575  0.00  0.00    +0.017 A 
ENDBRANCH  16  17
ENDBRANCH  13  15
BRANCH  12  23
ATOM     23  C   UNL     1      -2.390  -0.129   1.314  0.00  0.00    +0.183 C 
BRANCH  23  24
ATOM     24  C   UNL     1      -1.935   1.089   2.076  0.00  0.00    +0.122 A 
ATOM     25  C   UNL     1      -2.735   2.043   2.586  0.00  0.00    +0.046 A 
ATOM     26  C   UNL     1      -1.894   2.990   3.215  0.00  0.00    +0.041 A 
ATOM     27  C   UNL     1      -0.630   2.558   3.052  0.00  0.00    +0.195 A 
ATOM     28  O   UNL     1      -0.662   1.403   2.367  0.00  0.00    -0.466 OA
ENDBRANCH  23  24
ENDBRANCH  12  23
ENDBRANCH   1  12
BRANCH   1  30
ATOM     29  C   UNL     1       0.973   0.280  -1.540  0.00  0.00    +0.015 C 
ATOM     30  C   UNL     1      -0.199   0.700  -0.650  0.00  0.00    +0.045 C 
BRANCH  30  31
ATOM     31  C   UNL     1      -0.464   2.172  -0.831  0.00  0.00    -0.042 A 
ATOM     32  C   UNL     1      -1.120   2.623  -1.961  0.00  0.00    +0.004 A 
ATOM     33  C   UNL     1      -1.363   3.973  -2.127  0.00  0.00    +0.000 A 
ATOM     34  C   UNL     1      -0.952   4.873  -1.161  0.00  0.00    +0.000 A 
ATOM     35  C   UNL     1      -0.297   4.422  -0.030  0.00  0.00    +0.000 A 
ATOM     36  C   UNL     1      -0.057   3.071   0.137  0.00  0.00    +0.004 A 
ENDBRANCH  30  31
ENDBRANCH   1  30
TORSDOF 9
