REMARK  Name = ZINC66976021
REMARK  9 active torsions:
REMARK  status: ('A' for Active; 'I' for Inactive)
REMARK    1  A    between atoms: C_1  and  N_2
REMARK    2  A    between atoms: N_2  and  C_3
REMARK    3  A    between atoms: N_2  and  C_4
REMARK    4  A    between atoms: C_4  and  C_6
REMARK    5  A    between atoms: C_4  and  C_23
REMARK    6  A    between atoms: C_6  and  N_7
REMARK    7  A    between atoms: N_10  and  C_11
REMARK    8  A    between atoms: C_11  and  C_12
REMARK    9  A    between atoms: C_12  and  O_22
REMARK                            x       y       z     vdW  Elec       q    Type
REMARK                         _______ _______ _______ _____ _____    ______ ____
ROOT
ATOM      1  N   UNL     1      -1.356   1.178  -1.641  0.00  0.00    -0.301 N 
ATOM      2  C   UNL     1      -1.889   1.856  -2.676  0.00  0.00    +0.300 C 
ATOM      3  O   UNL     1      -2.592   1.279  -3.483  0.00  0.00    -0.253 OA
ATOM      4  N   UNL     1      -1.644   3.174  -2.817  0.00  0.00    -0.296 N 
ATOM      5  H   UNL     1      -0.795   1.638  -0.997  0.00  0.00    +0.150 HD
ATOM      6  H   UNL     1      -1.083   3.634  -2.173  0.00  0.00    +0.150 HD
ENDROOT
BRANCH   1   7
ATOM      7  C   UNL     1      -1.623  -0.254  -1.488  0.00  0.00    +0.098 C 
BRANCH   7   8
ATOM      8  C   UNL     1      -0.817  -0.800  -0.307  0.00  0.00    +0.016 C 
BRANCH   8   9
ATOM      9  C   UNL     1       0.654  -0.718  -0.622  0.00  0.00    +0.093 A 
ATOM     10  C   UNL     1       1.424  -1.734  -1.052  0.00  0.00    +0.043 A 
ATOM     11  C   UNL     1       2.729  -1.216  -1.220  0.00  0.00    +0.041 A 
ATOM     12  C   UNL     1       2.678   0.086  -0.882  0.00  0.00    +0.195 A 
ATOM     13  O   UNL     1       1.418   0.383  -0.527  0.00  0.00    -0.469 OA
ENDBRANCH   8   9
BRANCH   8  15
ATOM     14  C   UNL     1      -2.536  -0.103   1.215  0.00  0.00    -0.096 C 
ATOM     15  N   UNL     1      -1.106  -0.003   0.893  0.00  0.00    +0.384 N 
ATOM     16  C   UNL     1      -0.314  -0.511   2.021  0.00  0.00    -0.096 C 
ATOM     17  H   UNL     1      -0.867   0.962   0.721  0.00  0.00    -0.082 HD
ENDBRANCH   8  15
ENDBRANCH   7   8
ENDBRANCH   1   7
BRANCH   4  18
ATOM     18  C   UNL     1      -2.224   3.911  -3.942  0.00  0.00    +0.145 C 
BRANCH  18  19
ATOM     19  C   UNL     1      -1.706   5.351  -3.930  0.00  0.00    +0.107 C 
ATOM     20  C   UNL     1      -2.061   6.002  -2.595  0.00  0.00    +0.041 C 
ATOM     21  C   UNL     1      -1.732   7.497  -2.684  0.00  0.00    +0.008 C 
ATOM     22  C   UNL     1      -2.729   8.154  -3.637  0.00  0.00    +0.035 C 
ATOM     23  C   UNL     1      -2.793   7.400  -4.939  0.00  0.00    -0.041 A 
ATOM     24  C   UNL     1      -2.327   6.111  -5.073  0.00  0.00    -0.011 A 
ATOM     25  C   UNL     1      -2.421   5.470  -6.301  0.00  0.00    +0.007 A 
ATOM     26  C   UNL     1      -2.975   6.115  -7.388  0.00  0.00    +0.000 A 
ATOM     27  C   UNL     1      -3.440   7.410  -7.254  0.00  0.00    +0.000 A 
ATOM     28  C   UNL     1      -3.348   8.048  -6.035  0.00  0.00    +0.004 A 
BRANCH  19  29
ATOM     29  O   UNL     1      -0.286   5.342  -4.087  0.00  0.00    -0.382 OA
ATOM     30  H   UNL     1       0.017   4.934  -4.910  0.00  0.00    +0.211 HD
ENDBRANCH  19  29
ENDBRANCH  18  19
ENDBRANCH   4  18
TORSDOF 7
