REMARK  Name = ZINC39534298
REMARK  9 active torsions:
REMARK  status: ('A' for Active; 'I' for Inactive)
REMARK    1  A    between atoms: C_4  and  O_7
REMARK    2  A    between atoms: O_7  and  S_8
REMARK    3  A    between atoms: S_8  and  C_11
REMARK    4  A    between atoms: C_14  and  C_17
REMARK    5  A    between atoms: C_17  and  C_19
REMARK    6  A    between atoms: C_17  and  N_22
REMARK    7  A    between atoms: C_19  and  N_20
REMARK    8  A    between atoms: N_20  and  O_21
REMARK    9  A    between atoms: C_26  and  O_29
REMARK                            x       y       z     vdW  Elec       q    Type
REMARK                         _______ _______ _______ _____ _____    ______ ____
ROOT
ATOM      1  C   UNL     1       3.042  -2.082   2.206  0.00  0.00    +0.128 A 
ATOM      2  C   UNL     1       1.816  -1.925   2.824  0.00  0.00    +0.031 A 
ATOM      3  C   UNL     1       1.121  -3.032   3.273  0.00  0.00    +0.007 A 
ATOM      4  C   UNL     1       1.651  -4.297   3.103  0.00  0.00    -0.029 A 
ATOM      5  C   UNL     1       2.877  -4.455   2.483  0.00  0.00    +0.007 A 
ATOM      6  C   UNL     1       3.571  -3.348   2.031  0.00  0.00    +0.031 A 
ENDROOT
BRANCH   1   7
ATOM      7  S   UNL     1       3.928  -0.671   1.634  0.00  0.00    +0.151 S 
ATOM      8  O   UNL     1       5.297  -1.047   1.574  0.00  0.00    -0.131 OA
ATOM      9  O   UNL     1       3.475   0.433   2.405  0.00  0.00    -0.131 OA
BRANCH   7  10
ATOM     10  O   UNL     1       3.486  -0.411   0.201  0.00  0.00    -0.342 OA
BRANCH  10  14
ATOM     11  C   UNL     1      -0.267   1.272  -0.119  0.00  0.00    +0.000 A 
ATOM     12  C   UNL     1       0.847   2.084  -0.017  0.00  0.00    +0.004 A 
ATOM     13  C   UNL     1       2.105   1.523   0.090  0.00  0.00    +0.048 A 
ATOM     14  C   UNL     1       2.249   0.143   0.096  0.00  0.00    +0.157 A 
ATOM     15  C   UNL     1       1.130  -0.670  -0.005  0.00  0.00    +0.048 A 
ATOM     16  C   UNL     1      -0.126  -0.103  -0.113  0.00  0.00    +0.004 A 
ENDBRANCH  10  14
ENDBRANCH   7  10
ENDBRANCH   1   7
BRANCH   4  17
ATOM     17  C   UNL     1       0.894  -5.504   3.593  0.00  0.00    +0.103 C 
BRANCH  17  18
ATOM     18  N   UNL     1       0.925  -6.552   2.564  0.00  0.00    -0.295 NA
ATOM     19  C   UNL     1      -0.331  -7.315   2.551  0.00  0.00    +0.066 C 
ATOM     20  C   UNL     1      -0.282  -8.355   1.430  0.00  0.00    -0.063 C 
ATOM     21  N   UNL     1       0.857  -9.257   1.648  0.00  0.00    +0.398 N 
ATOM     22  C   UNL     1       2.106  -8.484   1.633  0.00  0.00    +0.073 C 
ATOM     23  C   UNL     1       2.076  -7.445   2.756  0.00  0.00    +0.096 C 
ATOM     24  H   UNL     1       0.755  -9.716   2.541  0.00  0.00    -0.082 HD
ATOM     25  H   UNL     1       0.881  -9.950   0.915  0.00  0.00    -0.082 HD
BRANCH  22  26
ATOM     26  O   UNL     1       3.213  -9.366   1.828  0.00  0.00    -0.409 OA
ATOM     27  H   UNL     1       3.294 -10.051   1.151  0.00  0.00    +0.207 HD
ENDBRANCH  22  26
ENDBRANCH  17  18
BRANCH  17  28
ATOM     28  C   UNL     1       1.544  -6.028   4.875  0.00  0.00    +0.134 C 
BRANCH  28  29
ATOM     29  N   UNL     1       0.843  -7.241   5.319  0.00  0.00    -0.202 NA
ATOM     30  H   UNL     1      -0.142  -7.064   5.442  0.00  0.00    +0.154 HD
BRANCH  29  31
ATOM     31  O   UNL     1       1.439  -7.771   6.545  0.00  0.00    -0.315 OA
ATOM     32  H   UNL     1       1.010  -8.572   6.876  0.00  0.00    +0.236 HD
ENDBRANCH  29  31
ENDBRANCH  28  29
ENDBRANCH  17  28
ENDBRANCH   4  17
TORSDOF 9
