REMARK  Name = ZINC20572748
REMARK  6 active torsions:
REMARK  status: ('A' for Active; 'I' for Inactive)
REMARK    1  A    between atoms: C_4  and  C_7
REMARK    2  A    between atoms: C_7  and  C_8
REMARK    3  A    between atoms: C_8  and  C_10
REMARK    4  A    between atoms: C_8  and  N_27
REMARK    5  A    between atoms: C_28  and  C_30
REMARK    6  A    between atoms: C_30  and  C_31
REMARK                            x       y       z     vdW  Elec       q    Type
REMARK                         _______ _______ _______ _____ _____    ______ ____
ROOT
ATOM      1  C   UNL     1       4.171  -0.963   1.398  0.00  0.00    +0.163 C 
ENDROOT
BRANCH   1   2
ATOM      2  C   UNL     1       5.348  -1.904   1.389  0.00  0.00    +0.236 C 
ATOM      3  O   UNL     1       6.466  -1.480   1.595  0.00  0.00    -0.274 OA
ATOM      4  N   UNL     1       5.159  -3.217   1.151  0.00  0.00    -0.300 N 
ATOM      5  C   UNL     1       3.831  -3.729   0.787  0.00  0.00    +0.110 C 
ATOM      6  C   UNL     1       3.950  -4.525  -0.517  0.00  0.00    +0.047 C 
ATOM      7  C   UNL     1       5.019  -5.606  -0.354  0.00  0.00    +0.064 C 
ATOM      8  C   UNL     1       6.371  -4.957  -0.057  0.00  0.00    +0.047 C 
ATOM      9  C   UNL     1       6.279  -4.164   1.246  0.00  0.00    +0.110 C 
ATOM     10  C   UNL     1       5.113  -6.421  -1.616  0.00  0.00    +0.057 A 
ATOM     11  C   UNL     1       5.197  -7.771  -1.633  0.00  0.00    +0.039 A 
ATOM     12  N   UNL     1       5.263  -8.165  -2.905  0.00  0.00    -0.349 N 
ATOM     13  C   UNL     1       5.225  -7.113  -3.682  0.00  0.00    +0.171 A 
ATOM     14  N   UNL     1       5.132  -6.005  -2.910  0.00  0.00    -0.348 N 
ATOM     15  H   UNL     1       5.087  -5.087  -3.221  0.00  0.00    +0.166 HD
ATOM     16  C   UNL     1       5.212  -8.610  -0.378  0.00  0.00    +0.070 C 
ATOM     17  C   UNL     1       5.524  -7.683   0.805  0.00  0.00    +0.088 C 
ATOM     18  N   UNL     1       4.649  -6.502   0.753  0.00  0.00    -0.305 NA
ATOM     19  H   UNL     1       4.654  -6.010   1.634  0.00  0.00    +0.123 HD
ATOM     20  H   UNL     1       5.328  -9.085  -3.206  0.00  0.00    +0.166 HD
ENDBRANCH   1   2
BRANCH   1  21
ATOM     21  N   UNL     1       4.473   0.188   2.253  0.00  0.00    -0.303 N 
ATOM     22  C   UNL     1       3.471   0.885   2.823  0.00  0.00    +0.218 C 
ATOM     23  O   UNL     1       2.319   0.560   2.629  0.00  0.00    -0.275 OA
ATOM     24  H   UNL     1       5.395   0.448   2.408  0.00  0.00    +0.149 HD
BRANCH  22  25
ATOM     25  C   UNL     1       3.781   2.069   3.702  0.00  0.00    +0.130 C 
BRANCH  25  26
ATOM     26  C   UNL     1       2.495   2.668   4.211  0.00  0.00    -0.039 A 
ATOM     27  C   UNL     1       1.860   3.659   3.486  0.00  0.00    +0.004 A 
ATOM     28  C   UNL     1       0.681   4.209   3.953  0.00  0.00    +0.000 A 
ATOM     29  C   UNL     1       0.136   3.767   5.144  0.00  0.00    +0.000 A 
ATOM     30  C   UNL     1       0.771   2.775   5.868  0.00  0.00    +0.000 A 
ATOM     31  C   UNL     1       1.948   2.223   5.399  0.00  0.00    +0.004 A 
ENDBRANCH  25  26
ENDBRANCH  22  25
ENDBRANCH   1  21
BRANCH   1  32
ATOM     32  C   UNL     1       3.893  -0.481  -0.027  0.00  0.00    +0.067 C 
BRANCH  32  36
ATOM     33  C   UNL     1       0.322   1.863  -0.066  0.00  0.00    +0.000 A 
ATOM     34  C   UNL     1       1.545   2.470   0.149  0.00  0.00    +0.000 A 
ATOM     35  C   UNL     1       2.700   1.712   0.162  0.00  0.00    +0.004 A 
ATOM     36  C   UNL     1       2.633   0.346  -0.040  0.00  0.00    -0.045 A 
ATOM     37  C   UNL     1       1.410  -0.262  -0.254  0.00  0.00    +0.004 A 
ATOM     38  C   UNL     1       0.254   0.497  -0.268  0.00  0.00    +0.000 A 
ENDBRANCH  32  36
ENDBRANCH   1  32
TORSDOF 6
