REMARK  Name = ZINC39631682
REMARK  12 active torsions:
REMARK  status: ('A' for Active; 'I' for Inactive)
REMARK    1  A    between atoms: C_1  and  C_2
REMARK    2  A    between atoms: C_5  and  C_10
REMARK    3  A    between atoms: C_14  and  C_23
REMARK    4  A    between atoms: N_25  and  C_26
REMARK    5  A    between atoms: C_26  and  C_28
REMARK    6  A    between atoms: C_26  and  C_29
REMARK    7  A    between atoms: C_29  and  C_30
REMARK    8  A    between atoms: C_30  and  C_31
REMARK    9  A    between atoms: C_31  and  C_32
REMARK   10  A    between atoms: C_32  and  C_33
REMARK   11  A    between atoms: C_32  and  C_34
REMARK   12  A    between atoms: C_32  and  O_35
REMARK                            x       y       z     vdW  Elec       q    Type
REMARK                         _______ _______ _______ _____ _____    ______ ____
ROOT
ATOM      1  C   UNL     1       0.135  -4.463   0.045  0.00  0.00    +0.250 C 
ATOM      2  O   UNL     1       0.258  -5.142   1.045  0.00  0.00    -0.270 OA
ATOM      3  N   UNL     1       0.008  -5.054  -1.160  0.00  0.00    -0.296 N 
ATOM      4  C   UNL     1      -0.043  -4.403  -2.490  0.00  0.00    +0.121 C 
ATOM      5  C   UNL     1       0.779  -5.332  -3.412  0.00  0.00    +0.100 C 
ATOM      6  C   UNL     1       0.729  -6.708  -2.727  0.00  0.00    -0.004 C 
ATOM      7  C   UNL     1      -0.105  -6.503  -1.454  0.00  0.00    +0.115 C 
ATOM      8  C   UNL     1       2.136  -7.167  -2.360  0.00  0.00    -0.010 C 
ATOM      9  C   UNL     1       2.066  -8.562  -1.732  0.00  0.00    -0.082 C 
ATOM     10  N   UNL     1       1.457  -9.499  -2.684  0.00  0.00    +0.379 N 
ATOM     11  C   UNL     1       0.071  -9.101  -2.961  0.00  0.00    -0.082 C 
ATOM     12  C   UNL     1       0.057  -7.729  -3.640  0.00  0.00    -0.010 C 
ATOM     13  H   UNL     1       1.985  -9.493  -3.544  0.00  0.00    -0.086 HD
ATOM     14  H   UNL     1       1.467 -10.428  -2.293  0.00  0.00    -0.086 HD
ENDROOT
BRANCH   1  19
ATOM     15  C   UNL     1       0.091   1.279   0.447  0.00  0.00    +0.047 C 
ATOM     16  C   UNL     1       0.104  -0.224   0.343  0.00  0.00    -0.012 A 
ATOM     17  C   UNL     1      -0.667  -0.855  -0.618  0.00  0.00    +0.007 A 
ATOM     18  C   UNL     1      -0.661  -2.230  -0.720  0.00  0.00    +0.016 A 
ATOM     19  C   UNL     1       0.126  -2.990   0.149  0.00  0.00    +0.075 A 
ATOM     20  C   UNL     1       0.903  -2.349   1.118  0.00  0.00    +0.171 A 
ATOM     21  C   UNL     1       0.891  -0.967   1.206  0.00  0.00    +0.162 A 
ATOM     22  F   UNL     1       1.646  -0.343   2.137  0.00  0.00    -0.202 F 
ATOM     23  F   UNL     1       1.667  -3.076   1.963  0.00  0.00    -0.202 F 
ENDBRANCH   1  19
BRANCH   5  24
ATOM     24  C   UNL     1       2.201  -4.845  -3.513  0.00  0.00    +0.218 C 
ATOM     25  O   UNL     1       2.714  -4.272  -2.576  0.00  0.00    -0.275 OA
ATOM     26  N   UNL     1       2.903  -5.047  -4.646  0.00  0.00    -0.312 N 
ATOM     27  H   UNL     1       2.493  -5.506  -5.395  0.00  0.00    +0.149 HD
BRANCH  26  28
ATOM     28  C   UNL     1       4.286  -4.574  -4.744  0.00  0.00    +0.070 C 
ATOM     29  C   UNL     1       4.294  -3.106  -5.175  0.00  0.00    +0.028 C 
BRANCH  28  30
ATOM     30  C   UNL     1       5.040  -5.413  -5.778  0.00  0.00    +0.022 C 
BRANCH  30  31
ATOM     31  C   UNL     1       5.141  -6.858  -5.287  0.00  0.00    +0.005 C 
BRANCH  31  32
ATOM     32  C   UNL     1       5.894  -7.697  -6.320  0.00  0.00    +0.034 C 
BRANCH  32  33
ATOM     33  C   UNL     1       5.995  -9.143  -5.829  0.00  0.00    +0.061 C 
ATOM     34  C   UNL     1       4.589  -9.715  -5.635  0.00  0.00    +0.041 C 
ATOM     35  C   UNL     1       6.749  -9.982  -6.863  0.00  0.00    +0.041 C 
BRANCH  33  36
ATOM     36  O   UNL     1       6.698  -9.175  -4.585  0.00  0.00    -0.389 OA
ATOM     37  H   UNL     1       7.599  -8.826  -4.634  0.00  0.00    +0.210 HD
ENDBRANCH  33  36
ENDBRANCH  32  33
ENDBRANCH  31  32
ENDBRANCH  30  31
ENDBRANCH  28  30
ENDBRANCH  26  28
ENDBRANCH   5  24
TORSDOF 8
