REMARK  Name = ZINC03217502
REMARK  8 active torsions:
REMARK  status: ('A' for Active; 'I' for Inactive)
REMARK    1  A    between atoms: C_1  and  N_2
REMARK    2  A    between atoms: N_2  and  C_3
REMARK    3  A    between atoms: N_2  and  C_4
REMARK    4  A    between atoms: C_7  and  C_10
REMARK    5  A    between atoms: C_13  and  C_19
REMARK    6  A    between atoms: C_22  and  N_25
REMARK    7  A    between atoms: N_25  and  C_26
REMARK    8  A    between atoms: N_25  and  C_27
REMARK                            x       y       z     vdW  Elec       q    Type
REMARK                         _______ _______ _______ _____ _____    ______ ____
ROOT
ATOM      1  C   UNL     1      -0.058   5.650   0.009  0.00  0.00    +0.131 C 
ATOM      2  C   UNL     1      -0.338   6.179  -1.403  0.00  0.00    +0.168 C 
ATOM      3  C   UNL     1      -0.470   7.705  -1.330  0.00  0.00    +0.131 C 
ATOM      4  N   UNL     1      -1.506   8.051  -0.355  0.00  0.00    -0.291 N 
ATOM      5  C   UNL     1      -1.770   7.257   0.694  0.00  0.00    +0.301 C 
ATOM      6  O   UNL     1      -2.635   7.595   1.479  0.00  0.00    -0.253 OA
ATOM      7  N   UNL     1      -1.116   6.106   0.911  0.00  0.00    -0.291 N 
ATOM      8  C   UNL     1      -1.623   5.590  -1.911  0.00  0.00    +0.240 C 
ATOM      9  O   UNL     1      -2.646   5.787  -1.292  0.00  0.00    -0.274 OA
ATOM     10  N   UNL     1      -1.671   4.854  -3.030  0.00  0.00    -0.239 N 
ATOM     11  C   UNL     1      -0.574   4.599  -3.760  0.00  0.00    +0.312 C 
ATOM     12  O   UNL     1      -0.675   3.926  -4.766  0.00  0.00    -0.252 OA
ATOM     13  N   UNL     1       0.631   5.070  -3.406  0.00  0.00    -0.239 N 
ATOM     14  C   UNL     1       0.806   5.819  -2.308  0.00  0.00    +0.240 C 
ATOM     15  O   UNL     1       1.919   6.217  -2.037  0.00  0.00    -0.274 OA
ATOM     16  H   UNL     1      -2.013   8.870  -0.471  0.00  0.00    +0.151 HD
ATOM     17  H   UNL     1      -1.350   5.565   1.681  0.00  0.00    +0.151 HD
ATOM     18  H   UNL     1      -2.523   4.494  -3.321  0.00  0.00    +0.159 HD
ATOM     19  H   UNL     1       1.399   4.863  -3.961  0.00  0.00    +0.159 HD
ENDROOT
BRANCH   1  23
ATOM     20  C   UNL     1       0.018   1.377  -0.057  0.00  0.00    +0.029 A 
ATOM     21  C   UNL     1      -1.196   2.051  -0.035  0.00  0.00    +0.023 A 
ATOM     22  C   UNL     1      -1.217   3.432  -0.008  0.00  0.00    +0.007 A 
ATOM     23  C   UNL     1      -0.031   4.143  -0.015  0.00  0.00    -0.026 A 
ATOM     24  C   UNL     1       1.179   3.475  -0.042  0.00  0.00    +0.007 A 
ATOM     25  C   UNL     1       1.207   2.094  -0.063  0.00  0.00    +0.023 A 
BRANCH  20  27
ATOM     26  C   UNL     1       1.324  -0.729  -0.109  0.00  0.00    +0.129 C 
ATOM     27  N   UNL     1       0.043  -0.020  -0.079  0.00  0.00    -0.336 N 
ATOM     28  C   UNL     1      -1.213  -0.775  -0.073  0.00  0.00    +0.129 C 
ENDBRANCH  20  27
ENDBRANCH   1  23
BRANCH   3  29
ATOM     29  C   UNL     1       0.845   8.305  -0.901  0.00  0.00    -0.026 A 
ATOM     30  C   UNL     1       1.197   8.311   0.436  0.00  0.00    +0.007 A 
ATOM     31  C   UNL     1       2.403   8.854   0.832  0.00  0.00    +0.023 A 
ATOM     32  C   UNL     1       3.258   9.405  -0.114  0.00  0.00    +0.029 A 
ATOM     33  C   UNL     1       2.899   9.402  -1.456  0.00  0.00    +0.023 A 
ATOM     34  C   UNL     1       1.694   8.852  -1.845  0.00  0.00    +0.007 A 
BRANCH  32  35
ATOM     35  N   UNL     1       4.476   9.961   0.283  0.00  0.00    -0.336 N 
ATOM     36  C   UNL     1       5.432  10.428  -0.724  0.00  0.00    +0.129 C 
ATOM     37  C   UNL     1       4.799  10.077   1.708  0.00  0.00    +0.129 C 
ENDBRANCH  32  35
ENDBRANCH   3  29
TORSDOF 4
