REMARK  Name = ZINC57945331
REMARK  14 active torsions:
REMARK  status: ('A' for Active; 'I' for Inactive)
REMARK    1  A    between atoms: C_1  and  C_2
REMARK    2  A    between atoms: C_5  and  C_29
REMARK    3  A    between atoms: C_6  and  O_8
REMARK    4  A    between atoms: O_8  and  C_9
REMARK    5  A    between atoms: C_9  and  C_10
REMARK    6  A    between atoms: C_10  and  C_12
REMARK    7  A    between atoms: C_10  and  O_28
REMARK    8  A    between atoms: C_12  and  N_13
REMARK    9  A    between atoms: N_13  and  C_14
REMARK   10  A    between atoms: N_13  and  C_15
REMARK   11  A    between atoms: C_15  and  C_17
REMARK   12  A    between atoms: C_15  and  C_18
REMARK   13  A    between atoms: C_21  and  S_24
REMARK   14  A    between atoms: S_24  and  N_27
REMARK                            x       y       z     vdW  Elec       q    Type
REMARK                         _______ _______ _______ _____ _____    ______ ____
ROOT
ATOM      1  N   UNL     1       0.201  -3.027   7.213  0.00  0.00    +0.384 N 
ATOM      2  C   UNL     1      -1.044  -3.806   7.245  0.00  0.00    -0.095 C 
ATOM      3  H   UNL     1       0.984  -3.649   7.081  0.00  0.00    -0.081 HD
ENDROOT
BRANCH   1   4
ATOM      4  C   UNL     1       0.359  -2.303   8.482  0.00  0.00    -0.041 C 
ATOM      5  C   UNL     1       0.414  -3.305   9.637  0.00  0.00    -0.008 C 
BRANCH   4   6
ATOM      6  C   UNL     1       1.636  -1.504   8.449  0.00  0.00    -0.061 A 
ATOM      7  C   UNL     1       2.773  -2.042   7.875  0.00  0.00    +0.004 A 
ATOM      8  C   UNL     1       3.945  -1.308   7.845  0.00  0.00    +0.029 A 
ATOM      9  C   UNL     1       3.979  -0.037   8.388  0.00  0.00    +0.105 A 
ATOM     10  C   UNL     1       2.841   0.501   8.960  0.00  0.00    +0.029 A 
ATOM     11  C   UNL     1       1.669  -0.231   8.986  0.00  0.00    +0.004 A 
BRANCH   9  12
ATOM     12  S   UNL     1       5.472   0.897   8.350  0.00  0.00    +0.056 S 
ATOM     13  O   UNL     1       5.387   1.841   9.409  0.00  0.00    -0.153 OA
ATOM     14  O   UNL     1       6.535  -0.040   8.249  0.00  0.00    -0.153 OA
BRANCH  12  15
ATOM     15  N   UNL     1       5.471   1.765   6.940  0.00  0.00    -0.204 NA
ATOM     16  H   UNL     1       4.725   1.690   6.324  0.00  0.00    +0.144 HD
ATOM     17  H   UNL     1       6.216   2.349   6.730  0.00  0.00    +0.144 HD
ENDBRANCH  12  15
ENDBRANCH   9  12
ENDBRANCH   4   6
ENDBRANCH   1   4
BRANCH   1  18
ATOM     18  C   UNL     1       0.148  -2.065   6.104  0.00  0.00    -0.043 C 
BRANCH  18  19
ATOM     19  C   UNL     1       0.155  -2.820   4.773  0.00  0.00    +0.135 C 
BRANCH  19  20
ATOM     20  O   UNL     1      -1.065  -3.551   4.634  0.00  0.00    -0.390 OA
ATOM     21  H   UNL     1      -1.858  -2.998   4.644  0.00  0.00    +0.210 HD
ENDBRANCH  19  20
BRANCH  19  22
ATOM     22  C   UNL     1       0.286  -1.822   3.621  0.00  0.00    +0.258 C 
BRANCH  22  23
ATOM     23  O   UNL     1       0.409  -2.532   2.387  0.00  0.00    -0.489 OA
BRANCH  23  29
ATOM     24  C   UNL     1       0.672   1.857   0.267  0.00  0.00    +0.044 C 
ATOM     25  C   UNL     1       0.668   0.352   0.184  0.00  0.00    -0.047 A 
ATOM     26  C   UNL     1       0.791  -0.273  -1.044  0.00  0.00    +0.004 A 
ATOM     27  C   UNL     1       0.787  -1.653  -1.123  0.00  0.00    +0.007 A 
ATOM     28  C   UNL     1       0.659  -2.412   0.025  0.00  0.00    -0.009 A 
ATOM     29  C   UNL     1       0.535  -1.788   1.257  0.00  0.00    +0.124 A 
ATOM     30  C   UNL     1       0.545  -0.402   1.335  0.00  0.00    +0.049 A 
ATOM     31  C   UNL     1       0.654  -3.916  -0.063  0.00  0.00    +0.047 C 
ENDBRANCH  23  29
ENDBRANCH  22  23
ENDBRANCH  19  22
ENDBRANCH  18  19
ENDBRANCH   1  18
TORSDOF 10
