REMARK  Name = ZINC66243448
REMARK  8 active torsions:
REMARK  status: ('A' for Active; 'I' for Inactive)
REMARK    1  A    between atoms: C_1  and  C_2
REMARK    2  A    between atoms: C_5  and  C_29
REMARK    3  A    between atoms: N_8  and  C_10
REMARK    4  A    between atoms: C_10  and  C_11
REMARK    5  A    between atoms: C_16  and  C_17
REMARK    6  A    between atoms: C_17  and  N_18
REMARK    7  A    between atoms: N_20  and  C_21
REMARK    8  A    between atoms: C_21  and  C_22
REMARK                            x       y       z     vdW  Elec       q    Type
REMARK                         _______ _______ _______ _____ _____    ______ ____
ROOT
ATOM      1  C   UNL     1       2.516  -2.036   2.265  0.00  0.00    -0.059 A 
ATOM      2  C   UNL     1       3.337  -2.981   1.679  0.00  0.00    +0.002 A 
ATOM      3  C   UNL     1       4.668  -2.689   1.442  0.00  0.00    +0.000 A 
ATOM      4  C   UNL     1       5.176  -1.452   1.790  0.00  0.00    +0.000 A 
ATOM      5  C   UNL     1       4.355  -0.506   2.375  0.00  0.00    +0.005 A 
ATOM      6  C   UNL     1       3.023  -0.797   2.608  0.00  0.00    -0.027 A 
ENDROOT
BRANCH   1   7
ATOM      7  C   UNL     1       1.066  -2.354   2.523  0.00  0.00    -0.043 C 
BRANCH   7  13
ATOM      8  C   UNL     1       2.238  -5.710   5.888  0.00  0.00    +0.005 C 
ATOM      9  C   UNL     1       1.498  -4.394   5.643  0.00  0.00    -0.031 C 
ATOM     10  C   UNL     1       0.022  -4.559   6.016  0.00  0.00    +0.003 C 
ATOM     11  C   UNL     1      -0.725  -3.262   5.694  0.00  0.00    -0.031 C 
ATOM     12  C   UNL     1      -0.535  -2.925   4.213  0.00  0.00    -0.075 C 
ATOM     13  N   UNL     1       0.894  -2.753   3.926  0.00  0.00    +0.383 N 
ATOM     14  C   UNL     1       1.606  -4.014   4.165  0.00  0.00    -0.075 C 
ATOM     15  C   UNL     1      -2.215  -3.442   5.991  0.00  0.00    +0.005 C 
ATOM     16  H   UNL     1       1.273  -2.036   4.526  0.00  0.00    -0.081 HD
ENDBRANCH   7  13
ENDBRANCH   1   7
BRANCH   6  17
ATOM     17  C   UNL     1       2.126   0.235   3.241  0.00  0.00    +0.151 C 
BRANCH  17  18
ATOM     18  N   UNL     1       2.001  -0.039   4.675  0.00  0.00    -0.354 N 
ATOM     19  C   UNL     1       1.138   0.705   5.444  0.00  0.00    +0.169 C 
ATOM     20  N   UNL     1       1.026   0.460   6.720  0.00  0.00    -0.355 N 
ATOM     21  N   UNL     1       0.393   1.707   4.869  0.00  0.00    -0.371 N 
ATOM     22  H   UNL     1       2.526  -0.746   5.081  0.00  0.00    +0.163 HD
ATOM     23  H   UNL     1       0.476   1.889   3.920  0.00  0.00    +0.159 HD
ATOM     24  H   UNL     1      -0.215   2.232   5.412  0.00  0.00    +0.159 HD
ATOM     25  H   UNL     1       1.552  -0.247   7.126  0.00  0.00    +0.162 HD
BRANCH  20  26
ATOM     26  C   UNL     1       0.107   1.253   7.540  0.00  0.00    +0.147 C 
BRANCH  26  27
ATOM     27  C   UNL     1       0.167   0.766   8.989  0.00  0.00    +0.137 C 
ATOM     28  C   UNL     1      -0.885   1.513   9.836  0.00  0.00    +0.035 C 
ATOM     29  C   UNL     1      -0.127   1.747  11.171  0.00  0.00    +0.031 C 
ATOM     30  C   UNL     1       1.320   1.955  10.655  0.00  0.00    +0.160 C 
ATOM     31  O   UNL     1       1.456   1.051   9.545  0.00  0.00    -0.375 OA
ENDBRANCH  26  27
ENDBRANCH  20  26
ENDBRANCH  17  18
ENDBRANCH   6  17
TORSDOF 6
