REMARK  Name = ZINC43285800
REMARK  8 active torsions:
REMARK  status: ('A' for Active; 'I' for Inactive)
REMARK    1  A    between atoms: C_1  and  C_2
REMARK    2  A    between atoms: C_2  and  C_4
REMARK    3  A    between atoms: C_2  and  N_21
REMARK    4  A    between atoms: C_4  and  C_6
REMARK    5  A    between atoms: C_4  and  N_12
REMARK    6  A    between atoms: N_15  and  C_18
REMARK    7  A    between atoms: C_18  and  C_19
REMARK    8  A    between atoms: C_19  and  O_20
REMARK                            x       y       z     vdW  Elec       q    Type
REMARK                         _______ _______ _______ _____ _____    ______ ____
ROOT
ATOM      1  C   UNL     1       0.667  -0.612   1.238  0.00  0.00    +0.079 C 
ENDROOT
BRANCH   1   2
ATOM      2  C   UNL     1       0.865  -2.106   1.218  0.00  0.00    +0.006 A 
ATOM      3  C   UNL     1       1.962  -2.817   0.860  0.00  0.00    +0.028 A 
ATOM      4  C   UNL     1       1.915  -4.197   0.920  0.00  0.00    +0.025 A 
ATOM      5  C   UNL     1       0.773  -4.799   1.335  0.00  0.00    +0.060 A 
ATOM      6  S   UNL     1      -0.284  -3.398   1.665  0.00  0.00    -0.099 S 
ATOM      7 BR   UNL     1       3.421  -5.231   0.431  0.00  0.00    -0.050 Br
ENDBRANCH   1   2
BRANCH   1   8
ATOM      8  N   UNL     1      -0.092  -0.235   2.438  0.00  0.00    -0.294 NA
ATOM      9  C   UNL     1      -0.315   1.217   2.486  0.00  0.00    +0.100 C 
ATOM     10  C   UNL     1      -1.175   1.559   3.705  0.00  0.00    +0.100 C 
ATOM     11  N   UNL     1      -0.500   1.092   4.924  0.00  0.00    -0.298 NA
ATOM     12  C   UNL     1      -0.277  -0.360   4.876  0.00  0.00    +0.100 C 
ATOM     13  C   UNL     1       0.583  -0.702   3.657  0.00  0.00    +0.100 C 
BRANCH  11  14
ATOM     14  C   UNL     1      -1.259   1.469   6.124  0.00  0.00    +0.112 C 
BRANCH  14  15
ATOM     15  C   UNL     1      -0.415   1.192   7.369  0.00  0.00    +0.171 C 
BRANCH  15  16
ATOM     16  O   UNL     1       0.733   2.043   7.366  0.00  0.00    -0.394 OA
ATOM     17  H   UNL     1       1.315   1.922   8.128  0.00  0.00    +0.209 HD
ENDBRANCH  15  16
ENDBRANCH  14  15
ENDBRANCH  11  14
ENDBRANCH   1   8
BRANCH   1  19
ATOM     18  C   UNL     1       0.682  -0.582  -1.260  0.00  0.00    -0.012 C 
ATOM     19  C   UNL     1      -0.105  -0.182  -0.010  0.00  0.00    -0.056 C 
BRANCH  19  20
ATOM     20  N   UNL     1      -1.417  -0.843  -0.026  0.00  0.00    +0.381 N 
ATOM     21  H   UNL     1      -1.290  -1.844  -0.037  0.00  0.00    -0.090 HD
ATOM     22  H   UNL     1      -1.937  -0.580   0.798  0.00  0.00    -0.090 HD
ATOM     23  H   UNL     1      -1.927  -0.560  -0.849  0.00  0.00    -0.090 HD
ENDBRANCH  19  20
ENDBRANCH   1  19
TORSDOF 7
