REMARK  Name = ZINC67216913
REMARK  12 active torsions:
REMARK  status: ('A' for Active; 'I' for Inactive)
REMARK    1  A    between atoms: C_1  and  C_2
REMARK    2  A    between atoms: C_4  and  C_25
REMARK    3  A    between atoms: C_5  and  C_9
REMARK    4  A    between atoms: C_7  and  C_8
REMARK    5  A    between atoms: C_9  and  N_10
REMARK    6  A    between atoms: N_10  and  C_11
REMARK    7  A    between atoms: C_11  and  C_12
REMARK    8  A    between atoms: C_16  and  S_18
REMARK    9  A    between atoms: S_18  and  N_21
REMARK   10  A    between atoms: N_21  and  C_22
REMARK   11  A    between atoms: C_22  and  C_23
REMARK   12  A    between atoms: C_22  and  C_24
REMARK                            x       y       z     vdW  Elec       q    Type
REMARK                         _______ _______ _______ _____ _____    ______ ____
ROOT
ATOM      1  C   UNL     1       1.447  -6.215  -0.280  0.00  0.00    -0.046 C 
ENDROOT
BRANCH   1   2
ATOM      2  C   UNL     1       2.851  -6.698  -0.537  0.00  0.00    -0.063 A 
ATOM      3  C   UNL     1       3.283  -6.910  -1.834  0.00  0.00    +0.002 A 
ATOM      4  C   UNL     1       4.571  -7.353  -2.069  0.00  0.00    +0.002 A 
ATOM      5  C   UNL     1       5.428  -7.583  -1.009  0.00  0.00    +0.028 A 
ATOM      6  C   UNL     1       4.997  -7.370   0.287  0.00  0.00    +0.105 A 
ATOM      7  C   UNL     1       3.710  -6.923   0.522  0.00  0.00    +0.030 A 
BRANCH   6   8
ATOM      8  S   UNL     1       6.088  -7.664   1.638  0.00  0.00    +0.059 S 
ATOM      9  O   UNL     1       5.271  -7.912   2.774  0.00  0.00    -0.153 OA
ATOM     10  O   UNL     1       7.059  -8.595   1.180  0.00  0.00    -0.153 OA
BRANCH   8  11
ATOM     11  N   UNL     1       6.894  -6.247   1.934  0.00  0.00    -0.187 NA
ATOM     12  H   UNL     1       7.853  -6.197   1.799  0.00  0.00    +0.148 HD
BRANCH  11  13
ATOM     13  C   UNL     1       6.157  -5.070   2.400  0.00  0.00    +0.070 C 
ATOM     14  C   UNL     1       6.221  -4.999   3.927  0.00  0.00    +0.025 C 
ATOM     15  C   UNL     1       6.785  -3.808   1.804  0.00  0.00    +0.025 C 
ENDBRANCH  11  13
ENDBRANCH   8  11
ENDBRANCH   6   8
ENDBRANCH   1   2
BRANCH   1  16
ATOM     16  N   UNL     1       1.428  -4.746  -0.272  0.00  0.00    +0.384 N 
ATOM     17  H   UNL     1       1.744  -4.401  -1.166  0.00  0.00    -0.085 HD
ATOM     18  H   UNL     1       2.039  -4.406   0.455  0.00  0.00    -0.085 HD
BRANCH  16  19
ATOM     19  C   UNL     1       0.059  -4.275  -0.021  0.00  0.00    -0.046 C 
BRANCH  19  24
ATOM     20  C   UNL     1      -0.018   1.503   0.010  0.00  0.00    +0.044 C 
ATOM     21  C   UNL     1       0.002  -0.004   0.002  0.00  0.00    -0.047 A 
ATOM     22  C   UNL     1       0.006  -0.689  -1.199  0.00  0.00    +0.007 A 
ATOM     23  C   UNL     1       0.025  -2.071  -1.207  0.00  0.00    -0.049 A 
ATOM     24  C   UNL     1       0.040  -2.768  -0.013  0.00  0.00    -0.061 A 
ATOM     25  C   UNL     1       0.037  -2.084   1.188  0.00  0.00    +0.005 A 
ATOM     26  C   UNL     1       0.023  -0.702   1.195  0.00  0.00    -0.047 A 
ATOM     27  C   UNL     1       0.025   0.045   2.504  0.00  0.00    +0.044 C 
ATOM     28  C   UNL     1       0.027  -2.817  -2.516  0.00  0.00    +0.044 C 
ENDBRANCH  19  24
ENDBRANCH  16  19
ENDBRANCH   1  16
TORSDOF 7
