REMARK  Name = ZINC44145297
REMARK  11 active torsions:
REMARK  status: ('A' for Active; 'I' for Inactive)
REMARK    1  A    between atoms: C_1  and  C_2
REMARK    2  A    between atoms: C_2  and  C_3
REMARK    3  A    between atoms: C_3  and  C_4
REMARK    4  A    between atoms: C_4  and  C_6
REMARK    5  A    between atoms: C_4  and  N_16
REMARK    6  A    between atoms: N_8  and  C_9
REMARK    7  A    between atoms: C_9  and  C_10
REMARK    8  A    between atoms: C_10  and  N_11
REMARK    9  A    between atoms: C_17  and  C_31
REMARK   10  A    between atoms: C_18  and  C_28
REMARK   11  A    between atoms: C_20  and  C_21
REMARK                            x       y       z     vdW  Elec       q    Type
REMARK                         _______ _______ _______ _____ _____    ______ ____
ROOT
ATOM      1  N   UNL     1       1.440  -2.598   2.437  0.00  0.00    -0.331 N 
ATOM      2  C   UNL     1       2.735  -2.381   2.745  0.00  0.00    +0.029 A 
ATOM      3  C   UNL     1       2.951  -2.819   4.034  0.00  0.00    +0.058 A 
ATOM      4  C   UNL     1       1.714  -3.322   4.513  0.00  0.00    +0.041 A 
ATOM      5  C   UNL     1       0.807  -3.167   3.514  0.00  0.00    +0.051 A 
ATOM      6  C   UNL     1       3.768  -1.767   1.836  0.00  0.00    +0.064 C 
ENDROOT
BRANCH   5   7
ATOM      7  C   UNL     1      -0.620  -3.550   3.575  0.00  0.00    -0.001 A 
ATOM      8  C   UNL     1      -1.293  -3.931   2.413  0.00  0.00    +0.013 A 
ATOM      9  C   UNL     1      -2.624  -4.287   2.475  0.00  0.00    +0.039 A 
ATOM     10  C   UNL     1      -3.293  -4.268   3.688  0.00  0.00    +0.123 A 
ATOM     11  C   UNL     1      -2.630  -3.890   4.845  0.00  0.00    +0.039 A 
ATOM     12  C   UNL     1      -1.297  -3.538   4.795  0.00  0.00    +0.013 A 
ATOM     13  F   UNL     1      -4.597  -4.617   3.744  0.00  0.00    -0.205 F 
ENDBRANCH   5   7
BRANCH   3  14
ATOM     14  C   UNL     1       4.224  -2.773   4.774  0.00  0.00    +0.243 C 
ATOM     15  O   UNL     1       5.218  -2.313   4.245  0.00  0.00    -0.270 OA
ATOM     16  N   UNL     1       4.287  -3.240   6.036  0.00  0.00    -0.325 N 
ATOM     17  H   UNL     1       3.494  -3.606   6.458  0.00  0.00    +0.145 HD
ATOM     18  H   UNL     1       5.125  -3.209   6.523  0.00  0.00    +0.145 HD
ENDBRANCH   3  14
BRANCH   1  19
ATOM     19  C   UNL     1       0.807  -2.272   1.157  0.00  0.00    +0.173 C 
BRANCH  19  20
ATOM     20  C   UNL     1       1.382  -3.149   0.074  0.00  0.00    +0.236 C 
ATOM     21  O   UNL     1       2.176  -4.021   0.358  0.00  0.00    -0.274 OA
ATOM     22  N   UNL     1       1.013  -2.965  -1.209  0.00  0.00    -0.315 N 
ATOM     23  H   UNL     1       0.435  -2.223  -1.446  0.00  0.00    +0.149 HD
BRANCH  22  24
ATOM     24  C   UNL     1       1.485  -3.886  -2.246  0.00  0.00    +0.086 C 
BRANCH  24  25
ATOM     25  C   UNL     1       0.925  -3.455  -3.603  0.00  0.00    -0.060 C 
BRANCH  25  26
ATOM     26  N   UNL     1       1.398  -4.379  -4.643  0.00  0.00    +0.381 N 
ATOM     27  C   UNL     1       0.776  -5.715  -4.463  0.00  0.00    -0.079 C 
ATOM     28  C   UNL     1       0.899  -6.357  -5.868  0.00  0.00    -0.020 C 
ATOM     29  C   UNL     1       0.649  -5.162  -6.816  0.00  0.00    -0.020 C 
ATOM     30  C   UNL     1       0.965  -3.909  -5.977  0.00  0.00    -0.079 C 
ATOM     31  H   UNL     1       2.404  -4.455  -4.610  0.00  0.00    -0.082 HD
ENDBRANCH  25  26
ENDBRANCH  24  25
ENDBRANCH  22  24
ENDBRANCH  19  20
BRANCH  19  32
ATOM     32  C   UNL     1       1.071  -0.803   0.817  0.00  0.00    +0.034 C 
BRANCH  32  34
ATOM     33  C   UNL     1       0.744   1.553   1.580  0.00  0.00    +0.004 C 
ATOM     34  C   UNL     1       0.384   0.091   1.851  0.00  0.00    -0.001 C 
ENDBRANCH  32  34
ENDBRANCH  19  32
ENDBRANCH   1  19
TORSDOF 9
