REMARK  Name = ZINC35907976
REMARK  6 active torsions:
REMARK  status: ('A' for Active; 'I' for Inactive)
REMARK    1  A    between atoms: C_6  and  C_7
REMARK    2  A    between atoms: C_12  and  C_27
REMARK    3  A    between atoms: N_19  and  C_21
REMARK    4  A    between atoms: N_29  and  C_30
REMARK    5  A    between atoms: C_30  and  C_31
REMARK    6  A    between atoms: C_31  and  N_32
REMARK                            x       y       z     vdW  Elec       q    Type
REMARK                         _______ _______ _______ _____ _____    ______ ____
ROOT
ATOM      1  C   UNL     1      -0.017   1.378   0.010  0.00  0.00    +0.014 A 
ATOM      2  C   UNL     1       1.169   2.085   0.002  0.00  0.00    +0.024 A 
ATOM      3  C   UNL     1       2.383   1.406  -0.012  0.00  0.00    +0.033 A 
ATOM      4  C   UNL     1       2.399   0.021  -0.016  0.00  0.00    -0.025 A 
ATOM      5  C   UNL     1       1.207  -0.681  -0.011  0.00  0.00    +0.017 A 
ATOM      6  C   UNL     1       0.002  -0.004   0.002  0.00  0.00    +0.055 A 
ATOM      7  C   UNL     1       3.701  -0.737  -0.021  0.00  0.00    +0.051 C 
ATOM      8  C   UNL     1       4.796   0.128   0.600  0.00  0.00    +0.098 C 
ATOM      9  C   UNL     1       4.857   1.477  -0.126  0.00  0.00    +0.069 C 
ATOM     10  N   UNL     1       3.572   2.152  -0.024  0.00  0.00    -0.329 N 
ATOM     11  C   UNL     1       3.453   3.611   0.037  0.00  0.00    +0.087 C 
ATOM     12  C   UNL     1       4.650   4.217   0.766  0.00  0.00    -0.059 C 
ATOM     13  N   UNL     1       5.880   3.712   0.138  0.00  0.00    +0.384 N 
ATOM     14  C   UNL     1       6.014   2.287   0.437  0.00  0.00    -0.055 C 
ATOM     15  H   UNL     1       5.829   3.844  -0.861  0.00  0.00    -0.081 HD
ENDROOT
BRANCH  13  16
ATOM     16  C   UNL     1       7.040   4.438   0.674  0.00  0.00    -0.068 C 
ATOM     17  C   UNL     1       6.891   5.930   0.373  0.00  0.00    -0.015 C 
ATOM     18  C   UNL     1       8.098   6.686   0.931  0.00  0.00    -0.002 C 
ATOM     19  C   UNL     1       9.377   6.159   0.277  0.00  0.00    -0.000 C 
ATOM     20  C   UNL     1       9.526   4.666   0.578  0.00  0.00    -0.002 C 
ATOM     21  C   UNL     1       8.318   3.910   0.019  0.00  0.00    -0.015 C 
ENDBRANCH  13  16
BRANCH   6  22
ATOM     22  C   UNL     1      -1.293  -0.774   0.009  0.00  0.00    +0.417 C 
ATOM     23  F   UNL     1      -2.368   0.122   0.022  0.00  0.00    -0.166 F 
ATOM     24  F   UNL     1      -1.367  -1.573  -1.138  0.00  0.00    -0.166 F 
ATOM     25  F   UNL     1      -1.348  -1.585   1.147  0.00  0.00    -0.166 F 
ENDBRANCH   6  22
BRANCH   8  26
ATOM     26  C   UNL     1       4.489   0.356   2.058  0.00  0.00    +0.218 C 
ATOM     27  O   UNL     1       4.334   1.484   2.476  0.00  0.00    -0.275 OA
ATOM     28  N   UNL     1       4.388  -0.693   2.897  0.00  0.00    -0.314 N 
ATOM     29  H   UNL     1       4.512  -1.595   2.563  0.00  0.00    +0.149 HD
BRANCH  28  30
ATOM     30  C   UNL     1       4.090  -0.472   4.314  0.00  0.00    +0.119 C 
BRANCH  30  31
ATOM     31  C   UNL     1       4.030  -1.818   5.040  0.00  0.00    +0.103 C 
BRANCH  31  32
ATOM     32  N   UNL     1       3.731  -1.595   6.460  0.00  0.00    -0.297 NA
ATOM     33  C   UNL     1       2.376  -1.051   6.635  0.00  0.00    +0.112 C 
ATOM     34  C   UNL     1       2.129  -0.779   8.121  0.00  0.00    +0.175 C 
ATOM     35  O   UNL     1       2.326  -1.987   8.861  0.00  0.00    -0.377 OA
ATOM     36  C   UNL     1       3.635  -2.545   8.714  0.00  0.00    +0.175 C 
ATOM     37  C   UNL     1       3.898  -2.834   7.234  0.00  0.00    +0.112 C 
ENDBRANCH  31  32
ENDBRANCH  30  31
ENDBRANCH  28  30
ENDBRANCH   8  26
TORSDOF 6
