REMARK  Name = ZINC02934320
REMARK  4 active torsions:
REMARK  status: ('A' for Active; 'I' for Inactive)
REMARK    1  A    between atoms: C_6  and  C_7
REMARK    2  A    between atoms: C_10  and  C_24
REMARK    3  A    between atoms: C_13  and  C_15
REMARK    4  A    between atoms: C_29  and  O_30
REMARK                            x       y       z     vdW  Elec       q    Type
REMARK                         _______ _______ _______ _____ _____    ______ ____
ROOT
ATOM      1  C   UNL     1      -1.293  -0.775   0.011  0.00  0.00    +0.081 C 
ATOM      2  N   UNL     1      -1.083  -2.063   0.681  0.00  0.00    +0.401 N 
ATOM      3  C   UNL     1      -2.382  -2.738   0.835  0.00  0.00    -0.028 C 
ATOM      4  C   UNL     1      -3.214  -1.953   1.853  0.00  0.00    +0.044 C 
ATOM      5  C   UNL     1      -3.170  -0.489   1.510  0.00  0.00    +0.040 C 
ATOM      6  N   UNL     1      -2.312   0.007   0.700  0.00  0.00    -0.299 NA
ATOM      7  H   UNL     1      -0.468  -2.637   0.124  0.00  0.00    -0.081 HD
ATOM      8  H   UNL     1      -0.673  -1.908   1.589  0.00  0.00    -0.081 HD
ENDROOT
BRANCH   5   9
ATOM      9  C   UNL     1      -4.156   0.412   2.134  0.00  0.00    -0.001 A 
ATOM     10  C   UNL     1      -5.102  -0.095   3.029  0.00  0.00    +0.013 A 
ATOM     11  C   UNL     1      -6.022   0.749   3.611  0.00  0.00    +0.050 A 
ATOM     12  C   UNL     1      -6.014   2.105   3.312  0.00  0.00    +0.166 A 
ATOM     13  C   UNL     1      -5.072   2.618   2.420  0.00  0.00    +0.167 A 
ATOM     14  C   UNL     1      -4.143   1.778   1.837  0.00  0.00    +0.059 A 
ATOM     15  O   UNL     1      -5.275   3.963   2.299  0.00  0.00    -0.453 OA
ATOM     16  C   UNL     1      -6.601   4.198   2.806  0.00  0.00    +0.466 C 
ATOM     17  O   UNL     1      -6.803   3.128   3.748  0.00  0.00    -0.453 OA
ENDBRANCH   5   9
BRANCH   1  23
ATOM     18  C   UNL     1      -0.017   1.378   0.010  0.00  0.00    +0.005 A 
ATOM     19  C   UNL     1       1.171   2.086   0.002  0.00  0.00    +0.020 A 
ATOM     20  C   UNL     1       2.378   1.410  -0.013  0.00  0.00    +0.041 A 
ATOM     21  C   UNL     1       2.396   0.027  -0.021  0.00  0.00    +0.020 A 
ATOM     22  C   UNL     1       1.208  -0.679  -0.013  0.00  0.00    +0.005 A 
ATOM     23  C   UNL     1       0.002  -0.004   0.002  0.00  0.00    -0.040 A 
ATOM     24 CL   UNL     1       3.870   2.298  -0.023  0.00  0.00    -0.084 Cl
ENDBRANCH   1  23
BRANCH   3  25
ATOM     25  C   UNL     1      -2.168  -4.146   1.330  0.00  0.00    -0.018 A 
ATOM     26  C   UNL     1      -1.029  -4.460   2.046  0.00  0.00    +0.020 A 
ATOM     27  C   UNL     1      -0.832  -5.752   2.501  0.00  0.00    +0.018 A 
ATOM     28  C   UNL     1      -1.774  -6.731   2.239  0.00  0.00    +0.019 A 
ATOM     29  C   UNL     1      -2.914  -6.420   1.524  0.00  0.00    +0.047 A 
ATOM     30  C   UNL     1      -3.116  -5.124   1.071  0.00  0.00    +0.119 A 
ATOM     31 BR   UNL     1       0.728  -6.180   3.480  0.00  0.00    -0.050 Br
BRANCH  30  32
ATOM     32  O   UNL     1      -4.239  -4.815   0.371  0.00  0.00    -0.507 OA
ATOM     33  H   UNL     1      -4.150  -4.928  -0.585  0.00  0.00    +0.292 HD
ENDBRANCH  30  32
ENDBRANCH   3  25
TORSDOF 4
