REMARK  Name = ZINC64138770
REMARK  9 active torsions:
REMARK  status: ('A' for Active; 'I' for Inactive)
REMARK    1  A    between atoms: C_1  and  C_2
REMARK    2  A    between atoms: C_2  and  C_4
REMARK    3  A    between atoms: C_2  and  N_9
REMARK    4  A    between atoms: C_10  and  C_12
REMARK    5  A    between atoms: C_12  and  S_13
REMARK    6  A    between atoms: S_13  and  C_14
REMARK    7  A    between atoms: C_18  and  C_26
REMARK    8  A    between atoms: N_19  and  C_20
REMARK    9  A    between atoms: C_20  and  C_21
REMARK                            x       y       z     vdW  Elec       q    Type
REMARK                         _______ _______ _______ _____ _____    ______ ____
ROOT
ATOM      1  C   UNL     1       5.387  -1.788   3.755  0.00  0.00    +0.237 C 
ATOM      2  N   UNL     1       5.173  -1.014   4.988  0.00  0.00    -0.237 N 
ATOM      3  N   UNL     1       4.296  -1.763   5.781  0.00  0.00    -0.169 NA
ATOM      4  C   UNL     1       3.958  -2.879   5.191  0.00  0.00    +0.147 C 
ATOM      5  N   UNL     1       4.572  -3.000   3.938  0.00  0.00    -0.278 N 
ATOM      6  H   UNL     1       5.563  -0.153   5.208  0.00  0.00    +0.171 HD
ENDROOT
BRANCH   4   7
ATOM      7  C   UNL     1       3.092  -3.835   5.742  0.00  0.00    +0.022 C 
ATOM      8  C   UNL     1       2.365  -3.730   6.929  0.00  0.00    +0.006 A 
ATOM      9  C   UNL     1       2.263  -2.708   7.897  0.00  0.00    +0.010 A 
ATOM     10  C   UNL     1       1.459  -2.882   8.977  0.00  0.00    +0.001 A 
ATOM     11  C   UNL     1       0.723  -4.054   9.160  0.00  0.00    +0.002 A 
ATOM     12  C   UNL     1       0.772  -5.076   8.270  0.00  0.00    +0.026 A 
ATOM     13  C   UNL     1       1.591  -4.968   7.116  0.00  0.00    +0.043 A 
ATOM     14  N   UNL     1       1.808  -5.803   6.119  0.00  0.00    -0.380 N 
ATOM     15  C   UNL     1       2.745  -5.193   5.171  0.00  0.00    +0.152 C 
ATOM     16  H   UNL     1       1.408  -6.682   6.026  0.00  0.00    +0.160 HD
ENDBRANCH   4   7
BRANCH   1  17
ATOM     17  S   UNL     1       4.817  -0.852   2.310  0.00  0.00    -0.109 S 
BRANCH  17  18
ATOM     18  C   UNL     1       3.077  -0.495   2.678  0.00  0.00    +0.168 C 
BRANCH  18  20
ATOM     19  N   UNL     1       1.182   0.670   1.596  0.00  0.00    -0.305 N 
ATOM     20  C   UNL     1       2.474   0.290   1.541  0.00  0.00    +0.224 C 
ATOM     21  O   UNL     1       3.151   0.581   0.578  0.00  0.00    -0.275 OA
ATOM     22  H   UNL     1       0.640   0.438   2.366  0.00  0.00    +0.149 HD
BRANCH  19  24
ATOM     23  C   UNL     1       0.889   2.922   0.688  0.00  0.00    +0.036 C 
ATOM     24  C   UNL     1       0.596   1.433   0.491  0.00  0.00    +0.136 C 
BRANCH  24  25
ATOM     25  C   UNL     1      -0.895   1.214   0.464  0.00  0.00    +0.125 A 
ATOM     26  C   UNL     1      -1.647   1.050  -0.639  0.00  0.00    +0.046 A 
ATOM     27  C   UNL     1      -2.981   0.877  -0.204  0.00  0.00    +0.041 A 
ATOM     28  C   UNL     1      -2.965   0.946   1.139  0.00  0.00    +0.195 A 
ATOM     29  O   UNL     1      -1.698   1.145   1.539  0.00  0.00    -0.466 OA
ENDBRANCH  24  25
ENDBRANCH  19  24
ENDBRANCH  18  20
ENDBRANCH  17  18
ENDBRANCH   1  17
BRANCH   5  30
ATOM     30  C   UNL     1       4.431  -4.112   2.994  0.00  0.00    +0.183 C 
BRANCH  30  31
ATOM     31  C   UNL     1       3.302  -3.821   2.040  0.00  0.00    +0.122 A 
ATOM     32  C   UNL     1       3.427  -3.291   0.810  0.00  0.00    +0.046 A 
ATOM     33  C   UNL     1       2.124  -3.192   0.272  0.00  0.00    +0.041 A 
ATOM     34  C   UNL     1       1.280  -3.668   1.204  0.00  0.00    +0.195 A 
ATOM     35  O   UNL     1       1.999  -4.053   2.271  0.00  0.00    -0.466 OA
ENDBRANCH  30  31
ENDBRANCH   5  30
TORSDOF 8
