REMARK  Name = ZINC67584926
REMARK  15 active torsions:
REMARK  status: ('A' for Active; 'I' for Inactive)
REMARK    1  A    between atoms: C_1  and  C_2
REMARK    2  A    between atoms: C_2  and  C_3
REMARK    3  A    between atoms: C_3  and  C_4
REMARK    4  A    between atoms: N_6  and  C_7
REMARK    5  A    between atoms: C_11  and  N_14
REMARK    6  A    between atoms: C_12  and  C_13
REMARK    7  A    between atoms: N_17  and  C_18
REMARK    8  A    between atoms: C_18  and  C_19
REMARK    9  A    between atoms: C_19  and  C_20
REMARK   10  A    between atoms: C_19  and  C_22
REMARK   11  A    between atoms: C_19  and  N_24
REMARK   12  A    between atoms: C_20  and  C_21
REMARK   13  A    between atoms: C_22  and  C_23
REMARK   14  A    between atoms: N_24  and  C_25
REMARK   15  A    between atoms: N_24  and  C_26
REMARK                            x       y       z     vdW  Elec       q    Type
REMARK                         _______ _______ _______ _____ _____    ______ ____
ROOT
ATOM      1  N   UNL     1       1.857  -7.492  -4.338  0.00  0.00    -0.269 N 
ATOM      2  C   UNL     1       2.264  -8.776  -4.396  0.00  0.00    +0.304 C 
ATOM      3  O   UNL     1       1.837  -9.586  -3.597  0.00  0.00    -0.253 OA
ATOM      4  N   UNL     1       3.145  -9.161  -5.341  0.00  0.00    -0.300 N 
ATOM      5  H   UNL     1       2.246  -6.833  -4.933  0.00  0.00    +0.156 HD
ATOM      6  H   UNL     1       3.485  -8.515  -5.979  0.00  0.00    +0.150 HD
ENDROOT
BRANCH   1  11
ATOM      7  C   UNL     1      -1.000  -5.731  -2.825  0.00  0.00    +0.038 A 
ATOM      8  C   UNL     1      -1.070  -6.363  -1.590  0.00  0.00    +0.024 A 
ATOM      9  C   UNL     1      -0.172  -7.363  -1.272  0.00  0.00    +0.004 A 
ATOM     10  C   UNL     1       0.798  -7.739  -2.181  0.00  0.00    +0.024 A 
ATOM     11  C   UNL     1       0.874  -7.112  -3.418  0.00  0.00    +0.039 A 
ATOM     12  C   UNL     1      -0.030  -6.110  -3.742  0.00  0.00    -0.008 A 
ATOM     13  C   UNL     1       0.045  -5.432  -5.086  0.00  0.00    +0.047 C 
BRANCH   7  16
ATOM     14  C   UNL     1      -3.099  -4.656  -2.517  0.00  0.00    +0.217 C 
ATOM     15  O   UNL     1      -3.427  -5.538  -1.751  0.00  0.00    -0.275 OA
ATOM     16  N   UNL     1      -1.909  -4.718  -3.146  0.00  0.00    -0.285 N 
ATOM     17  H   UNL     1      -1.684  -4.060  -3.822  0.00  0.00    +0.155 HD
BRANCH  14  18
ATOM     18  C   UNL     1      -4.023  -3.491  -2.764  0.00  0.00    +0.096 C 
BRANCH  18  20
ATOM     19  C   UNL     1      -6.234  -2.482  -2.183  0.00  0.00    +0.004 C 
ATOM     20  C   UNL     1      -5.296  -3.664  -1.932  0.00  0.00    +0.006 C 
ENDBRANCH  18  20
ENDBRANCH  14  18
ENDBRANCH   7  16
ENDBRANCH   1  11
BRANCH   4  21
ATOM     21  C   UNL     1       3.587 -10.556  -5.405  0.00  0.00    +0.094 C 
BRANCH  21  22
ATOM     22  C   UNL     1       4.713 -10.688  -6.432  0.00  0.00    -0.051 C 
BRANCH  22  23
ATOM     23  N   UNL     1       5.905  -9.980  -5.945  0.00  0.00    +0.381 N 
ATOM     24  C   UNL     1       6.980 -10.089  -6.941  0.00  0.00    -0.096 C 
ATOM     25  C   UNL     1       5.580  -8.565  -5.728  0.00  0.00    -0.096 C 
ATOM     26  H   UNL     1       6.209 -10.393  -5.076  0.00  0.00    -0.082 HD
ENDBRANCH  22  23
BRANCH  22  27
ATOM     27  C   UNL     1       5.046 -12.167  -6.638  0.00  0.00    -0.014 C 
ATOM     28  C   UNL     1       5.501 -12.776  -5.310  0.00  0.00    +0.002 C 
ENDBRANCH  22  27
BRANCH  22  29
ATOM     29  C   UNL     1       4.266 -10.077  -7.762  0.00  0.00    -0.014 C 
ATOM     30  C   UNL     1       2.952 -10.724  -8.204  0.00  0.00    +0.002 C 
ENDBRANCH  22  29
ENDBRANCH  21  22
ENDBRANCH   4  21
TORSDOF 9
