REMARK  Name = ZINC28884773
REMARK  5 active torsions:
REMARK  status: ('A' for Active; 'I' for Inactive)
REMARK    1  A    between atoms: C_3  and  C_25
REMARK    2  A    between atoms: C_5  and  C_7
REMARK    3  A    between atoms: C_10  and  N_24
REMARK    4  A    between atoms: C_15  and  C_16
REMARK    5  A    between atoms: C_25  and  C_26
REMARK                            x       y       z     vdW  Elec       q    Type
REMARK                         _______ _______ _______ _____ _____    ______ ____
ROOT
ATOM      1  C   UNL     1       1.151  -2.113  -0.710  0.00  0.00    +0.012 A 
ATOM      2  C   UNL     1       1.361  -2.763  -1.921  0.00  0.00    +0.093 A 
ATOM      3  N   UNL     1       1.415  -4.083  -1.965  0.00  0.00    -0.349 N 
ATOM      4  C   UNL     1       1.278  -4.849  -0.903  0.00  0.00    +0.103 A 
ATOM      5  C   UNL     1       1.059  -4.291   0.383  0.00  0.00    +0.035 A 
ATOM      6  C   UNL     1       1.006  -2.884   0.442  0.00  0.00    +0.032 A 
ATOM      7  S   UNL     1       0.737  -2.539   2.159  0.00  0.00    -0.095 S 
ATOM      8  C   UNL     1       0.704  -4.210   2.779  0.00  0.00    +0.055 A 
ATOM      9  C   UNL     1       0.884  -4.962   1.668  0.00  0.00    +0.000 A 
ATOM     10  H   UNL     1       1.562  -4.509  -2.824  0.00  0.00    +0.167 HD
ENDROOT
BRANCH   9  11
ATOM     11  C   UNL     1       0.922  -6.442   1.757  0.00  0.00    -0.015 A 
ATOM     12  C   UNL     1       2.041  -7.141   1.305  0.00  0.00    +0.011 A 
ATOM     13  C   UNL     1       2.072  -8.518   1.390  0.00  0.00    +0.040 A 
ATOM     14  C   UNL     1       0.995  -9.206   1.923  0.00  0.00    +0.142 A 
ATOM     15  C   UNL     1      -0.119  -8.516   2.374  0.00  0.00    +0.077 A 
ATOM     16  C   UNL     1      -0.158  -7.138   2.298  0.00  0.00    +0.031 A 
ATOM     17 CL   UNL     1      -1.466  -9.385   3.041  0.00  0.00    -0.081 Cl
ATOM     18  F   UNL     1       1.030 -10.554   2.003  0.00  0.00    -0.204 F 
ENDBRANCH   9  11
BRANCH   1  23
ATOM     19  C   UNL     1      -0.021   1.371   0.074  0.00  0.00    +0.001 A 
ATOM     20  C   UNL     1       0.971   2.130  -0.521  0.00  0.00    +0.004 A 
ATOM     21  C   UNL     1       2.021   1.514  -1.178  0.00  0.00    -0.038 A 
ATOM     22  C   UNL     1       2.084   0.137  -1.242  0.00  0.00    +0.012 A 
ATOM     23  C   UNL     1       1.088  -0.633  -0.644  0.00  0.00    -0.015 A 
ATOM     24  C   UNL     1       0.032  -0.006   0.016  0.00  0.00    +0.008 A 
BRANCH  21  25
ATOM     25  C   UNL     1       3.097   2.347  -1.824  0.00  0.00    +0.130 C 
BRANCH  25  26
ATOM     26  C   UNL     1       4.199   2.604  -0.829  0.00  0.00    +0.215 C 
ATOM     27  O   UNL     1       4.119   2.154   0.294  0.00  0.00    -0.276 OA
ATOM     28  N   UNL     1       5.274   3.333  -1.188  0.00  0.00    -0.329 N 
ATOM     29  H   UNL     1       5.338   3.693  -2.086  0.00  0.00    +0.145 HD
ATOM     30  H   UNL     1       5.984   3.498  -0.547  0.00  0.00    +0.145 HD
ENDBRANCH  25  26
ENDBRANCH  21  25
ENDBRANCH   1  23
BRANCH   4  31
ATOM     31  N   UNL     1       1.348  -6.228  -1.044  0.00  0.00    -0.344 N 
ATOM     32  H   UNL     1       1.875  -6.616  -1.760  0.00  0.00    +0.144 HD
ATOM     33  H   UNL     1       0.870  -6.803  -0.426  0.00  0.00    +0.144 HD
ENDBRANCH   4  31
TORSDOF 5
