REMARK  Name = ZINC67400500
REMARK  11 active torsions:
REMARK  status: ('A' for Active; 'I' for Inactive)
REMARK    1  A    between atoms: C_1  and  C_2
REMARK    2  A    between atoms: C_2  and  C_4
REMARK    3  A    between atoms: C_2  and  N_12
REMARK    4  A    between atoms: N_6  and  C_7
REMARK    5  A    between atoms: C_7  and  C_8
REMARK    6  A    between atoms: C_8  and  C_9
REMARK    7  A    between atoms: C_9  and  O_10
REMARK    8  A    between atoms: O_10  and  C_11
REMARK    9  A    between atoms: C_15  and  C_18
REMARK   10  A    between atoms: C_18  and  C_20
REMARK   11  A    between atoms: C_18  and  O_27
REMARK                            x       y       z     vdW  Elec       q    Type
REMARK                         _______ _______ _______ _____ _____    ______ ____
ROOT
ATOM      1  N   UNL     1      -1.096  -0.936  -0.287  0.00  0.00    +0.387 N 
ATOM      2  C   UNL     1      -1.747  -0.548  -1.544  0.00  0.00    -0.077 C 
ATOM      3  C   UNL     1      -2.942  -1.466  -1.809  0.00  0.00    -0.012 C 
ATOM      4  C   UNL     1      -2.454  -2.914  -1.911  0.00  0.00    +0.019 C 
ATOM      5  C   UNL     1      -1.712  -3.284  -0.624  0.00  0.00    -0.012 C 
ATOM      6  C   UNL     1      -0.562  -2.298  -0.403  0.00  0.00    -0.077 C 
ATOM      7  H   UNL     1      -1.770  -0.903   0.463  0.00  0.00    -0.081 HD
ENDROOT
BRANCH   1   9
ATOM      8  C   UNL     1      -0.555   1.415   0.136  0.00  0.00    -0.004 C 
ATOM      9  C   UNL     1       0.002  -0.004   0.002  0.00  0.00    +0.016 C 
BRANCH   9  10
ATOM     10  C   UNL     1       0.674  -0.404   1.290  0.00  0.00    +0.199 C 
ATOM     11  O   UNL     1       0.042  -0.978   2.151  0.00  0.00    -0.278 OA
ATOM     12  N   UNL     1       1.978  -0.123   1.486  0.00  0.00    -0.317 N 
ATOM     13  H   UNL     1       2.483   0.336   0.797  0.00  0.00    +0.149 HD
BRANCH  12  14
ATOM     14  C   UNL     1       2.631  -0.511   2.738  0.00  0.00    +0.106 C 
BRANCH  14  15
ATOM     15  C   UNL     1       4.098  -0.079   2.704  0.00  0.00    +0.047 C 
BRANCH  15  16
ATOM     16  C   UNL     1       4.780  -0.485   4.012  0.00  0.00    +0.161 C 
BRANCH  16  17
ATOM     17  O   UNL     1       6.150  -0.081   3.980  0.00  0.00    -0.383 OA
ATOM     18  C   UNL     1       6.882  -0.414   5.161  0.00  0.00    +0.193 C 
ENDBRANCH  16  17
ENDBRANCH  15  16
ENDBRANCH  14  15
ENDBRANCH  12  14
ENDBRANCH   9  10
ENDBRANCH   1   9
BRANCH   4  19
ATOM     19  C   UNL     1      -3.653  -3.846  -2.096  0.00  0.00    +0.147 C 
BRANCH  19  20
ATOM     20  C   UNL     1      -3.171  -5.270  -2.197  0.00  0.00    -0.019 A 
ATOM     21  C   UNL     1      -2.950  -6.008  -1.049  0.00  0.00    +0.007 A 
ATOM     22  C   UNL     1      -2.508  -7.314  -1.140  0.00  0.00    +0.020 A 
ATOM     23  C   UNL     1      -2.286  -7.883  -2.382  0.00  0.00    +0.041 A 
ATOM     24  C   UNL     1      -2.507  -7.145  -3.530  0.00  0.00    +0.020 A 
ATOM     25  C   UNL     1      -2.955  -5.840  -3.438  0.00  0.00    +0.007 A 
ATOM     26 CL   UNL     1      -1.730  -9.524  -2.498  0.00  0.00    -0.084 Cl
ENDBRANCH  19  20
BRANCH  19  27
ATOM     27  O   UNL     1      -4.533  -3.719  -0.978  0.00  0.00    -0.387 OA
ATOM     28  H   UNL     1      -4.125  -3.943  -0.130  0.00  0.00    +0.210 HD
ENDBRANCH  19  27
ENDBRANCH   4  19
TORSDOF 9
