REMARK  Name = ZINC03455645
REMARK  9 active torsions:
REMARK  status: ('A' for Active; 'I' for Inactive)
REMARK    1  A    between atoms: C_1  and  C_2
REMARK    2  A    between atoms: C_5  and  C_26
REMARK    3  A    between atoms: N_8  and  C_10
REMARK    4  A    between atoms: C_10  and  C_11
REMARK    5  A    between atoms: N_13  and  C_14
REMARK    6  A    between atoms: C_14  and  C_15
REMARK    7  A    between atoms: C_15  and  C_16
REMARK    8  A    between atoms: C_19  and  S_22
REMARK    9  A    between atoms: S_22  and  N_25
REMARK                            x       y       z     vdW  Elec       q    Type
REMARK                         _______ _______ _______ _____ _____    ______ ____
ROOT
ATOM      1  C   UNL     1       2.154   0.211   3.646  0.00  0.00    +0.196 C 
ATOM      2  O   UNL     1       2.456   0.971   2.750  0.00  0.00    -0.278 OA
ATOM      3  N   UNL     1       3.023  -0.029   4.647  0.00  0.00    -0.317 N 
ATOM      4  H   UNL     1       2.781  -0.637   5.364  0.00  0.00    +0.149 HD
ENDROOT
BRANCH   1   5
ATOM      5  C   UNL     1       0.807  -0.464   3.639  0.00  0.00    +0.019 C 
BRANCH   5  11
ATOM      6  C   UNL     1      -0.019   1.526   0.010  0.00  0.00    +0.005 C 
ATOM      7  C   UNL     1       0.002  -0.004   0.002  0.00  0.00    -0.031 C 
ATOM      8  C   UNL     1      -1.434  -0.535   0.015  0.00  0.00    +0.003 C 
ATOM      9  C   UNL     1      -2.117  -0.099   1.315  0.00  0.00    -0.031 C 
ATOM     10  C   UNL     1      -1.302  -0.604   2.507  0.00  0.00    -0.075 C 
ATOM     11  N   UNL     1       0.052  -0.040   2.452  0.00  0.00    +0.386 N 
ATOM     12  C   UNL     1       0.740  -0.512   1.242  0.00  0.00    -0.075 C 
ATOM     13  C   UNL     1      -3.528  -0.689   1.373  0.00  0.00    +0.005 C 
ATOM     14  H   UNL     1      -0.004   0.967   2.434  0.00  0.00    -0.081 HD
ENDBRANCH   5  11
ENDBRANCH   1   5
BRANCH   3  15
ATOM     15  C   UNL     1       4.333   0.627   4.654  0.00  0.00    +0.109 C 
BRANCH  15  16
ATOM     16  C   UNL     1       5.118   0.185   5.891  0.00  0.00    +0.054 C 
BRANCH  16  17
ATOM     17  C   UNL     1       6.465   0.861   5.898  0.00  0.00    -0.046 A 
ATOM     18  C   UNL     1       7.543   0.259   5.276  0.00  0.00    +0.005 A 
ATOM     19  C   UNL     1       8.779   0.879   5.282  0.00  0.00    +0.029 A 
ATOM     20  C   UNL     1       8.937   2.100   5.910  0.00  0.00    +0.105 A 
ATOM     21  C   UNL     1       7.858   2.702   6.531  0.00  0.00    +0.029 A 
ATOM     22  C   UNL     1       6.622   2.085   6.521  0.00  0.00    +0.005 A 
BRANCH  20  23
ATOM     23  S   UNL     1      10.512   2.889   5.920  0.00  0.00    +0.056 S 
ATOM     24  O   UNL     1      10.522   3.762   7.041  0.00  0.00    -0.153 OA
ATOM     25  O   UNL     1      11.480   1.865   5.742  0.00  0.00    -0.153 OA
BRANCH  23  26
ATOM     26  N   UNL     1      10.587   3.849   4.572  0.00  0.00    -0.204 NA
ATOM     27  H   UNL     1      11.118   4.661   4.584  0.00  0.00    +0.144 HD
ATOM     28  H   UNL     1      10.099   3.600   3.771  0.00  0.00    +0.144 HD
ENDBRANCH  23  26
ENDBRANCH  20  23
ENDBRANCH  16  17
ENDBRANCH  15  16
ENDBRANCH   3  15
TORSDOF 7
