REMARK  Name = ZINC20539010
REMARK  16 active torsions:
REMARK  status: ('A' for Active; 'I' for Inactive)
REMARK    1  A    between atoms: C_1  and  C_2
REMARK    2  A    between atoms: C_2  and  C_3
REMARK    3  A    between atoms: C_2  and  C_4
REMARK    4  A    between atoms: C_6  and  C_9
REMARK    5  A    between atoms: C_9  and  N_10
REMARK    6  A    between atoms: N_10  and  C_11
REMARK    7  A    between atoms: C_11  and  C_12
REMARK    8  A    between atoms: C_15  and  O_31
REMARK    9  A    between atoms: C_17  and  O_18
REMARK   10  A    between atoms: O_18  and  C_19
REMARK   11  A    between atoms: C_19  and  C_20
REMARK   12  A    between atoms: C_20  and  C_22
REMARK   13  A    between atoms: C_20  and  O_30
REMARK   14  A    between atoms: C_22  and  N_23
REMARK   15  A    between atoms: N_26  and  C_29
REMARK   16  A    between atoms: O_31  and  C_32
REMARK                            x       y       z     vdW  Elec       q    Type
REMARK                         _______ _______ _______ _____ _____    ______ ____
ROOT
ATOM      1  C   UNL     1      -1.412  -0.526   0.013  0.00  0.00    -0.022 A 
ATOM      2  C   UNL     1      -1.974  -0.971   1.194  0.00  0.00    +0.009 A 
ATOM      3  C   UNL     1      -3.272  -1.445   1.208  0.00  0.00    +0.046 A 
ATOM      4  C   UNL     1      -4.010  -1.485   0.033  0.00  0.00    +0.124 A 
ATOM      5  C   UNL     1      -3.446  -1.044  -1.154  0.00  0.00    +0.091 A 
ATOM      6  C   UNL     1      -2.146  -0.564  -1.164  0.00  0.00    +0.125 A 
ENDROOT
BRANCH   4   7
ATOM      7  O   UNL     1      -5.285  -1.956   0.046  0.00  0.00    -0.495 OA
ATOM      8  C   UNL     1      -5.801  -2.394   1.305  0.00  0.00    +0.277 C 
ENDBRANCH   4   7
BRANCH   1   9
ATOM      9  C   UNL     1       0.002  -0.004   0.002  0.00  0.00    -0.043 C 
BRANCH   9  10
ATOM     10  N   UNL     1      -0.018   1.465   0.010  0.00  0.00    +0.387 N 
ATOM     11  H   UNL     1      -0.542   1.806   0.915  0.00  0.00    -0.085 HD
ATOM     12  H   UNL     1      -0.559   1.815  -0.881  0.00  0.00    -0.085 HD
BRANCH  10  13
ATOM     13  C   UNL     1       1.346   2.010   0.000  0.00  0.00    -0.004 C 
BRANCH  13  16
ATOM     14  C   UNL     1       1.206   5.625   0.558  0.00  0.00    +0.086 A 
ATOM     15  C   UNL     1       1.263   4.320   1.098  0.00  0.00    +0.069 A 
ATOM     16  C   UNL     1       1.286   3.516   0.009  0.00  0.00    +0.121 A 
ATOM     17  O   UNL     1       1.249   4.323  -1.060  0.00  0.00    -0.361 OA
ATOM     18  N   UNL     1       1.200   5.487  -0.736  0.00  0.00    -0.083 NA
BRANCH  14  20
ATOM     19  C   UNL     1      -0.285   7.237   1.711  0.00  0.00    +0.014 C 
ATOM     20  C   UNL     1       1.162   6.920   1.328  0.00  0.00    +0.035 C 
ATOM     21  C   UNL     1       2.008   6.788   2.596  0.00  0.00    +0.014 C 
ENDBRANCH  14  20
ENDBRANCH  13  16
ENDBRANCH  10  13
ENDBRANCH   9  10
ENDBRANCH   1   9
BRANCH   6  22
ATOM     22  O   UNL     1      -1.590  -0.131  -2.326  0.00  0.00    -0.489 OA
BRANCH  22  23
ATOM     23  C   UNL     1      -2.403  -0.199  -3.499  0.00  0.00    +0.261 C 
BRANCH  23  24
ATOM     24  C   UNL     1      -1.613   0.328  -4.699  0.00  0.00    +0.166 C 
BRANCH  24  25
ATOM     25  O   UNL     1      -0.505  -0.538  -4.957  0.00  0.00    -0.387 OA
ATOM     26  H   UNL     1       0.182  -0.319  -5.787  0.00  0.00    +0.210 HD
ENDBRANCH  24  25
BRANCH  24  27
ATOM     27  C   UNL     1      -2.522   0.372  -5.929  0.00  0.00    +0.119 C 
BRANCH  27  28
ATOM     28  N   UNL     1      -1.764   0.877  -7.081  0.00  0.00    -0.303 NA
ATOM     29  C   UNL     1      -1.379   2.282  -6.883  0.00  0.00    +0.066 C 
ATOM     30  C   UNL     1      -0.525   2.745  -8.066  0.00  0.00    -0.064 C 
ATOM     31  N   UNL     1      -1.287   2.581  -9.311  0.00  0.00    +0.379 N 
ATOM     32  C   UNL     1      -1.672   1.177  -9.509  0.00  0.00    -0.064 C 
ATOM     33  C   UNL     1      -2.526   0.713  -8.326  0.00  0.00    +0.066 C 
ATOM     34  C   UNL     1      -0.529   3.087 -10.463  0.00  0.00    -0.096 C 
ATOM     35  H   UNL     1      -2.208   3.177  -9.227  0.00  0.00    -0.082 HD
ENDBRANCH  27  28
ENDBRANCH  24  27
ENDBRANCH  23  24
ENDBRANCH  22  23
ENDBRANCH   6  22
TORSDOF 12
