REMARK  Name = ZINC09332392
REMARK  7 active torsions:
REMARK  status: ('A' for Active; 'I' for Inactive)
REMARK    1  A    between atoms: C_1  and  C_2
REMARK    2  A    between atoms: C_2  and  C_3
REMARK    3  A    between atoms: C_2  and  C_4
REMARK    4  A    between atoms: C_2  and  C_5
REMARK    5  A    between atoms: C_5  and  C_7
REMARK    6  A    between atoms: C_9  and  C_31
REMARK    7  A    between atoms: C_31  and  C_33
REMARK                            x       y       z     vdW  Elec       q    Type
REMARK                         _______ _______ _______ _____ _____    ______ ____
ROOT
ATOM      1  C   UNL     1       0.436   5.200   1.504  0.00  0.00    +0.136 C 
ATOM      2  C   UNL     1       1.805   5.472   0.827  0.00  0.00    +0.108 C 
ATOM      3  C   UNL     1       2.046   4.153   0.062  0.00  0.00    +0.107 C 
ATOM      4  C   UNL     1       2.703   3.125   0.914  0.00  0.00    -0.008 A 
ATOM      5  C   UNL     1       2.327   2.527   2.098  0.00  0.00    +0.006 A 
ATOM      6  C   UNL     1       3.198   1.587   2.637  0.00  0.00    +0.000 A 
ATOM      7  C   UNL     1       4.386   1.267   2.013  0.00  0.00    +0.002 A 
ATOM      8  C   UNL     1       4.772   1.862   0.822  0.00  0.00    +0.023 A 
ATOM      9  C   UNL     1       3.908   2.808   0.270  0.00  0.00    +0.038 A 
ATOM     10  N   UNL     1       4.041   3.546  -0.894  0.00  0.00    -0.284 N 
ATOM     11  C   UNL     1       2.985   4.367  -1.096  0.00  0.00    +0.231 C 
ATOM     12  O   UNL     1       2.826   5.127  -2.028  0.00  0.00    -0.274 OA
ATOM     13  C   UNL     1       0.649   3.751  -0.401  0.00  0.00    +0.107 C 
ATOM     14  C   UNL     1      -1.632   3.961   0.626  0.00  0.00    +0.054 C 
ATOM     15  C   UNL     1      -1.913   2.679   0.313  0.00  0.00    +0.022 C 
ATOM     16  C   UNL     1      -0.807   1.757  -0.017  0.00  0.00    -0.019 A 
ATOM     17  C   UNL     1       0.450   2.258  -0.379  0.00  0.00    -0.020 A 
ATOM     18  C   UNL     1       1.473   1.397  -0.699  0.00  0.00    +0.006 A 
ATOM     19  C   UNL     1       1.262   0.028  -0.660  0.00  0.00    +0.000 A 
ATOM     20  C   UNL     1       0.026  -0.477  -0.299  0.00  0.00    +0.001 A 
ATOM     21  C   UNL     1      -1.009   0.377   0.023  0.00  0.00    +0.008 A 
ATOM     22  H   UNL     1       4.801   3.482  -1.494  0.00  0.00    +0.155 HD
ATOM     23  N   UNL     1      -0.270   4.576   0.345  0.00  0.00    -0.384 NA
ATOM     24  H   UNL     1      -0.481   5.359  -0.284  0.00  0.00    +0.127 HD
ENDROOT
BRANCH   1  25
ATOM     25  C   UNL     1      -0.317   6.492   1.690  0.00  0.00    +0.158 C 
ATOM     26  O   UNL     1      -1.113   6.853   0.857  0.00  0.00    -0.295 OA
BRANCH  25  28
ATOM     27  C   UNL     1      -0.854   8.646   2.794  0.00  0.00    +0.018 C 
ATOM     28  C   UNL     1      -0.076   7.335   2.916  0.00  0.00    +0.022 C 
ATOM     29  C   UNL     1      -0.548   6.575   4.157  0.00  0.00    +0.018 C 
ATOM     30  C   UNL     1       1.418   7.638   3.041  0.00  0.00    +0.018 C 
ENDBRANCH  25  28
ENDBRANCH   1  25
BRANCH   2  31
ATOM     31  C   UNL     1       1.716   6.639  -0.122  0.00  0.00    +0.170 C 
ATOM     32  O   UNL     1       0.713   6.807  -0.782  0.00  0.00    -0.292 OA
BRANCH  31  33
ATOM     33  C   UNL     1       2.845   7.573  -0.248  0.00  0.00    +0.018 A 
ATOM     34  C   UNL     1       4.044   7.321   0.428  0.00  0.00    +0.013 A 
ATOM     35  C   UNL     1       5.100   8.198   0.300  0.00  0.00    +0.020 A 
ATOM     36  C   UNL     1       4.972   9.332  -0.485  0.00  0.00    +0.041 A 
ATOM     37  C   UNL     1       3.785   9.591  -1.153  0.00  0.00    +0.020 A 
ATOM     38  C   UNL     1       2.723   8.720  -1.040  0.00  0.00    +0.013 A 
ATOM     39 CL   UNL     1       6.304  10.435  -0.634  0.00  0.00    -0.084 Cl
ENDBRANCH  31  33
ENDBRANCH   2  31
TORSDOF 4
