REMARK  Name = ZINC02542937
REMARK  12 active torsions:
REMARK  status: ('A' for Active; 'I' for Inactive)
REMARK    1  A    between atoms: C_1  and  C_2
REMARK    2  A    between atoms: C_2  and  O_3
REMARK    3  A    between atoms: O_3  and  C_4
REMARK    4  A    between atoms: C_7  and  C_10
REMARK    5  A    between atoms: C_10  and  O_12
REMARK    6  A    between atoms: O_12  and  C_13
REMARK    7  A    between atoms: C_18  and  C_19
REMARK    8  A    between atoms: N_20  and  N_21
REMARK    9  A    between atoms: N_21  and  C_22
REMARK   10  A    between atoms: C_22  and  N_24
REMARK   11  A    between atoms: N_24  and  C_25
REMARK   12  A    between atoms: C_29  and  C_31
REMARK                            x       y       z     vdW  Elec       q    Type
REMARK                         _______ _______ _______ _____ _____    ______ ____
ROOT
ATOM      1  C   UNL     1      -2.495   8.826   0.257  0.00  0.00    +0.141 A 
ATOM      2  C   UNL     1      -3.749   9.410   0.189  0.00  0.00    +0.048 A 
ATOM      3  C   UNL     1      -3.870  10.769  -0.036  0.00  0.00    +0.019 A 
ATOM      4  C   UNL     1      -2.741  11.557  -0.189  0.00  0.00    +0.019 A 
ATOM      5  C   UNL     1      -1.484  10.992  -0.118  0.00  0.00    +0.028 A 
ATOM      6  C   UNL     1      -1.349   9.620   0.108  0.00  0.00    +0.038 A 
ATOM      7 BR   UNL     1      -2.923  13.414  -0.496  0.00  0.00    -0.050 Br
ENDROOT
BRANCH   6   8
ATOM      8  C   UNL     1      -0.010   9.010   0.185  0.00  0.00    +0.142 C 
ATOM      9  N   UNL     1       1.049   9.760   0.139  0.00  0.00    -0.188 NA
BRANCH   9  10
ATOM     10  N   UNL     1       2.321   9.175   0.105  0.00  0.00    -0.218 N 
ATOM     11  H   UNL     1       2.410   8.210   0.043  0.00  0.00    +0.176 HD
BRANCH  10  12
ATOM     12  C   UNL     1       3.422   9.951   0.160  0.00  0.00    +0.154 C 
ATOM     13  S   UNL     1       4.973   9.232   0.247  0.00  0.00    -0.017 S 
BRANCH  12  14
ATOM     14  N   UNL     1       3.301  11.293   0.145  0.00  0.00    -0.296 N 
ATOM     15  H   UNL     1       3.466  11.786  -0.674  0.00  0.00    +0.154 HD
BRANCH  14  16
ATOM     16  C   UNL     1       2.938  11.975   1.311  0.00  0.00    +0.033 A 
ATOM     17  C   UNL     1       2.602  11.265   2.456  0.00  0.00    +0.023 A 
ATOM     18  C   UNL     1       2.244  11.942   3.606  0.00  0.00    +0.002 A 
ATOM     19  C   UNL     1       2.221  13.325   3.617  0.00  0.00    +0.003 A 
ATOM     20  C   UNL     1       2.551  14.034   2.477  0.00  0.00    -0.049 A 
ATOM     21  C   UNL     1       2.914  13.364   1.325  0.00  0.00    +0.026 A 
ATOM     22  C   UNL     1       2.519  15.541   2.492  0.00  0.00    +0.044 C 
ENDBRANCH  14  16
ENDBRANCH  12  14
ENDBRANCH  10  12
ENDBRANCH   9  10
ENDBRANCH   6   8
BRANCH   1  23
ATOM     23  O   UNL     1      -2.375   7.491   0.472  0.00  0.00    -0.422 OA
BRANCH  23  24
ATOM     24  C   UNL     1      -2.271   7.084   1.753  0.00  0.00    +0.344 C 
ATOM     25  O   UNL     1      -2.378   7.889   2.657  0.00  0.00    -0.245 OA
BRANCH  24  29
ATOM     26  C   UNL     1      -1.571   2.990   2.630  0.00  0.00    +0.121 A 
ATOM     27  C   UNL     1      -1.796   3.892   3.664  0.00  0.00    +0.046 A 
ATOM     28  C   UNL     1      -2.023   5.220   3.384  0.00  0.00    +0.018 A 
ATOM     29  C   UNL     1      -2.027   5.662   2.058  0.00  0.00    +0.060 A 
ATOM     30  C   UNL     1      -1.805   4.751   1.021  0.00  0.00    +0.018 A 
ATOM     31  C   UNL     1      -1.573   3.425   1.310  0.00  0.00    +0.046 A 
BRANCH  26  32
ATOM     32  O   UNL     1      -1.347   1.681   2.911  0.00  0.00    -0.492 OA
BRANCH  32  34
ATOM     33  C   UNL     1      -0.676  -0.568   2.335  0.00  0.00    +0.048 C 
ATOM     34  C   UNL     1      -1.012   0.830   1.813  0.00  0.00    +0.225 C 
ENDBRANCH  32  34
ENDBRANCH  26  32
ENDBRANCH  24  29
ENDBRANCH  23  24
ENDBRANCH   1  23
TORSDOF 10
