REMARK  Name = ZINC35476847
REMARK  8 active torsions:
REMARK  status: ('A' for Active; 'I' for Inactive)
REMARK    1  A    between atoms: C_1  and  C_2
REMARK    2  A    between atoms: C_4  and  C_16
REMARK    3  A    between atoms: C_5  and  N_7
REMARK    4  A    between atoms: C_8  and  C_10
REMARK    5  A    between atoms: C_16  and  C_18
REMARK    6  A    between atoms: C_16  and  N_26
REMARK    7  A    between atoms: C_23  and  O_24
REMARK    8  A    between atoms: O_24  and  C_25
REMARK                            x       y       z     vdW  Elec       q    Type
REMARK                         _______ _______ _______ _____ _____    ______ ____
ROOT
ATOM      1  C   UNL     1      -1.934  -3.252   0.022  0.00  0.00    +0.138 C 
ENDROOT
BRANCH   1   2
ATOM      2  N   UNL     1      -3.004  -2.545   0.731  0.00  0.00    -0.319 N 
ATOM      3  C   UNL     1      -3.925  -3.258   1.490  0.00  0.00    +0.097 A 
ATOM      4  C   UNL     1      -3.821  -4.643   1.577  0.00  0.00    +0.041 A 
ATOM      5  C   UNL     1      -4.744  -5.340   2.335  0.00  0.00    +0.005 A 
ATOM      6  C   UNL     1      -5.744  -4.626   2.983  0.00  0.00    +0.018 A 
ATOM      7  C   UNL     1      -5.786  -3.252   2.853  0.00  0.00    +0.084 A 
ATOM      8  N   UNL     1      -4.889  -2.613   2.127  0.00  0.00    -0.350 N 
ATOM      9  H   UNL     1      -3.069  -1.579   0.670  0.00  0.00    +0.148 HD
ATOM     10  H   UNL     1      -4.940  -1.647   2.056  0.00  0.00    +0.166 HD
ENDBRANCH   1   2
BRANCH   1  14
ATOM     11  C   UNL     1       1.112  -0.149  -2.629  0.00  0.00    +0.051 C 
ATOM     12  C   UNL     1       0.611  -0.919  -1.434  0.00  0.00    -0.011 A 
ATOM     13  C   UNL     1      -0.469  -1.732  -1.336  0.00  0.00    +0.018 A 
ATOM     14  C   UNL     1      -0.742  -2.342  -0.126  0.00  0.00    +0.006 A 
ATOM     15  C   UNL     1       0.085  -2.105   0.931  0.00  0.00    +0.077 A 
ATOM     16  S   UNL     1       1.291  -1.001   0.214  0.00  0.00    -0.078 S 
BRANCH  15  17
ATOM     17  N   UNL     1       0.013  -2.602   2.234  0.00  0.00    -0.276 N 
ATOM     18  C   UNL     1       0.873  -2.161   3.172  0.00  0.00    +0.249 C 
ATOM     19  O   UNL     1       1.657  -1.270   2.908  0.00  0.00    -0.270 OA
ATOM     20  H   UNL     1      -0.657  -3.265   2.463  0.00  0.00    +0.156 HD
BRANCH  18  21
ATOM     21  C   UNL     1       0.863  -2.759   4.524  0.00  0.00    +0.037 A 
ATOM     22  C   UNL     1      -0.103  -3.708   4.864  0.00  0.00    +0.013 A 
ATOM     23  C   UNL     1      -0.107  -4.262   6.127  0.00  0.00    +0.001 A 
ATOM     24  C   UNL     1       0.844  -3.879   7.056  0.00  0.00    +0.000 A 
ATOM     25  C   UNL     1       1.803  -2.939   6.727  0.00  0.00    +0.001 A 
ATOM     26  C   UNL     1       1.822  -2.381   5.465  0.00  0.00    +0.013 A 
ENDBRANCH  18  21
ENDBRANCH  15  17
ENDBRANCH   1  14
BRANCH   1  27
ATOM     27  C   UNL     1      -2.423  -3.666  -1.342  0.00  0.00    +0.019 A 
ATOM     28  C   UNL     1      -3.434  -2.954  -1.959  0.00  0.00    +0.009 A 
ATOM     29  C   UNL     1      -3.883  -3.333  -3.210  0.00  0.00    +0.001 A 
ATOM     30  C   UNL     1      -3.322  -4.425  -3.848  0.00  0.00    +0.004 A 
ATOM     31  C   UNL     1      -2.310  -5.139  -3.235  0.00  0.00    +0.046 A 
ATOM     32  C   UNL     1      -1.854  -4.757  -1.982  0.00  0.00    +0.125 A 
BRANCH  32  33
ATOM     33  O   UNL     1      -0.855  -5.455  -1.379  0.00  0.00    -0.495 OA
ATOM     34  C   UNL     1      -0.244  -6.500  -2.139  0.00  0.00    +0.277 C 
ENDBRANCH  32  33
ENDBRANCH   1  27
TORSDOF 6
