REMARK  Name = ZINC39696095
REMARK  8 active torsions:
REMARK  status: ('A' for Active; 'I' for Inactive)
REMARK    1  A    between atoms: C_1  and  C_2
REMARK    2  A    between atoms: C_2  and  C_3
REMARK    3  A    between atoms: C_6  and  C_9
REMARK    4  A    between atoms: C_9  and  C_11
REMARK    5  A    between atoms: C_9  and  N_12
REMARK    6  A    between atoms: C_13  and  C_15
REMARK    7  A    between atoms: C_26  and  C_28
REMARK    8  A    between atoms: C_32  and  C_35
REMARK                            x       y       z     vdW  Elec       q    Type
REMARK                         _______ _______ _______ _____ _____    ______ ____
ROOT
ATOM      1  C   UNL     1      -8.330  -0.554  -1.977  0.00  0.00    +0.100 C 
ATOM      2  C   UNL     1      -8.015   0.958  -2.002  0.00  0.00    +0.121 C 
ATOM      3  N   UNL     1      -9.312   1.606  -2.306  0.00  0.00    -0.296 N 
ATOM      4  C   UNL     1     -10.306   0.822  -1.534  0.00  0.00    +0.115 C 
ATOM      5  C   UNL     1      -9.834  -0.640  -1.669  0.00  0.00    -0.004 C 
ATOM      6  C   UNL     1     -10.064  -1.390  -0.360  0.00  0.00    -0.010 C 
ATOM      7  C   UNL     1     -11.568  -1.513  -0.105  0.00  0.00    -0.082 C 
ATOM      8  N   UNL     1     -12.199  -2.229  -1.221  0.00  0.00    +0.379 N 
ATOM      9  C   UNL     1     -12.054  -1.454  -2.459  0.00  0.00    -0.082 C 
ATOM     10  C   UNL     1     -10.570  -1.329  -2.814  0.00  0.00    -0.010 C 
ATOM     11  C   UNL     1      -9.538   2.667  -3.105  0.00  0.00    +0.252 C 
ATOM     12  O   UNL     1     -10.670   3.086  -3.255  0.00  0.00    -0.270 OA
ATOM     13  H   UNL     1     -11.757  -3.129  -1.335  0.00  0.00    -0.086 HD
ATOM     14  H   UNL     1     -13.179  -2.362  -1.022  0.00  0.00    -0.086 HD
ENDROOT
BRANCH  11  15
ATOM     15  C   UNL     1      -8.412   3.322  -3.798  0.00  0.00    +0.107 A 
ATOM     16  C   UNL     1      -8.028   2.896  -5.075  0.00  0.00    +0.138 A 
ATOM     17  C   UNL     1      -6.973   3.515  -5.717  0.00  0.00    +0.039 A 
ATOM     18  C   UNL     1      -6.297   4.553  -5.101  0.00  0.00    +0.009 A 
ATOM     19  C   UNL     1      -6.669   4.980  -3.840  0.00  0.00    -0.014 A 
ATOM     20  C   UNL     1      -7.726   4.376  -3.185  0.00  0.00    +0.141 A 
ATOM     21  F   UNL     1      -8.092   4.798  -1.956  0.00  0.00    -0.204 F 
ATOM     22  C   UNL     1      -5.924   6.111  -3.179  0.00  0.00    +0.047 C 
ATOM     23  F   UNL     1      -8.688   1.883  -5.677  0.00  0.00    -0.205 F 
ENDBRANCH  11  15
BRANCH   1  25
ATOM     24  N   UNL     1      -7.184  -2.533  -1.033  0.00  0.00    -0.308 N 
ATOM     25  C   UNL     1      -7.533  -1.239  -0.896  0.00  0.00    +0.219 C 
ATOM     26  O   UNL     1      -7.206  -0.624   0.097  0.00  0.00    -0.275 OA
ATOM     27  H   UNL     1      -7.446  -3.025  -1.828  0.00  0.00    +0.149 HD
BRANCH  24  28
ATOM     28  C   UNL     1      -6.409  -3.198   0.018  0.00  0.00    +0.100 C 
ATOM     29  C   UNL     1      -7.359  -3.721   1.098  0.00  0.00    +0.033 C 
BRANCH  28  33
ATOM     30  C   UNL     1      -4.235  -6.467  -1.667  0.00  0.00    -0.048 A 
ATOM     31  C   UNL     1      -3.644  -5.663  -0.711  0.00  0.00    +0.004 A 
ATOM     32  C   UNL     1      -4.347  -4.605  -0.166  0.00  0.00    +0.006 A 
ATOM     33  C   UNL     1      -5.642  -4.351  -0.577  0.00  0.00    -0.027 A 
ATOM     34  C   UNL     1      -6.234  -5.155  -1.534  0.00  0.00    +0.006 A 
ATOM     35  C   UNL     1      -5.529  -6.210  -2.082  0.00  0.00    +0.004 A 
BRANCH  30  37
ATOM     36  C   UNL     1      -2.704  -7.141  -3.497  0.00  0.00    +0.009 C 
ATOM     37  C   UNL     1      -3.468  -7.620  -2.261  0.00  0.00    +0.032 C 
ENDBRANCH  30  37
ENDBRANCH  28  33
ENDBRANCH  24  28
ENDBRANCH   1  25
TORSDOF 5
