REMARK  Name = ZINC56611278
REMARK  12 active torsions:
REMARK  status: ('A' for Active; 'I' for Inactive)
REMARK    1  A    between atoms: C_1  and  C_2
REMARK    2  A    between atoms: C_5  and  C_31
REMARK    3  A    between atoms: N_8  and  C_10
REMARK    4  A    between atoms: C_10  and  C_11
REMARK    5  A    between atoms: C_11  and  C_13
REMARK    6  A    between atoms: C_11  and  N_14
REMARK    7  A    between atoms: N_17  and  C_18
REMARK    8  A    between atoms: C_21  and  C_24
REMARK    9  A    between atoms: C_24  and  C_25
REMARK   10  A    between atoms: N_27  and  C_28
REMARK   11  A    between atoms: C_28  and  C_29
REMARK   12  A    between atoms: C_28  and  C_30
REMARK                            x       y       z     vdW  Elec       q    Type
REMARK                         _______ _______ _______ _____ _____    ______ ____
ROOT
ATOM      1  N   UNL     1       3.514  -2.498   0.953  0.00  0.00    -0.298 N 
ATOM      2  C   UNL     1       4.539  -1.851   0.364  0.00  0.00    +0.304 C 
ATOM      3  O   UNL     1       5.032  -0.878   0.901  0.00  0.00    -0.253 OA
ATOM      4  N   UNL     1       5.016  -2.281  -0.821  0.00  0.00    -0.269 N 
ATOM      5  H   UNL     1       3.120  -3.274   0.525  0.00  0.00    +0.150 HD
ATOM      6  H   UNL     1       4.668  -3.095  -1.217  0.00  0.00    +0.156 HD
ENDROOT
BRANCH   4   7
ATOM      7  C   UNL     1       6.014  -1.554  -1.479  0.00  0.00    +0.035 A 
ATOM      8  C   UNL     1       6.019  -1.478  -2.866  0.00  0.00    +0.023 A 
ATOM      9  C   UNL     1       7.005  -0.758  -3.513  0.00  0.00    +0.006 A 
ATOM     10  C   UNL     1       7.986  -0.114  -2.781  0.00  0.00    -0.039 A 
ATOM     11  C   UNL     1       7.983  -0.188  -1.400  0.00  0.00    +0.006 A 
ATOM     12  C   UNL     1       6.997  -0.901  -0.747  0.00  0.00    +0.023 A 
BRANCH  10  13
ATOM     13  C   UNL     1       9.060   0.669  -3.490  0.00  0.00    +0.130 C 
BRANCH  13  14
ATOM     14  C   UNL     1       8.608   2.096  -3.666  0.00  0.00    +0.218 C 
ATOM     15  O   UNL     1       7.520   2.442  -3.256  0.00  0.00    -0.275 OA
ATOM     16  N   UNL     1       9.412   2.987  -4.279  0.00  0.00    -0.313 N 
ATOM     17  H   UNL     1      10.282   2.711  -4.607  0.00  0.00    +0.149 HD
BRANCH  16  18
ATOM     18  C   UNL     1       8.972   4.374  -4.449  0.00  0.00    +0.067 C 
ATOM     19  C   UNL     1       9.297   5.172  -3.185  0.00  0.00    +0.027 C 
ATOM     20  C   UNL     1       9.697   4.996  -5.645  0.00  0.00    +0.027 C 
ENDBRANCH  16  18
ENDBRANCH  13  14
ENDBRANCH  10  13
ENDBRANCH   4   7
BRANCH   1  21
ATOM     21  C   UNL     1       2.995  -2.031   2.241  0.00  0.00    +0.055 C 
ATOM     22  C   UNL     1       3.832  -2.627   3.375  0.00  0.00    +0.026 C 
BRANCH  21  23
ATOM     23  C   UNL     1       1.539  -2.473   2.395  0.00  0.00    -0.057 C 
BRANCH  23  29
ATOM     24  C   UNL     1      -0.042   1.496   0.004  0.00  0.00    +0.005 C 
ATOM     25  C   UNL     1      -0.012  -0.034   0.001  0.00  0.00    -0.031 C 
ATOM     26  C   UNL     1      -1.444  -0.574   0.018  0.00  0.00    +0.003 C 
ATOM     27  C   UNL     1      -1.402  -2.103   0.093  0.00  0.00    -0.031 C 
ATOM     28  C   UNL     1      -0.609  -2.525   1.332  0.00  0.00    -0.076 C 
ATOM     29  N   UNL     1       0.759  -2.000   1.243  0.00  0.00    +0.381 N 
ATOM     30  C   UNL     1       0.731  -0.533   1.242  0.00  0.00    -0.076 C 
ATOM     31  C   UNL     1      -0.726  -2.659  -1.162  0.00  0.00    +0.005 C 
ATOM     32  H   UNL     1       1.190  -2.328   0.391  0.00  0.00    -0.082 HD
ENDBRANCH  23  29
ENDBRANCH  21  23
ENDBRANCH   1  21
TORSDOF 7
