REMARK  Name = ZINC59170563
REMARK  8 active torsions:
REMARK  status: ('A' for Active; 'I' for Inactive)
REMARK    1  A    between atoms: C_1  and  C_2
REMARK    2  A    between atoms: C_2  and  O_3
REMARK    3  A    between atoms: O_3  and  C_4
REMARK    4  A    between atoms: N_12  and  C_13
REMARK    5  A    between atoms: C_16  and  S_19
REMARK    6  A    between atoms: S_19  and  N_22
REMARK    7  A    between atoms: C_23  and  C_25
REMARK    8  A    between atoms: N_27  and  C_28
REMARK                            x       y       z     vdW  Elec       q    Type
REMARK                         _______ _______ _______ _____ _____    ______ ____
ROOT
ATOM      1  C   UNL     1       0.767  -2.057  -1.440  0.00  0.00    +0.163 A 
ATOM      2  C   UNL     1      -0.167  -2.916  -0.885  0.00  0.00    +0.049 A 
ATOM      3  C   UNL     1      -0.494  -4.106  -1.517  0.00  0.00    +0.004 A 
ATOM      4  C   UNL     1       0.106  -4.453  -2.706  0.00  0.00    +0.012 A 
ATOM      5  C   UNL     1       1.055  -3.598  -3.280  0.00  0.00    +0.022 A 
ATOM      6  C   UNL     1       1.381  -2.386  -2.645  0.00  0.00    +0.179 A 
ATOM      7  O   UNL     1       2.289  -1.552  -3.208  0.00  0.00    -0.435 OA
ATOM      8  C   UNL     1       3.234  -2.115  -4.002  0.00  0.00    +0.212 A 
ATOM      9  N   UNL     1       4.486  -1.711  -3.958  0.00  0.00    -0.325 N 
ATOM     10  C   UNL     1       2.815  -3.195  -4.917  0.00  0.00    +0.098 A 
ATOM     11  C   UNL     1       1.713  -3.948  -4.541  0.00  0.00    +0.030 A 
ATOM     12  H   UNL     1       5.170  -2.200  -4.441  0.00  0.00    +0.169 HD
ENDROOT
BRANCH   9  13
ATOM     13  C   UNL     1       4.821  -0.603  -3.230  0.00  0.00    +0.042 A 
ATOM     14  C   UNL     1       4.039   0.552  -3.308  0.00  0.00    +0.027 A 
ATOM     15  C   UNL     1       4.383   1.665  -2.572  0.00  0.00    +0.030 A 
ATOM     16  C   UNL     1       5.501   1.641  -1.756  0.00  0.00    +0.105 A 
ATOM     17  C   UNL     1       6.280   0.501  -1.673  0.00  0.00    +0.030 A 
ATOM     18  C   UNL     1       5.945  -0.623  -2.400  0.00  0.00    +0.027 A 
BRANCH  16  19
ATOM     19  S   UNL     1       5.933   3.069  -0.819  0.00  0.00    +0.056 S 
ATOM     20  O   UNL     1       7.327   2.974  -0.554  0.00  0.00    -0.153 OA
ATOM     21  O   UNL     1       5.359   4.183  -1.487  0.00  0.00    -0.153 OA
BRANCH  19  22
ATOM     22  N   UNL     1       5.165   2.946   0.643  0.00  0.00    -0.204 NA
ATOM     23  H   UNL     1       5.563   3.340   1.435  0.00  0.00    +0.144 HD
ATOM     24  H   UNL     1       4.317   2.480   0.708  0.00  0.00    +0.144 HD
ENDBRANCH  19  22
ENDBRANCH  16  19
ENDBRANCH   9  13
BRANCH  10  25
ATOM     25  C   UNL     1       3.542  -3.467  -6.168  0.00  0.00    +0.253 C 
ATOM     26  O   UNL     1       3.241  -4.429  -6.850  0.00  0.00    -0.270 OA
ATOM     27  N   UNL     1       4.542  -2.651  -6.559  0.00  0.00    -0.280 N 
ATOM     28  H   UNL     1       4.813  -1.912  -5.992  0.00  0.00    +0.155 HD
BRANCH  27  29
ATOM     29  C   UNL     1       5.187  -2.870  -7.780  0.00  0.00    +0.052 A 
ATOM     30  C   UNL     1       5.131  -4.120  -8.383  0.00  0.00    +0.025 A 
ATOM     31  C   UNL     1       5.769  -4.333  -9.589  0.00  0.00    +0.002 A 
ATOM     32  C   UNL     1       6.465  -3.304 -10.197  0.00  0.00    +0.002 A 
ATOM     33  C   UNL     1       6.524  -2.058  -9.600  0.00  0.00    +0.022 A 
ATOM     34  C   UNL     1       5.882  -1.836  -8.396  0.00  0.00    +0.062 A 
ATOM     35 CL   UNL     1       5.949  -0.270  -7.651  0.00  0.00    -0.082 Cl
ENDBRANCH  27  29
ENDBRANCH  10  25
BRANCH   1  36
ATOM     36  O   UNL     1       1.079  -0.892  -0.812  0.00  0.00    -0.489 OA
BRANCH  36  38
ATOM     37  C   UNL     1       0.887   0.724   0.974  0.00  0.00    +0.048 C 
ATOM     38  C   UNL     1       0.410  -0.620   0.421  0.00  0.00    +0.226 C 
ENDBRANCH  36  38
ENDBRANCH   1  36
TORSDOF 7
