REMARK  Name = ZINC36214058
REMARK  10 active torsions:
REMARK  status: ('A' for Active; 'I' for Inactive)
REMARK    1  A    between atoms: C_1  and  C_2
REMARK    2  A    between atoms: C_2  and  C_4
REMARK    3  A    between atoms: C_2  and  O_16
REMARK    4  A    between atoms: N_6  and  C_7
REMARK    5  A    between atoms: C_10  and  C_13
REMARK    6  A    between atoms: O_16  and  C_17
REMARK    7  A    between atoms: C_17  and  C_19
REMARK    8  A    between atoms: C_21  and  N_33
REMARK    9  A    between atoms: C_24  and  S_25
REMARK   10  A    between atoms: S_25  and  C_26
REMARK                            x       y       z     vdW  Elec       q    Type
REMARK                         _______ _______ _______ _____ _____    ______ ____
ROOT
ATOM      1  C   UNL     1      -1.923  -0.712   1.282  0.00  0.00    +0.341 C 
ATOM      2  O   UNL     1      -1.321  -0.481   2.313  0.00  0.00    -0.245 OA
ENDROOT
BRANCH   1   3
ATOM      3  C   UNL     1      -3.303  -1.221   1.333  0.00  0.00    +0.075 A 
ATOM      4  C   UNL     1      -3.997  -1.494   0.150  0.00  0.00    +0.048 A 
ATOM      5  C   UNL     1      -5.287  -1.971   0.205  0.00  0.00    +0.127 A 
ATOM      6  C   UNL     1      -5.905  -2.183   1.429  0.00  0.00    +0.034 A 
ATOM      7  C   UNL     1      -5.236  -1.919   2.605  0.00  0.00    +0.018 A 
ATOM      8  C   UNL     1      -3.930  -1.442   2.571  0.00  0.00    +0.027 A 
BRANCH   5   9
ATOM      9  N   UNL     1      -6.020  -2.259  -1.049  0.00  0.00    +0.056 N 
ATOM     10  O   UNL     1      -5.484  -2.075  -2.117  0.00  0.00    -0.126 OA
ATOM     11  O   UNL     1      -7.153  -2.678  -1.004  0.00  0.00    -0.126 OA
ENDBRANCH   5   9
BRANCH   8  12
ATOM     12  S   UNL     1      -3.069  -1.110   4.072  0.00  0.00    -0.089 S 
BRANCH  12  13
ATOM     13  C   UNL     1      -4.175  -1.660   5.329  0.00  0.00    +0.013 A 
ATOM     14  C   UNL     1      -4.183  -2.995   5.713  0.00  0.00    +0.016 A 
ATOM     15  C   UNL     1      -5.051  -3.423   6.699  0.00  0.00    +0.021 A 
ATOM     16  C   UNL     1      -5.912  -2.523   7.303  0.00  0.00    +0.041 A 
ATOM     17  C   UNL     1      -5.906  -1.193   6.921  0.00  0.00    +0.021 A 
ATOM     18  C   UNL     1      -5.037  -0.758   5.940  0.00  0.00    +0.016 A 
ATOM     19 CL   UNL     1      -7.002  -3.065   8.540  0.00  0.00    -0.084 Cl
ENDBRANCH  12  13
ENDBRANCH   8  12
ENDBRANCH   1   3
BRANCH   1  20
ATOM     20  O   UNL     1      -1.325  -0.501   0.092  0.00  0.00    -0.449 OA
BRANCH  20  22
ATOM     21  C   UNL     1      -0.007   1.524   0.115  0.00  0.00    +0.062 C 
ATOM     22  C   UNL     1       0.015  -0.006   0.117  0.00  0.00    +0.259 C 
BRANCH  22  23
ATOM     23  C   UNL     1       0.756  -0.500  -1.098  0.00  0.00    +0.258 C 
ATOM     24  O   UNL     1       0.169  -1.130  -1.952  0.00  0.00    -0.271 OA
ATOM     25  N   UNL     1       2.071  -0.241  -1.237  0.00  0.00    -0.282 N 
ATOM     26  H   UNL     1       2.526   0.319  -0.589  0.00  0.00    +0.155 HD
BRANCH  25  27
ATOM     27  C   UNL     1       2.778  -0.779  -2.312  0.00  0.00    +0.034 A 
ATOM     28  C   UNL     1       2.158  -0.918  -3.550  0.00  0.00    +0.024 A 
ATOM     29  C   UNL     1       2.853  -1.448  -4.613  0.00  0.00    +0.015 A 
ATOM     30  C   UNL     1       4.183  -1.846  -4.449  0.00  0.00    +0.037 A 
ATOM     31  C   UNL     1       4.802  -1.704  -3.204  0.00  0.00    +0.015 A 
ATOM     32  C   UNL     1       4.103  -1.169  -2.146  0.00  0.00    +0.024 A 
BRANCH  30  33
ATOM     33  C   UNL     1       4.931  -2.416  -5.587  0.00  0.00    +0.242 C 
ATOM     34  O   UNL     1       4.390  -2.539  -6.669  0.00  0.00    -0.270 OA
ATOM     35  N   UNL     1       6.213  -2.799  -5.426  0.00  0.00    -0.325 N 
ATOM     36  H   UNL     1       6.644  -2.701  -4.563  0.00  0.00    +0.145 HD
ATOM     37  H   UNL     1       6.704  -3.173  -6.174  0.00  0.00    +0.145 HD
ENDBRANCH  30  33
ENDBRANCH  25  27
ENDBRANCH  22  23
ENDBRANCH  20  22
ENDBRANCH   1  20
TORSDOF 9
