REMARK  Name = ZINC40069264
REMARK  6 active torsions:
REMARK  status: ('A' for Active; 'I' for Inactive)
REMARK    1  A    between atoms: C_7  and  C_10
REMARK    2  A    between atoms: C_13  and  S_19
REMARK    3  A    between atoms: N_15  and  C_16
REMARK    4  A    between atoms: S_19  and  C_20
REMARK    5  A    between atoms: C_20  and  C_21
REMARK    6  A    between atoms: C_27  and  C_30
REMARK                            x       y       z     vdW  Elec       q    Type
REMARK                         _______ _______ _______ _____ _____    ______ ____
ROOT
ATOM      1  C   UNL     1       0.684  -3.157   0.170  0.00  0.00    +0.147 C 
ATOM      2  N   UNL     1      -0.617  -3.038   0.212  0.00  0.00    -0.169 NA
ATOM      3  N   UNL     1      -1.248  -4.259  -0.053  0.00  0.00    -0.237 N 
ATOM      4  C   UNL     1      -0.177  -5.242  -0.285  0.00  0.00    +0.237 C 
ATOM      5  N   UNL     1       1.065  -4.467  -0.133  0.00  0.00    -0.282 N 
ATOM      6  H   UNL     1      -2.204  -4.424  -0.079  0.00  0.00    +0.171 HD
ENDROOT
BRANCH   1  13
ATOM      7  C   UNL     1       0.051   1.150   1.446  0.00  0.00    +0.001 A 
ATOM      8  C   UNL     1       1.236   1.881   1.554  0.00  0.00    +0.002 A 
ATOM      9  C   UNL     1       2.445   1.325   1.295  0.00  0.00    +0.026 A 
ATOM     10  C   UNL     1       2.527  -0.036   0.902  0.00  0.00    +0.043 A 
ATOM     11  N   UNL     1       3.561  -0.796   0.599  0.00  0.00    -0.380 N 
ATOM     12  C   UNL     1       3.089  -2.141   0.257  0.00  0.00    +0.152 C 
ATOM     13  C   UNL     1       1.583  -2.103   0.394  0.00  0.00    +0.022 C 
ATOM     14  C   UNL     1       1.274  -0.801   0.789  0.00  0.00    +0.006 A 
ATOM     15  C   UNL     1       0.052  -0.156   1.075  0.00  0.00    +0.010 A 
ATOM     16  H   UNL     1       4.488  -0.510   0.603  0.00  0.00    +0.160 HD
ENDBRANCH   1  13
BRANCH   5  17
ATOM     17  C   UNL     1       2.434  -4.971  -0.270  0.00  0.00    +0.078 C 
ATOM     18  C   UNL     1       2.610  -6.431  -0.694  0.00  0.00    +0.024 C 
ATOM     19  C   UNL     1       2.909  -6.011   0.747  0.00  0.00    +0.024 C 
ENDBRANCH   5  17
BRANCH   4  20
ATOM     20  S   UNL     1      -0.295  -5.925  -1.961  0.00  0.00    -0.109 S 
BRANCH  20  21
ATOM     21  C   UNL     1      -0.165  -4.471  -3.038  0.00  0.00    +0.168 C 
BRANCH  21  22
ATOM     22  C   UNL     1      -0.250  -4.903  -4.479  0.00  0.00    +0.226 C 
ATOM     23  O   UNL     1      -0.384  -6.077  -4.753  0.00  0.00    -0.275 OA
ATOM     24  N   UNL     1      -0.175  -3.986  -5.463  0.00  0.00    -0.300 N 
ATOM     25  C   UNL     1      -0.006  -2.561  -5.148  0.00  0.00    +0.108 C 
ATOM     26  C   UNL     1       1.207  -2.026  -5.916  0.00  0.00    +0.020 C 
ATOM     27  C   UNL     1       1.033  -2.323  -7.407  0.00  0.00    +0.016 C 
ATOM     28  C   UNL     1       0.954  -3.836  -7.622  0.00  0.00    +0.092 C 
ATOM     29  C   UNL     1      -0.256  -4.392  -6.873  0.00  0.00    +0.120 C 
BRANCH  28  30
ATOM     30  C   UNL     1       0.815  -4.129  -9.094  0.00  0.00    +0.215 C 
ATOM     31  O   UNL     1       0.783  -3.217  -9.893  0.00  0.00    -0.276 OA
ATOM     32  N   UNL     1       0.727  -5.404  -9.522  0.00  0.00    -0.329 N 
ATOM     33  H   UNL     1       0.753  -6.133  -8.883  0.00  0.00    +0.145 HD
ATOM     34  H   UNL     1       0.638  -5.592 -10.469  0.00  0.00    +0.145 HD
ENDBRANCH  28  30
ENDBRANCH  21  22
ENDBRANCH  20  21
ENDBRANCH   4  20
TORSDOF 6
