REMARK  Name = ZINC62597793
REMARK  9 active torsions:
REMARK  status: ('A' for Active; 'I' for Inactive)
REMARK    1  A    between atoms: C_1  and  C_2
REMARK    2  A    between atoms: C_2  and  C_3
REMARK    3  A    between atoms: C_2  and  N_4
REMARK    4  A    between atoms: N_4  and  C_5
REMARK    5  A    between atoms: C_5  and  C_7
REMARK    6  A    between atoms: C_5  and  C_19
REMARK    7  A    between atoms: C_7  and  C_8
REMARK    8  A    between atoms: C_8  and  S_9
REMARK    9  A    between atoms: S_9  and  C_10
REMARK                            x       y       z     vdW  Elec       q    Type
REMARK                         _______ _______ _______ _____ _____    ______ ____
ROOT
ATOM      1  C   UNL     1      -1.359  -1.976  -0.116  0.00  0.00    +0.017 C 
ENDROOT
BRANCH   1   2
ATOM      2  C   UNL     1      -0.804  -2.355  -1.465  0.00  0.00    +0.197 C 
ATOM      3  O   UNL     1      -0.458  -1.491  -2.243  0.00  0.00    -0.278 OA
ATOM      4  N   UNL     1      -0.694  -3.654  -1.808  0.00  0.00    -0.331 N 
ATOM      5  H   UNL     1      -0.972  -4.345  -1.186  0.00  0.00    +0.145 HD
ATOM      6  H   UNL     1      -0.337  -3.898  -2.676  0.00  0.00    +0.145 HD
ENDBRANCH   1   2
BRANCH   1   7
ATOM      7  N   UNL     1      -1.376  -0.512   0.012  0.00  0.00    +0.388 N 
ATOM      8  H   UNL     1      -1.823  -0.256   0.880  0.00  0.00    -0.084 HD
ATOM      9  H   UNL     1      -1.888  -0.113  -0.760  0.00  0.00    -0.084 HD
BRANCH   7  11
ATOM     10  C   UNL     1      -0.019   1.526   0.010  0.00  0.00    -0.014 C 
ATOM     11  C   UNL     1       0.002  -0.004   0.002  0.00  0.00    -0.077 C 
ATOM     12  C   UNL     1       0.742  -0.511   1.242  0.00  0.00    -0.014 C 
ENDBRANCH   7  11
ENDBRANCH   1   7
BRANCH   1  13
ATOM     13  C   UNL     1      -2.784  -2.516   0.019  0.00  0.00    +0.004 C 
BRANCH  13  14
ATOM     14  C   UNL     1      -3.302  -2.240   1.433  0.00  0.00    +0.075 C 
BRANCH  14  15
ATOM     15  S   UNL     1      -4.991  -2.881   1.594  0.00  0.00    -0.099 S 
BRANCH  15  16
ATOM     16  C   UNL     1      -5.439  -2.491   3.252  0.00  0.00    +0.136 A 
ATOM     17  N   UNL     1      -4.732  -1.874   4.174  0.00  0.00    -0.233 NA
ATOM     18  C   UNL     1      -5.208  -1.640   5.416  0.00  0.00    +0.079 A 
ATOM     19  C   UNL     1      -4.558  -0.993   6.492  0.00  0.00    +0.029 A 
ATOM     20  C   UNL     1      -5.188  -0.837   7.699  0.00  0.00    +0.002 A 
ATOM     21  C   UNL     1      -6.477  -1.304   7.910  0.00  0.00    +0.001 A 
ATOM     22  C   UNL     1      -7.143  -1.942   6.879  0.00  0.00    +0.017 A 
ATOM     23  C   UNL     1      -6.520  -2.102   5.667  0.00  0.00    +0.040 A 
ATOM     24  S   UNL     1      -6.971  -2.826   4.109  0.00  0.00    -0.061 S 
ENDBRANCH  15  16
ENDBRANCH  14  15
ENDBRANCH  13  14
ENDBRANCH   1  13
TORSDOF 7
