REMARK  Name = ZINC02074949
REMARK  12 active torsions:
REMARK  status: ('A' for Active; 'I' for Inactive)
REMARK    1  A    between atoms: C_1  and  C_2
REMARK    2  A    between atoms: C_2  and  O_3
REMARK    3  A    between atoms: O_3  and  C_4
REMARK    4  A    between atoms: C_4  and  C_6
REMARK    5  A    between atoms: C_9  and  O_32
REMARK    6  A    between atoms: N_13  and  C_30
REMARK    7  A    between atoms: C_14  and  C_15
REMARK    8  A    between atoms: C_15  and  N_60
REMARK    9  A    between atoms: C_16  and  C_17
REMARK   10  A    between atoms: C_16  and  N_60
REMARK   11  A    between atoms: C_23  and  C_24
REMARK   12  A    between atoms: C_23  and  N_60
REMARK                            x       y       z     vdW  Elec       q    Type
REMARK                         _______ _______ _______ _____ _____    ______ ____
ROOT
ATOM      1  C   UNL     1       1.141   0.428  -3.222  0.00  0.00    +0.086 A 
ATOM      2  C   UNL     1       1.338  -0.583  -2.166  0.00  0.00    +0.018 A 
ATOM      3  C   UNL     1       2.382  -1.442  -1.834  0.00  0.00    +0.057 A 
ATOM      4  C   UNL     1       2.250  -2.292  -0.753  0.00  0.00    +0.131 A 
ATOM      5  C   UNL     1       1.078  -2.290  -0.000  0.00  0.00    +0.061 A 
ATOM      6  C   UNL     1       0.040  -1.444  -0.323  0.00  0.00    +0.045 A 
ATOM      7  C   UNL     1       0.157  -0.581  -1.408  0.00  0.00    +0.051 A 
ATOM      8  N   UNL     1      -0.690   0.359  -1.962  0.00  0.00    -0.348 N 
ATOM      9  C   UNL     1      -0.103   0.955  -3.026  0.00  0.00    +0.017 A 
ATOM     10  C   UNL     1      -2.031   0.672  -1.463  0.00  0.00    +0.149 C 
ATOM     11 BR   UNL     1       0.910  -3.459   1.477  0.00  0.00    -0.046 Br
ENDROOT
BRANCH   1  12
ATOM     12  C   UNL     1       2.096   0.800  -4.272  0.00  0.00    +0.341 C 
ATOM     13  O   UNL     1       2.086   0.215  -5.338  0.00  0.00    -0.245 OA
BRANCH  12  14
ATOM     14  O   UNL     1       2.983   1.792  -4.056  0.00  0.00    -0.461 OA
BRANCH  14  16
ATOM     15  C   UNL     1       4.818   3.252  -4.713  0.00  0.00    +0.048 C 
ATOM     16  C   UNL     1       3.894   2.110  -5.141  0.00  0.00    +0.229 C 
ENDBRANCH  14  16
ENDBRANCH  12  14
ENDBRANCH   1  12
BRANCH   4  17
ATOM     17  O   UNL     1       3.266  -3.134  -0.423  0.00  0.00    -0.506 OA
ATOM     18  H   UNL     1       3.219  -3.996  -0.857  0.00  0.00    +0.292 HD
ENDBRANCH   4  17
BRANCH   9  19
ATOM     19  C   UNL     1      -0.731   2.034  -3.871  0.00  0.00    -0.023 C 
BRANCH  19  20
ATOM     20  N   UNL     1      -0.219   3.344  -3.416  0.00  0.00    +0.389 N 
ATOM     21  H   UNL     1       0.710   3.212  -2.999  0.00  0.00    -0.080 HD
BRANCH  20  22
ATOM     22  C   UNL     1      -0.103   4.267  -4.564  0.00  0.00    -0.042 C 
BRANCH  22  23
ATOM     23  C   UNL     1       0.812   5.402  -4.181  0.00  0.00    -0.064 A 
ATOM     24  C   UNL     1       0.284   6.572  -3.669  0.00  0.00    +0.002 A 
ATOM     25  C   UNL     1       1.124   7.611  -3.312  0.00  0.00    +0.000 A 
ATOM     26  C   UNL     1       2.490   7.483  -3.479  0.00  0.00    +0.000 A 
ATOM     27  C   UNL     1       3.018   6.315  -3.997  0.00  0.00    +0.000 A 
ATOM     28  C   UNL     1       2.178   5.274  -4.348  0.00  0.00    +0.002 A 
ENDBRANCH  22  23
ENDBRANCH  20  22
BRANCH  20  29
ATOM     29  C   UNL     1      -1.125   3.914  -2.398  0.00  0.00    -0.042 C 
BRANCH  29  30
ATOM     30  C   UNL     1      -2.554   3.536  -2.695  0.00  0.00    -0.064 A 
ATOM     31  C   UNL     1      -3.051   3.670  -3.978  0.00  0.00    +0.002 A 
ATOM     32  C   UNL     1      -4.360   3.318  -4.251  0.00  0.00    +0.000 A 
ATOM     33  C   UNL     1      -5.174   2.843  -3.240  0.00  0.00    +0.000 A 
ATOM     34  C   UNL     1      -4.678   2.716  -1.956  0.00  0.00    +0.000 A 
ATOM     35  C   UNL     1      -3.368   3.062  -1.683  0.00  0.00    +0.002 A 
ENDBRANCH  29  30
ENDBRANCH  20  29
ENDBRANCH  19  20
ENDBRANCH   9  19
TORSDOF 10
