REMARK  Name = ZINC38547013
REMARK  8 active torsions:
REMARK  status: ('A' for Active; 'I' for Inactive)
REMARK    1  A    between atoms: C_1  and  C_2
REMARK    2  A    between atoms: C_4  and  C_15
REMARK    3  A    between atoms: C_5  and  N_7
REMARK    4  A    between atoms: C_8  and  C_10
REMARK    5  A    between atoms: C_15  and  C_17
REMARK    6  A    between atoms: C_15  and  N_25
REMARK    7  A    between atoms: C_20  and  S_23
REMARK    8  A    between atoms: S_23  and  C_24
REMARK                            x       y       z     vdW  Elec       q    Type
REMARK                         _______ _______ _______ _____ _____    ______ ____
ROOT
ATOM      1  C   UNL     1      -1.917  -3.223  -0.007  0.00  0.00    +0.135 C 
ENDROOT
BRANCH   1   2
ATOM      2  N   UNL     1      -3.199  -2.658   0.422  0.00  0.00    -0.320 N 
ATOM      3  C   UNL     1      -3.478  -2.518   1.777  0.00  0.00    +0.097 A 
ATOM      4  C   UNL     1      -2.579  -3.006   2.720  0.00  0.00    +0.041 A 
ATOM      5  C   UNL     1      -2.869  -2.860   4.064  0.00  0.00    +0.005 A 
ATOM      6  C   UNL     1      -4.053  -2.228   4.422  0.00  0.00    +0.018 A 
ATOM      7  C   UNL     1      -4.899  -1.768   3.433  0.00  0.00    +0.084 A 
ATOM      8  N   UNL     1      -4.594  -1.916   2.158  0.00  0.00    -0.350 N 
ATOM      9  H   UNL     1      -3.853  -2.381  -0.238  0.00  0.00    +0.148 HD
ATOM     10  H   UNL     1      -5.204  -1.580   1.484  0.00  0.00    +0.166 HD
ENDBRANCH   1   2
BRANCH   1  14
ATOM     11  C   UNL     1      -0.335   1.615  -0.186  0.00  0.00    +0.051 C 
ATOM     12  C   UNL     1      -0.219   0.118  -0.061  0.00  0.00    -0.011 A 
ATOM     13  C   UNL     1      -1.197  -0.819  -0.104  0.00  0.00    +0.018 A 
ATOM     14  C   UNL     1      -0.857  -2.152   0.035  0.00  0.00    +0.006 A 
ATOM     15  C   UNL     1       0.454  -2.480   0.211  0.00  0.00    +0.078 A 
ATOM     16  S   UNL     1       1.242  -0.879   0.175  0.00  0.00    -0.078 S 
BRANCH  15  17
ATOM     17  N   UNL     1       1.030  -3.742   0.372  0.00  0.00    -0.273 N 
ATOM     18  C   UNL     1       2.363  -3.857   0.535  0.00  0.00    +0.284 C 
ATOM     19  O   UNL     1       3.064  -2.862   0.541  0.00  0.00    -0.266 OA
ATOM     20  H   UNL     1       0.472  -4.535   0.367  0.00  0.00    +0.156 HD
BRANCH  18  21
ATOM     21  C   UNL     1       2.969  -5.182   0.704  0.00  0.00    +0.189 A 
ATOM     22  C   UNL     1       4.298  -5.439   0.882  0.00  0.00    +0.054 A 
ATOM     23  C   UNL     1       4.427  -6.832   1.000  0.00  0.00    +0.042 A 
ATOM     24  C   UNL     1       3.187  -7.357   0.889  0.00  0.00    +0.196 A 
ATOM     25  O   UNL     1       2.311  -6.359   0.716  0.00  0.00    -0.458 OA
ENDBRANCH  18  21
ENDBRANCH  15  17
ENDBRANCH   1  14
BRANCH   1  26
ATOM     26  C   UNL     1      -2.046  -3.748  -1.413  0.00  0.00    -0.023 A 
ATOM     27  C   UNL     1      -2.658  -2.976  -2.385  0.00  0.00    +0.007 A 
ATOM     28  C   UNL     1      -2.777  -3.454  -3.674  0.00  0.00    +0.015 A 
ATOM     29  C   UNL     1      -2.282  -4.712  -3.997  0.00  0.00    +0.008 A 
ATOM     30  C   UNL     1      -1.667  -5.484  -3.018  0.00  0.00    +0.015 A 
ATOM     31  C   UNL     1      -1.546  -4.997  -1.732  0.00  0.00    +0.007 A 
BRANCH  29  32
ATOM     32  S   UNL     1      -2.433  -5.326  -5.641  0.00  0.00    -0.129 S 
ATOM     33  C   UNL     1      -1.657  -6.964  -5.571  0.00  0.00    +0.090 C 
ENDBRANCH  29  32
ENDBRANCH   1  26
TORSDOF 6
