REMARK  Name = ZINC18202657
REMARK  3 active torsions:
REMARK  status: ('A' for Active; 'I' for Inactive)
REMARK    1  A    between atoms: C_1  and  C_2
REMARK    2  A    between atoms: C_2  and  C_26
REMARK    3  A    between atoms: C_6  and  N_7
REMARK                            x       y       z     vdW  Elec       q    Type
REMARK                         _______ _______ _______ _____ _____    ______ ____
ROOT
ATOM      1  C   UNL     1       0.375   2.200  -0.429  0.00  0.00    +0.064 C 
ATOM      2  C   UNL     1       0.127   0.697  -0.289  0.00  0.00    +0.167 C 
ATOM      3  C   UNL     1       0.777  -0.027  -1.443  0.00  0.00    +0.208 C 
ATOM      4  O   UNL     1       0.152  -0.263  -2.458  0.00  0.00    -0.288 OA
ATOM      5  C   UNL     1       2.135  -0.425  -1.317  0.00  0.00    +0.049 C 
ATOM      6  C   UNL     1       2.792  -1.052  -2.337  0.00  0.00    +0.085 C 
ATOM      7  C   UNL     1       2.810  -0.129  -0.025  0.00  0.00    +0.071 A 
ATOM      8  C   UNL     1       2.021   0.205   1.079  0.00  0.00    +0.133 A 
ATOM      9  C   UNL     1       2.619   0.492   2.301  0.00  0.00    +0.047 A 
ATOM     10  C   UNL     1       3.979   0.449   2.433  0.00  0.00    +0.015 A 
ATOM     11  C   UNL     1       4.784   0.114   1.338  0.00  0.00    +0.018 A 
ATOM     12  C   UNL     1       4.197  -0.179   0.093  0.00  0.00    +0.150 A 
ATOM     13  O   UNL     1       4.969  -0.501  -0.964  0.00  0.00    -0.421 OA
ATOM     14  C   UNL     1       6.302  -0.548  -0.849  0.00  0.00    +0.337 A 
ATOM     15  O   UNL     1       6.966  -0.842  -1.827  0.00  0.00    -0.245 OA
ATOM     16  C   UNL     1       6.965  -0.270   0.363  0.00  0.00    +0.092 A 
ATOM     17  C   UNL     1       6.242   0.062   1.464  0.00  0.00    +0.018 A 
ATOM     18  O   UNL     1       0.671   0.241   0.948  0.00  0.00    -0.478 OA
ATOM     19  C   UNL     1      -1.379   0.428  -0.311  0.00  0.00    +0.064 C 
ENDROOT
BRANCH   6  20
ATOM     20  N   UNL     1       2.117  -1.403  -3.469  0.00  0.00    -0.305 N 
ATOM     21  C   UNL     1       2.811  -1.910  -4.564  0.00  0.00    +0.122 A 
ATOM     22  C   UNL     1       4.192  -2.062  -4.495  0.00  0.00    +0.044 A 
ATOM     23  C   UNL     1       4.869  -2.567  -5.590  0.00  0.00    +0.005 A 
ATOM     24  C   UNL     1       4.138  -2.906  -6.722  0.00  0.00    +0.020 A 
ATOM     25  C   UNL     1       2.769  -2.729  -6.721  0.00  0.00    +0.113 A 
ATOM     26  N   UNL     1       2.150  -2.249  -5.660  0.00  0.00    -0.240 NA
ATOM     27  H   UNL     1       1.153  -1.299  -3.511  0.00  0.00    +0.153 HD
ENDBRANCH   6  20
TORSDOF 1
