REMARK  Name = ZINC63479905
REMARK  3 active torsions:
REMARK  status: ('A' for Active; 'I' for Inactive)
REMARK    1  A    between atoms: C_7  and  C_10
REMARK    2  A    between atoms: C_10  and  C_11
REMARK    3  A    between atoms: N_19  and  C_22
REMARK                            x       y       z     vdW  Elec       q    Type
REMARK                         _______ _______ _______ _____ _____    ______ ____
ROOT
ATOM      1  C   UNL     1       0.578  -3.960  -1.269  0.00  0.00    +0.072 C 
ATOM      2  C   UNL     1      -0.465  -5.074  -1.501  0.00  0.00    +0.107 C 
ATOM      3  C   UNL     1      -1.323  -4.575  -2.697  0.00  0.00    +0.123 C 
ATOM      4  C   UNL     1      -2.692  -4.379  -2.084  0.00  0.00    +0.233 C 
ATOM      5  O   UNL     1      -3.678  -3.999  -2.679  0.00  0.00    -0.274 OA
ATOM      6  N   UNL     1      -2.646  -4.689  -0.784  0.00  0.00    -0.210 N 
ATOM      7  C   UNL     1      -1.435  -5.100  -0.342  0.00  0.00    +0.232 C 
ATOM      8  O   UNL     1      -1.164  -5.434   0.791  0.00  0.00    -0.274 OA
ATOM      9  C   UNL     1      -0.712  -3.219  -3.070  0.00  0.00    +0.136 C 
ATOM     10  N   UNL     1      -0.036  -2.733  -1.845  0.00  0.00    -0.295 NA
ATOM     11  C   UNL     1      -1.764  -2.248  -3.527  0.00  0.00    +0.005 A 
ATOM     12  C   UNL     1      -2.889  -1.721  -2.934  0.00  0.00    +0.008 A 
ATOM     13  C   UNL     1      -3.683  -0.826  -3.628  0.00  0.00    +0.002 A 
ATOM     14  C   UNL     1      -3.344  -0.460  -4.918  0.00  0.00    +0.022 A 
ATOM     15  C   UNL     1      -2.216  -0.984  -5.516  0.00  0.00    +0.062 A 
ATOM     16  C   UNL     1      -1.411  -1.887  -4.824  0.00  0.00    +0.057 A 
ATOM     17  N   UNL     1      -0.238  -2.544  -5.206  0.00  0.00    -0.282 N 
ATOM     18  C   UNL     1       0.236  -3.345  -4.232  0.00  0.00    +0.243 C 
ATOM     19  O   UNL     1       1.233  -4.033  -4.281  0.00  0.00    -0.273 OA
ATOM     20 CL   UNL     1      -1.799  -0.517  -7.135  0.00  0.00    -0.082 Cl
ATOM     21  H   UNL     1      -0.691  -2.320  -1.199  0.00  0.00    +0.124 HD
ATOM     22  H   UNL     1       0.185  -2.437  -6.072  0.00  0.00    +0.155 HD
ENDROOT
BRANCH   6  23
ATOM     23  C   UNL     1      -3.766  -4.602   0.057  0.00  0.00    +0.044 A 
ATOM     24  C   UNL     1      -4.838  -5.465  -0.122  0.00  0.00    +0.027 A 
ATOM     25  C   UNL     1      -5.940  -5.377   0.706  0.00  0.00    +0.040 A 
ATOM     26  C   UNL     1      -5.974  -4.430   1.716  0.00  0.00    +0.124 A 
ATOM     27  C   UNL     1      -4.905  -3.568   1.896  0.00  0.00    +0.040 A 
ATOM     28  C   UNL     1      -3.800  -3.657   1.073  0.00  0.00    +0.027 A 
ATOM     29  F   UNL     1      -7.053  -4.346   2.525  0.00  0.00    -0.205 F 
ENDBRANCH   6  23
BRANCH   1  30
ATOM     30  C   UNL     1       0.834  -3.774   0.228  0.00  0.00    +0.052 C 
BRANCH  30  37
ATOM     31  C   UNL     1       0.702   0.742   1.029  0.00  0.00    +0.001 A 
ATOM     32  C   UNL     1       1.970   1.328   1.153  0.00  0.00    +0.002 A 
ATOM     33  C   UNL     1       3.114   0.620   1.045  0.00  0.00    +0.026 A 
ATOM     34  C   UNL     1       3.073  -0.779   0.796  0.00  0.00    +0.043 A 
ATOM     35  N   UNL     1       4.025  -1.669   0.652  0.00  0.00    -0.380 N 
ATOM     36  C   UNL     1       3.409  -2.978   0.409  0.00  0.00    +0.144 C 
ATOM     37  C   UNL     1       1.915  -2.744   0.428  0.00  0.00    -0.040 C 
ATOM     38  C   UNL     1       1.746  -1.422   0.661  0.00  0.00    -0.001 A 
ATOM     39  C   UNL     1       0.551  -0.581   0.792  0.00  0.00    +0.010 A 
ATOM     40  H   UNL     1       4.977  -1.491   0.698  0.00  0.00    +0.160 HD
ENDBRANCH  30  37
ENDBRANCH   1  30
TORSDOF 3
