REMARK  Name = ZINC16557245
REMARK  11 active torsions:
REMARK  status: ('A' for Active; 'I' for Inactive)
REMARK    1  A    between atoms: C_1  and  C_2
REMARK    2  A    between atoms: C_2  and  N_54
REMARK    3  A    between atoms: C_3  and  C_4
REMARK    4  A    between atoms: C_3  and  N_54
REMARK    5  A    between atoms: N_6  and  C_7
REMARK    6  A    between atoms: C_10  and  N_13
REMARK    7  A    between atoms: C_14  and  C_16
REMARK    8  A    between atoms: C_17  and  C_18
REMARK    9  A    between atoms: C_17  and  N_54
REMARK   10  A    between atoms: N_20  and  C_21
REMARK   11  A    between atoms: C_25  and  C_28
REMARK                            x       y       z     vdW  Elec       q    Type
REMARK                         _______ _______ _______ _____ _____    ______ ____
ROOT
ATOM      1  N   UNL     1       3.315   1.416   1.540  0.00  0.00    +0.391 N 
ATOM      2  H   UNL     1       3.454   1.782   2.489  0.00  0.00    -0.080 HD
ENDROOT
BRANCH   1   4
ATOM      3  C   UNL     1       1.645   3.200   1.520  0.00  0.00    -0.017 C 
ATOM      4  C   UNL     1       2.712   2.472   0.700  0.00  0.00    -0.081 C 
ENDBRANCH   1   4
BRANCH   1   5
ATOM      5  C   UNL     1       2.415   0.246   1.604  0.00  0.00    +0.020 C 
BRANCH   5   6
ATOM      6  C   UNL     1       2.839  -0.629   2.756  0.00  0.00    +0.201 C 
ATOM      7  O   UNL     1       3.718  -0.260   3.506  0.00  0.00    -0.278 OA
ATOM      8  N   UNL     1       2.240  -1.820   2.954  0.00  0.00    -0.287 N 
ATOM      9  H   UNL     1       1.492  -2.085   2.397  0.00  0.00    +0.155 HD
BRANCH   8  10
ATOM     10  C   UNL     1       2.697  -2.673   3.966  0.00  0.00    +0.033 A 
ATOM     11  C   UNL     1       2.677  -4.049   3.777  0.00  0.00    +0.025 A 
ATOM     12  C   UNL     1       3.132  -4.890   4.773  0.00  0.00    +0.025 A 
ATOM     13  C   UNL     1       3.598  -4.360   5.969  0.00  0.00    +0.033 A 
ATOM     14  C   UNL     1       3.612  -2.985   6.161  0.00  0.00    +0.025 A 
ATOM     15  C   UNL     1       3.163  -2.144   5.163  0.00  0.00    +0.025 A 
BRANCH  13  16
ATOM     16  N   UNL     1       4.054  -5.214   6.982  0.00  0.00    -0.286 N 
ATOM     17  C   UNL     1       4.663  -6.373   6.663  0.00  0.00    +0.214 C 
ATOM     18  O   UNL     1       4.910  -6.629   5.503  0.00  0.00    -0.276 OA
ATOM     19  C   UNL     1       5.038  -7.350   7.747  0.00  0.00    +0.109 C 
ATOM     20  H   UNL     1       3.932  -4.970   7.913  0.00  0.00    +0.155 HD
ENDBRANCH  13  16
ENDBRANCH   8  10
ENDBRANCH   5   6
ENDBRANCH   1   5
BRANCH   1  21
ATOM     21  C   UNL     1       4.625   1.015   0.985  0.00  0.00    +0.020 C 
BRANCH  21  22
ATOM     22  C   UNL     1       5.589   2.164   1.135  0.00  0.00    +0.201 C 
ATOM     23  O   UNL     1       5.217   3.206   1.633  0.00  0.00    -0.278 OA
ATOM     24  N   UNL     1       6.863   2.035   0.715  0.00  0.00    -0.285 N 
ATOM     25  H   UNL     1       7.140   1.232   0.247  0.00  0.00    +0.155 HD
BRANCH  24  26
ATOM     26  C   UNL     1       7.787   3.059   0.955  0.00  0.00    +0.071 A 
ATOM     27  C   UNL     1       7.468   4.373   0.633  0.00  0.00    +0.064 A 
ATOM     28  C   UNL     1       8.381   5.383   0.875  0.00  0.00    +0.022 A 
ATOM     29  C   UNL     1       9.614   5.085   1.427  0.00  0.00    +0.006 A 
ATOM     30  C   UNL     1       9.935   3.778   1.744  0.00  0.00    -0.030 A 
ATOM     31  C   UNL     1       9.026   2.764   1.509  0.00  0.00    +0.066 A 
ATOM     32 CL   UNL     1       9.431   1.123   1.906  0.00  0.00    -0.081 Cl
ATOM     33  C   UNL     1      11.280   3.459   2.345  0.00  0.00    +0.045 C 
ATOM     34 CL   UNL     1       5.924   4.747  -0.066  0.00  0.00    -0.082 Cl
ENDBRANCH  24  26
ENDBRANCH  21  22
ENDBRANCH   1  21
TORSDOF 8
