REMARK  Name = ZINC66243632
REMARK  6 active torsions:
REMARK  status: ('A' for Active; 'I' for Inactive)
REMARK    1  A    between atoms: C_1  and  C_2
REMARK    2  A    between atoms: N_5  and  C_11
REMARK    3  A    between atoms: C_7  and  C_10
REMARK    4  A    between atoms: C_14  and  C_18
REMARK    5  A    between atoms: C_18  and  N_19
REMARK    6  A    between atoms: N_22  and  C_23
REMARK                            x       y       z     vdW  Elec       q    Type
REMARK                         _______ _______ _______ _____ _____    ______ ____
ROOT
ATOM      1  C   UNL     1       2.795   0.528  -2.199  0.00  0.00    +0.066 A 
ATOM      2  C   UNL     1       2.817   1.915  -2.236  0.00  0.00    +0.026 A 
ATOM      3  C   UNL     1       3.462   2.567  -3.270  0.00  0.00    +0.007 A 
ATOM      4  C   UNL     1       4.085   1.840  -4.267  0.00  0.00    -0.025 A 
ATOM      5  C   UNL     1       4.065   0.457  -4.235  0.00  0.00    +0.045 A 
ATOM      6  C   UNL     1       3.427  -0.202  -3.200  0.00  0.00    +0.145 A 
ATOM      7  F   UNL     1       3.412  -1.552  -3.165  0.00  0.00    -0.204 F 
ENDROOT
BRANCH   1  11
ATOM      8  C   UNL     1      -0.019   1.526   0.010  0.00  0.00    +0.039 C 
ATOM      9  C   UNL     1       0.002  -0.004   0.002  0.00  0.00    +0.133 C 
ATOM     10  C   UNL     1       0.722  -0.499  -1.258  0.00  0.00    +0.136 C 
ATOM     11  N   UNL     1       2.143  -0.135  -1.154  0.00  0.00    -0.323 N 
ATOM     12  C   UNL     1       2.860  -0.488   0.082  0.00  0.00    +0.136 C 
ATOM     13  C   UNL     1       2.036   0.007   1.277  0.00  0.00    +0.133 C 
ATOM     14  O   UNL     1       0.695  -0.479   1.159  0.00  0.00    -0.371 OA
ATOM     15  C   UNL     1       2.656  -0.513   2.575  0.00  0.00    +0.039 C 
ENDBRANCH   1  11
BRANCH   4  16
ATOM     16  C   UNL     1       4.786   2.555  -5.393  0.00  0.00    +0.151 C 
BRANCH  16  17
ATOM     17  N   UNL     1       6.186   2.788  -5.027  0.00  0.00    -0.354 N 
ATOM     18  C   UNL     1       7.028   3.429  -5.904  0.00  0.00    +0.169 C 
ATOM     19  N   UNL     1       6.582   3.831  -7.060  0.00  0.00    -0.371 N 
ATOM     20  N   UNL     1       8.341   3.648  -5.560  0.00  0.00    -0.355 N 
ATOM     21  H   UNL     1       6.518   2.489  -4.166  0.00  0.00    +0.163 HD
ATOM     22  H   UNL     1       7.176   4.284  -7.679  0.00  0.00    +0.159 HD
ATOM     23  H   UNL     1       8.674   3.349  -4.699  0.00  0.00    +0.163 HD
ATOM     24  H   UNL     1       5.655   3.677  -7.303  0.00  0.00    +0.159 HD
BRANCH  20  25
ATOM     25  C   UNL     1       9.239   4.331  -6.494  0.00  0.00    +0.082 C 
ATOM     26  C   UNL     1       9.158   5.857  -6.284  0.00  0.00    +0.024 C 
ATOM     27  C   UNL     1      10.341   6.174  -5.337  0.00  0.00    +0.002 C 
ATOM     28  C   UNL     1      11.451   5.221  -5.846  0.00  0.00    +0.002 C 
ATOM     29  C   UNL     1      10.697   3.927  -6.216  0.00  0.00    +0.024 C 
ENDBRANCH  20  25
ENDBRANCH  16  17
ENDBRANCH   4  16
TORSDOF 4
