REMARK  Name = ZINC67515488
REMARK  10 active torsions:
REMARK  status: ('A' for Active; 'I' for Inactive)
REMARK    1  A    between atoms: C_1  and  C_2
REMARK    2  A    between atoms: C_2  and  C_3
REMARK    3  A    between atoms: C_3  and  C_4
REMARK    4  A    between atoms: C_6  and  C_29
REMARK    5  A    between atoms: C_7  and  C_9
REMARK    6  A    between atoms: C_9  and  N_10
REMARK    7  A    between atoms: C_11  and  C_13
REMARK    8  A    between atoms: C_14  and  C_28
REMARK    9  A    between atoms: C_19  and  C_21
REMARK   10  A    between atoms: C_22  and  C_27
REMARK                            x       y       z     vdW  Elec       q    Type
REMARK                         _______ _______ _______ _____ _____    ______ ____
ROOT
ATOM      1  C   UNL     1      -4.358  -8.133  -2.022  0.00  0.00    +0.057 C 
ATOM      2  C   UNL     1      -4.658  -9.352  -2.516  0.00  0.00    +0.019 C 
ATOM      3  N   UNL     1      -5.956  -9.745  -2.686  0.00  0.00    -0.273 N 
ATOM      4  C   UNL     1      -7.010  -8.975  -2.385  0.00  0.00    +0.304 C 
ATOM      5  O   UNL     1      -8.129  -9.412  -2.571  0.00  0.00    -0.252 OA
ATOM      6  N   UNL     1      -6.870  -7.733  -1.882  0.00  0.00    -0.287 N 
ATOM      7  C   UNL     1      -5.509  -7.218  -1.656  0.00  0.00    +0.160 C 
ATOM      8  C   UNL     1      -3.544 -10.296  -2.888  0.00  0.00    +0.061 C 
ATOM      9  H   UNL     1      -6.123 -10.630  -3.045  0.00  0.00    +0.156 HD
ATOM     10  H   UNL     1      -7.647  -7.192  -1.671  0.00  0.00    +0.151 HD
ENDROOT
BRANCH   7  11
ATOM     11  C   UNL     1      -5.361  -5.946  -2.450  0.00  0.00    +0.061 A 
ATOM     12  C   UNL     1      -5.975  -4.772  -2.208  0.00  0.00    +0.035 A 
ATOM     13  N   UNL     1      -5.576  -3.895  -3.141  0.00  0.00    -0.350 N 
ATOM     14  C   UNL     1      -4.738  -4.480  -3.952  0.00  0.00    +0.171 A 
ATOM     15  N   UNL     1      -4.571  -5.759  -3.553  0.00  0.00    -0.348 N 
ATOM     16  H   UNL     1      -4.000  -6.423  -3.971  0.00  0.00    +0.167 HD
ATOM     17  C   UNL     1      -6.941  -4.493  -1.085  0.00  0.00    +0.065 C 
ATOM     18  H   UNL     1      -5.865  -2.971  -3.203  0.00  0.00    +0.166 HD
ENDBRANCH   7  11
BRANCH   1  20
ATOM     19  N   UNL     1      -2.739  -6.516  -1.317  0.00  0.00    -0.307 N 
ATOM     20  C   UNL     1      -3.013  -7.726  -1.845  0.00  0.00    +0.244 C 
ATOM     21  O   UNL     1      -2.104  -8.467  -2.171  0.00  0.00    -0.270 OA
ATOM     22  H   UNL     1      -3.461  -5.951  -1.000  0.00  0.00    +0.149 HD
BRANCH  19  23
ATOM     23  C   UNL     1      -1.352  -6.056  -1.220  0.00  0.00    +0.149 C 
BRANCH  23  27
ATOM     24  C   UNL     1      -1.307  -2.053  -0.302  0.00  0.00    +0.079 A 
ATOM     25  N   UNL     1      -1.256  -2.866   0.723  0.00  0.00    -0.249 NA
ATOM     26  C   UNL     1      -1.264  -4.174   0.563  0.00  0.00    +0.050 A 
ATOM     27  C   UNL     1      -1.327  -4.638  -0.712  0.00  0.00    +0.029 A 
ATOM     28  S   UNL     1      -1.379  -3.100  -1.618  0.00  0.00    -0.075 S 
ATOM     29  C   UNL     1      -1.205  -5.113   1.740  0.00  0.00    +0.066 C 
BRANCH  24  30
ATOM     30  C   UNL     1      -1.307  -0.546  -0.304  0.00  0.00    +0.062 C 
BRANCH  30  32
ATOM     31  C   UNL     1       0.134   1.494  -0.385  0.00  0.00    +0.004 C 
ATOM     32  C   UNL     1       0.134  -0.036  -0.383  0.00  0.00    +0.003 C 
ENDBRANCH  30  32
ENDBRANCH  24  30
ENDBRANCH  23  27
ENDBRANCH  19  23
ENDBRANCH   1  20
TORSDOF 6
