REMARK  Name = ZINC29323553
REMARK  10 active torsions:
REMARK  status: ('A' for Active; 'I' for Inactive)
REMARK    1  A    between atoms: C_1  and  C_2
REMARK    2  A    between atoms: C_5  and  S_8
REMARK    3  A    between atoms: S_8  and  N_11
REMARK    4  A    between atoms: N_11  and  C_12
REMARK    5  A    between atoms: C_12  and  C_13
REMARK    6  A    between atoms: C_13  and  N_14
REMARK    7  A    between atoms: N_17  and  C_18
REMARK    8  A    between atoms: C_18  and  C_19
REMARK    9  A    between atoms: C_19  and  C_21
REMARK   10  A    between atoms: C_19  and  N_26
REMARK                            x       y       z     vdW  Elec       q    Type
REMARK                         _______ _______ _______ _____ _____    ______ ____
ROOT
ATOM      1  N   UNL     1       4.697  -5.165   2.111  0.00  0.00    -0.298 N 
ATOM      2  C   UNL     1       5.933  -5.697   2.191  0.00  0.00    +0.300 C 
ATOM      3  O   UNL     1       6.390  -6.316   1.249  0.00  0.00    -0.253 OA
ATOM      4  N   UNL     1       6.662  -5.543   3.313  0.00  0.00    -0.301 N 
ATOM      5  H   UNL     1       4.333  -4.671   2.862  0.00  0.00    +0.150 HD
ATOM      6  H   UNL     1       6.298  -5.050   4.065  0.00  0.00    +0.150 HD
ENDROOT
BRANCH   1   7
ATOM      7  C   UNL     1       3.905  -5.332   0.890  0.00  0.00    +0.122 C 
BRANCH   7   8
ATOM      8  C   UNL     1       2.553  -4.637   1.061  0.00  0.00    +0.124 C 
BRANCH   8   9
ATOM      9  N   UNL     1       1.760  -4.804  -0.159  0.00  0.00    -0.188 NA
ATOM     10  H   UNL     1       2.188  -5.099  -0.979  0.00  0.00    +0.148 HD
BRANCH   9  11
ATOM     11  S   UNL     1       0.134  -4.490  -0.141  0.00  0.00    +0.058 S 
ATOM     12  O   UNL     1      -0.399  -5.172   0.986  0.00  0.00    -0.153 OA
ATOM     13  O   UNL     1      -0.338  -4.715  -1.462  0.00  0.00    -0.153 OA
BRANCH  11  18
ATOM     14  C   UNL     1      -0.532   1.408   0.944  0.00  0.00    +0.044 C 
ATOM     15  C   UNL     1      -0.366  -0.065   0.673  0.00  0.00    -0.050 A 
ATOM     16  C   UNL     1      -0.260  -0.521  -0.628  0.00  0.00    +0.005 A 
ATOM     17  C   UNL     1      -0.107  -1.872  -0.876  0.00  0.00    +0.029 A 
ATOM     18  C   UNL     1      -0.060  -2.767   0.176  0.00  0.00    +0.105 A 
ATOM     19  C   UNL     1      -0.165  -2.311   1.477  0.00  0.00    +0.029 A 
ATOM     20  C   UNL     1      -0.314  -0.960   1.726  0.00  0.00    +0.005 A 
ENDBRANCH  11  18
ENDBRANCH   9  11
ENDBRANCH   8   9
ENDBRANCH   7   8
ENDBRANCH   1   7
BRANCH   4  21
ATOM     21  C   UNL     1       8.005  -6.122   3.400  0.00  0.00    +0.098 C 
BRANCH  21  22
ATOM     22  C   UNL     1       8.662  -5.692   4.713  0.00  0.00    +0.016 C 
BRANCH  22  23
ATOM     23  N   UNL     1       9.954  -6.376   4.861  0.00  0.00    +0.387 N 
ATOM     24  C   UNL     1      10.603  -5.975   6.136  0.00  0.00    -0.078 C 
ATOM     25  C   UNL     1      11.592  -7.136   6.411  0.00  0.00    -0.020 C 
ATOM     26  C   UNL     1      10.805  -8.380   5.937  0.00  0.00    -0.020 C 
ATOM     27  C   UNL     1       9.749  -7.838   4.955  0.00  0.00    -0.078 C 
ATOM     28  H   UNL     1      10.555  -6.159   4.080  0.00  0.00    -0.081 HD
ENDBRANCH  22  23
BRANCH  22  29
ATOM     29  C   UNL     1       8.882  -4.202   4.702  0.00  0.00    +0.093 A 
ATOM     30  C   UNL     1       8.105  -3.287   5.311  0.00  0.00    +0.043 A 
ATOM     31  C   UNL     1       8.675  -2.022   5.041  0.00  0.00    +0.041 A 
ATOM     32  C   UNL     1       9.765  -2.238   4.284  0.00  0.00    +0.195 A 
ATOM     33  O   UNL     1       9.889  -3.561   4.086  0.00  0.00    -0.469 OA
ENDBRANCH  22  29
ENDBRANCH  21  22
ENDBRANCH   4  21
TORSDOF 9
