REMARK  Name = ZINC66844370
REMARK  8 active torsions:
REMARK  status: ('A' for Active; 'I' for Inactive)
REMARK    1  A    between atoms: C_1  and  N_2
REMARK    2  A    between atoms: N_2  and  C_3
REMARK    3  A    between atoms: N_2  and  C_15
REMARK    4  A    between atoms: C_3  and  C_4
REMARK    5  A    between atoms: N_6  and  C_7
REMARK    6  A    between atoms: C_15  and  C_16
REMARK    7  A    between atoms: N_18  and  N_19
REMARK    8  A    between atoms: C_20  and  C_22
REMARK                            x       y       z     vdW  Elec       q    Type
REMARK                         _______ _______ _______ _____ _____    ______ ____
ROOT
ATOM      1  C   UNL     1      -0.025   1.462   0.003  0.00  0.00    -0.095 C 
ATOM      2  N   UNL     1       0.003  -0.007   0.003  0.00  0.00    +0.389 N 
ATOM      3  H   UNL     1       0.493  -0.334   0.822  0.00  0.00    -0.081 HD
ENDROOT
BRANCH   2   4
ATOM      4  C   UNL     1       0.691  -0.484  -1.204  0.00  0.00    +0.019 C 
BRANCH   4   5
ATOM      5  C   UNL     1       2.136  -0.058  -1.159  0.00  0.00    +0.201 C 
ATOM      6  O   UNL     1       2.551   0.580  -0.214  0.00  0.00    -0.278 OA
ATOM      7  N   UNL     1       2.967  -0.387  -2.168  0.00  0.00    -0.287 N 
ATOM      8  H   UNL     1       2.653  -0.953  -2.890  0.00  0.00    +0.155 HD
BRANCH   7   9
ATOM      9  C   UNL     1       4.283   0.090  -2.174  0.00  0.00    +0.039 A 
ATOM     10  C   UNL     1       4.896   0.421  -3.374  0.00  0.00    +0.061 A 
ATOM     11  C   UNL     1       6.197   0.892  -3.378  0.00  0.00    +0.128 A 
ATOM     12  C   UNL     1       6.887   1.032  -2.186  0.00  0.00    +0.076 A 
ATOM     13  C   UNL     1       6.277   0.702  -0.988  0.00  0.00    +0.128 A 
ATOM     14  C   UNL     1       4.974   0.237  -0.979  0.00  0.00    +0.061 A 
ATOM     15  F   UNL     1       6.953   0.839   0.174  0.00  0.00    -0.205 F 
ATOM     16  F   UNL     1       6.795   1.215  -4.546  0.00  0.00    -0.205 F 
ENDBRANCH   7   9
ENDBRANCH   4   5
ENDBRANCH   2   4
BRANCH   2  17
ATOM     17  C   UNL     1      -1.373  -0.522   0.018  0.00  0.00    +0.020 C 
BRANCH  17  18
ATOM     18  C   UNL     1      -2.040  -0.135   1.312  0.00  0.00    +0.213 C 
ATOM     19  O   UNL     1      -1.430   0.506   2.141  0.00  0.00    -0.276 OA
ATOM     20  N   UNL     1      -3.315  -0.503   1.549  0.00  0.00    -0.236 N 
ATOM     21  H   UNL     1      -3.804  -1.016   0.886  0.00  0.00    +0.173 HD
BRANCH  20  22
ATOM     22  N   UNL     1      -3.936  -0.143   2.753  0.00  0.00    -0.230 N 
ATOM     23  C   UNL     1      -5.211  -0.510   2.990  0.00  0.00    +0.267 C 
ATOM     24  O   UNL     1      -5.823  -1.154   2.158  0.00  0.00    -0.268 OA
ATOM     25  H   UNL     1      -3.448   0.370   3.416  0.00  0.00    +0.173 HD
BRANCH  23  26
ATOM     26  C   UNL     1      -5.860  -0.135   4.249  0.00  0.00    +0.075 A 
ATOM     27  C   UNL     1      -7.146  -0.413   4.687  0.00  0.00    +0.021 A 
ATOM     28  C   UNL     1      -7.473   0.078   5.928  0.00  0.00    +0.008 A 
ATOM     29  C   UNL     1      -6.547   0.782   6.624  0.00  0.00    +0.046 A 
ATOM     30  S   UNL     1      -5.199   0.793   5.620  0.00  0.00    -0.092 S 
ENDBRANCH  23  26
ENDBRANCH  20  22
ENDBRANCH  17  18
ENDBRANCH   2  17
TORSDOF 7
