REMARK  Name = ZINC08658381
REMARK  11 active torsions:
REMARK  status: ('A' for Active; 'I' for Inactive)
REMARK    1  A    between atoms: C_1  and  C_2
REMARK    2  A    between atoms: C_2  and  C_3
REMARK    3  A    between atoms: C_2  and  C_4
REMARK    4  A    between atoms: C_2  and  C_5
REMARK    5  A    between atoms: C_8  and  C_11
REMARK    6  A    between atoms: C_14  and  S_22
REMARK    7  A    between atoms: N_15  and  C_16
REMARK    8  A    between atoms: S_22  and  C_23
REMARK    9  A    between atoms: C_23  and  C_24
REMARK   10  A    between atoms: N_26  and  C_27
REMARK   11  A    between atoms: C_28  and  C_32
REMARK                            x       y       z     vdW  Elec       q    Type
REMARK                         _______ _______ _______ _____ _____    ______ ____
ROOT
ATOM      1  C   UNL     1       1.052   0.359   4.646  0.00  0.00    +0.169 A 
ATOM      2  N   UNL     1       1.760  -0.127   3.653  0.00  0.00    -0.128 NA
ATOM      3  N   UNL     1       1.245   0.226   2.530  0.00  0.00    -0.122 NA
ATOM      4  C   UNL     1       0.174   0.961   2.735  0.00  0.00    +0.197 A 
ATOM      5  N   UNL     1       0.016   1.077   4.089  0.00  0.00    -0.270 N 
ENDROOT
BRANCH   1   9
ATOM      6  C   UNL     1       1.820  -0.166   8.790  0.00  0.00    -0.042 A 
ATOM      7  C   UNL     1       2.803  -0.465   7.864  0.00  0.00    +0.005 A 
ATOM      8  C   UNL     1       2.561  -0.297   6.517  0.00  0.00    +0.012 A 
ATOM      9  C   UNL     1       1.319   0.176   6.088  0.00  0.00    +0.020 A 
ATOM     10  C   UNL     1       0.333   0.481   7.028  0.00  0.00    +0.012 A 
ATOM     11  C   UNL     1       0.587   0.304   8.372  0.00  0.00    +0.005 A 
BRANCH   6  13
ATOM     12  C   UNL     1       3.273   0.527  10.676  0.00  0.00    +0.015 C 
ATOM     13  C   UNL     1       2.092  -0.352  10.261  0.00  0.00    -0.013 C 
ATOM     14  C   UNL     1       0.852   0.046  11.063  0.00  0.00    +0.015 C 
ATOM     15  C   UNL     1       2.427  -1.820  10.535  0.00  0.00    +0.015 C 
ENDBRANCH   6  13
ENDBRANCH   1   9
BRANCH   5  16
ATOM     16  C   UNL     1      -0.990   1.778   4.768  0.00  0.00    +0.051 A 
ATOM     17  C   UNL     1      -0.666   2.880   5.548  0.00  0.00    +0.026 A 
ATOM     18  C   UNL     1      -1.660   3.572   6.211  0.00  0.00    +0.002 A 
ATOM     19  C   UNL     1      -2.977   3.162   6.108  0.00  0.00    +0.000 A 
ATOM     20  C   UNL     1      -3.302   2.061   5.336  0.00  0.00    +0.002 A 
ATOM     21  C   UNL     1      -2.313   1.369   4.666  0.00  0.00    +0.026 A 
ENDBRANCH   5  16
BRANCH   4  22
ATOM     22  S   UNL     1      -0.860   1.669   1.497  0.00  0.00    -0.076 S 
BRANCH  22  23
ATOM     23  C   UNL     1      -0.013   1.086   0.008  0.00  0.00    +0.173 C 
BRANCH  23  24
ATOM     24  C   UNL     1      -0.742   1.585  -1.213  0.00  0.00    +0.228 C 
ATOM     25  O   UNL     1      -1.736   2.268  -1.088  0.00  0.00    -0.275 OA
ATOM     26  N   UNL     1      -0.288   1.272  -2.443  0.00  0.00    -0.279 N 
ATOM     27  H   UNL     1       0.507   0.726  -2.543  0.00  0.00    +0.155 HD
BRANCH  26  28
ATOM     28  C   UNL     1      -0.959   1.732  -3.566  0.00  0.00    +0.084 A 
ATOM     29  C   UNL     1      -0.646   1.522  -4.904  0.00  0.00    +0.065 A 
ATOM     30  C   UNL     1      -1.528   2.120  -5.878  0.00  0.00    +0.022 A 
ATOM     31  C   UNL     1      -2.567   2.835  -5.410  0.00  0.00    +0.048 A 
ATOM     32  S   UNL     1      -2.385   2.712  -3.642  0.00  0.00    -0.081 S 
BRANCH  29  33
ATOM     33  C   UNL     1       0.519   0.730  -5.307  0.00  0.00    +0.244 C 
ATOM     34  O   UNL     1       1.241   0.236  -4.460  0.00  0.00    -0.270 OA
ATOM     35  N   UNL     1       0.792   0.547  -6.614  0.00  0.00    -0.325 N 
ATOM     36  H   UNL     1       0.217   0.941  -7.289  0.00  0.00    +0.145 HD
ATOM     37  H   UNL     1       1.563   0.023  -6.880  0.00  0.00    +0.145 HD
ENDBRANCH  29  33
ENDBRANCH  26  28
ENDBRANCH  23  24
ENDBRANCH  22  23
ENDBRANCH   4  22
TORSDOF 8
