REMARK  Name = ZINC43222325
REMARK  6 active torsions:
REMARK  status: ('A' for Active; 'I' for Inactive)
REMARK    1  A    between atoms: C_1  and  C_2
REMARK    2  A    between atoms: C_6  and  C_8
REMARK    3  A    between atoms: C_8  and  N_9
REMARK    4  A    between atoms: C_10  and  C_12
REMARK    5  A    between atoms: C_17  and  C_19
REMARK    6  A    between atoms: N_21  and  C_22
REMARK                            x       y       z     vdW  Elec       q    Type
REMARK                         _______ _______ _______ _____ _____    ______ ____
ROOT
ATOM      1  C   UNL     1       3.127  -3.974   4.472  0.00  0.00    +0.068 C 
ATOM      2  C   UNL     1       3.837  -2.628   4.735  0.00  0.00    -0.069 C 
ATOM      3  N   UNL     1       3.698  -2.411   6.198  0.00  0.00    +0.380 N 
ATOM      4  C   UNL     1       3.897  -3.760   6.787  0.00  0.00    -0.069 C 
ATOM      5  C   UNL     1       3.167  -4.721   5.821  0.00  0.00    +0.068 C 
ATOM      6  H   UNL     1       4.406  -1.773   6.529  0.00  0.00    -0.086 HD
ATOM      7  H   UNL     1       2.777  -2.062   6.417  0.00  0.00    -0.086 HD
ENDROOT
BRANCH   1   9
ATOM      8  N   UNL     1       1.440  -3.073   2.903  0.00  0.00    -0.311 N 
ATOM      9  C   UNL     1       1.701  -3.739   4.046  0.00  0.00    +0.215 C 
ATOM     10  O   UNL     1       0.788  -4.148   4.731  0.00  0.00    -0.276 OA
ATOM     11  H   UNL     1       2.171  -2.745   2.355  0.00  0.00    +0.149 HD
BRANCH   8  12
ATOM     12  C   UNL     1       0.054  -2.845   2.489  0.00  0.00    +0.139 C 
BRANCH  12  18
ATOM     13  C   UNL     1      -0.018   1.503   0.010  0.00  0.00    +0.044 C 
ATOM     14  C   UNL     1       0.002  -0.004   0.002  0.00  0.00    -0.050 A 
ATOM     15  C   UNL     1       0.006  -0.689  -1.199  0.00  0.00    +0.003 A 
ATOM     16  C   UNL     1       0.025  -2.071  -1.207  0.00  0.00    +0.001 A 
ATOM     17  C   UNL     1       0.040  -2.768  -0.013  0.00  0.00    +0.005 A 
ATOM     18  C   UNL     1       0.037  -2.084   1.188  0.00  0.00    -0.030 A 
ATOM     19  C   UNL     1       0.023  -0.702   1.195  0.00  0.00    +0.008 A 
ENDBRANCH  12  18
ENDBRANCH   8  12
ENDBRANCH   1   9
BRANCH   5  20
ATOM     20  C   UNL     1       3.934  -6.010   5.683  0.00  0.00    +0.215 C 
ATOM     21  O   UNL     1       4.412  -6.320   4.612  0.00  0.00    -0.276 OA
ATOM     22  N   UNL     1       4.089  -6.820   6.750  0.00  0.00    -0.308 N 
ATOM     23  H   UNL     1       3.707  -6.572   7.606  0.00  0.00    +0.149 HD
BRANCH  22  24
ATOM     24  C   UNL     1       4.835  -8.073   6.615  0.00  0.00    +0.103 C 
ATOM     25  C   UNL     1       5.407  -8.467   7.976  0.00  0.00    +0.027 C 
ATOM     26  C   UNL     1       5.992  -9.880   7.864  0.00  0.00    +0.007 C 
ATOM     27  C   UNL     1       4.839 -10.868   7.703  0.00  0.00    +0.035 C 
ATOM     28  C   UNL     1       3.917 -10.431   6.595  0.00  0.00    -0.042 A 
ATOM     29  C   UNL     1       3.913  -9.147   6.099  0.00  0.00    -0.024 A 
ATOM     30  C   UNL     1       3.032  -8.807   5.080  0.00  0.00    +0.006 A 
ATOM     31  C   UNL     1       2.165  -9.747   4.560  0.00  0.00    +0.000 A 
ATOM     32  C   UNL     1       2.173 -11.037   5.057  0.00  0.00    +0.000 A 
ATOM     33  C   UNL     1       3.046 -11.375   6.068  0.00  0.00    +0.004 A 
ENDBRANCH  22  24
ENDBRANCH   5  20
TORSDOF 5
