REMARK  Name = ZINC01443203
REMARK  10 active torsions:
REMARK  status: ('A' for Active; 'I' for Inactive)
REMARK    1  A    between atoms: C_1  and  C_2
REMARK    2  A    between atoms: C_3  and  C_28
REMARK    3  A    between atoms: C_6  and  S_8
REMARK    4  A    between atoms: S_8  and  C_9
REMARK    5  A    between atoms: C_9  and  C_10
REMARK    6  A    between atoms: N_12  and  C_13
REMARK    7  A    between atoms: C_14  and  C_26
REMARK    8  A    between atoms: N_15  and  C_25
REMARK    9  A    between atoms: N_16  and  C_19
REMARK   10  A    between atoms: C_28  and  C_29
REMARK                            x       y       z     vdW  Elec       q    Type
REMARK                         _______ _______ _______ _____ _____    ______ ____
ROOT
ATOM      1  C   UNL     1      -3.047   1.539   0.954  0.00  0.00    +0.173 C 
ENDROOT
BRANCH   1   2
ATOM      2  C   UNL     1      -4.336   0.765   0.847  0.00  0.00    +0.228 C 
ATOM      3  O   UNL     1      -4.414  -0.351   1.315  0.00  0.00    -0.275 OA
ATOM      4  N   UNL     1      -5.402   1.314   0.232  0.00  0.00    -0.279 N 
ATOM      5  H   UNL     1      -5.360   2.357  -0.116  0.00  0.00    +0.155 HD
BRANCH   4   6
ATOM      6  C   UNL     1      -6.571   0.551   0.034  0.00  0.00    +0.121 A 
ATOM      7  C   UNL     1      -7.230   0.382  -1.134  0.00  0.00    +0.059 A 
ATOM      8  N   UNL     1      -8.312  -0.427  -0.912  0.00  0.00    -0.282 N 
ATOM      9  N   UNL     1      -8.352  -0.780   0.442  0.00  0.00    -0.216 N 
ATOM     10  C   UNL     1      -7.301  -0.200   1.056  0.00  0.00    +0.293 A 
ATOM     11  O   UNL     1      -7.013  -0.285   2.236  0.00  0.00    -0.264 OA
ATOM     12  C   UNL     1      -9.278  -0.851  -1.929  0.00  0.00    +0.171 C 
ATOM     13  C   UNL     1      -6.837   0.982  -2.460  0.00  0.00    +0.067 C 
BRANCH   9  14
ATOM     14  C   UNL     1      -9.313  -1.592   1.051  0.00  0.00    +0.067 A 
ATOM     15  C   UNL     1     -10.665  -1.349   0.840  0.00  0.00    +0.028 A 
ATOM     16  C   UNL     1     -11.612  -2.157   1.438  0.00  0.00    +0.002 A 
ATOM     17  C   UNL     1     -11.216  -3.199   2.256  0.00  0.00    +0.000 A 
ATOM     18  C   UNL     1      -9.872  -3.440   2.473  0.00  0.00    +0.002 A 
ATOM     19  C   UNL     1      -8.920  -2.640   1.873  0.00  0.00    +0.028 A 
ENDBRANCH   9  14
ENDBRANCH   4   6
ENDBRANCH   1   2
BRANCH   1  20
ATOM     20  S   UNL     1      -1.815   0.541   1.827  0.00  0.00    -0.077 S 
BRANCH  20  26
ATOM     21  C   UNL     1       3.033   1.669   3.018  0.00  0.00    +0.066 C 
ATOM     22  C   UNL     1       1.739   2.099   2.376  0.00  0.00    +0.050 A 
ATOM     23  C   UNL     1       1.633   3.345   1.786  0.00  0.00    +0.044 A 
ATOM     24  C   UNL     1       0.418   3.703   1.203  0.00  0.00    +0.278 A 
ATOM     25  N   UNL     1      -0.592   2.841   1.233  0.00  0.00    -0.183 NA
ATOM     26  C   UNL     1      -0.450   1.656   1.809  0.00  0.00    +0.192 A 
ATOM     27  N   UNL     1       0.693   1.288   2.371  0.00  0.00    -0.227 NA
ATOM     28  O   UNL     1       0.269   4.914   0.614  0.00  0.00    -0.265 OA
BRANCH  23  29
ATOM     29  C   UNL     1       2.803   4.294   1.772  0.00  0.00    +0.077 C 
BRANCH  29  30
ATOM     30  C   UNL     1       3.624   4.061   0.530  0.00  0.00    -0.043 A 
ATOM     31  C   UNL     1       4.665   3.151   0.552  0.00  0.00    +0.007 A 
ATOM     32  C   UNL     1       5.416   2.933  -0.588  0.00  0.00    +0.038 A 
ATOM     33  C   UNL     1       5.133   3.634  -1.748  0.00  0.00    +0.123 A 
ATOM     34  C   UNL     1       4.093   4.548  -1.766  0.00  0.00    +0.038 A 
ATOM     35  C   UNL     1       3.340   4.761  -0.627  0.00  0.00    +0.007 A 
ATOM     36  F   UNL     1       5.869   3.425  -2.861  0.00  0.00    -0.205 F 
ENDBRANCH  29  30
ENDBRANCH  23  29
ENDBRANCH  20  26
ENDBRANCH   1  20
TORSDOF 7
