REMARK  Name = ZINC63137376
REMARK  8 active torsions:
REMARK  status: ('A' for Active; 'I' for Inactive)
REMARK    1  A    between atoms: C_1  and  C_2
REMARK    2  A    between atoms: C_2  and  C_3
REMARK    3  A    between atoms: C_2  and  C_4
REMARK    4  A    between atoms: C_7  and  C_10
REMARK    5  A    between atoms: N_29  and  C_32
REMARK    6  A    between atoms: C_32  and  C_33
REMARK    7  A    between atoms: C_33  and  C_35
REMARK    8  A    between atoms: C_33  and  O_41
REMARK                            x       y       z     vdW  Elec       q    Type
REMARK                         _______ _______ _______ _____ _____    ______ ____
ROOT
ATOM      1  C   UNL     1      -5.419  -2.005   0.043  0.00  0.00    +0.133 C 
ATOM      2  C   UNL     1      -6.283  -1.120  -0.854  0.00  0.00    +0.131 C 
ATOM      3  C   UNL     1      -7.579  -1.895  -1.082  0.00  0.00    -0.034 C 
ATOM      4  C   UNL     1      -8.561  -1.152  -0.590  0.00  0.00    -0.001 A 
ATOM      5  C   UNL     1     -10.018  -1.358  -0.548  0.00  0.00    +0.010 A 
ATOM      6  C   UNL     1     -10.745  -0.376   0.048  0.00  0.00    +0.001 A 
ATOM      7  C   UNL     1     -10.175   0.776   0.600  0.00  0.00    +0.002 A 
ATOM      8  C   UNL     1      -8.846   1.048   0.603  0.00  0.00    +0.026 A 
ATOM      9  C   UNL     1      -7.978   0.090   0.002  0.00  0.00    +0.043 A 
ATOM     10  N   UNL     1      -6.669   0.108  -0.146  0.00  0.00    -0.375 N 
ATOM     11  C   UNL     1      -7.571  -3.252  -1.731  0.00  0.00    +0.065 C 
ATOM     12  C   UNL     1      -6.410  -4.060  -1.213  0.00  0.00    +0.167 C 
ATOM     13  N   UNL     1      -5.415  -3.390  -0.403  0.00  0.00    -0.279 N 
ATOM     14  C   UNL     1      -4.378  -4.181   0.028  0.00  0.00    +0.234 C 
ATOM     15  O   UNL     1      -3.449  -3.721   0.658  0.00  0.00    -0.274 OA
ATOM     16  C   UNL     1      -4.448  -5.652  -0.321  0.00  0.00    +0.203 C 
ATOM     17  N   UNL     1      -5.823  -6.126  -0.074  0.00  0.00    -0.288 N 
ATOM     18  C   UNL     1      -6.836  -5.339  -0.538  0.00  0.00    +0.237 C 
ATOM     19  O   UNL     1      -8.002  -5.650  -0.419  0.00  0.00    -0.274 OA
ATOM     20  H   UNL     1      -6.061   0.800   0.158  0.00  0.00    +0.160 HD
ENDROOT
BRANCH   1  24
ATOM     21  C   UNL     1      -1.412  -0.526   0.013  0.00  0.00    -0.045 A 
ATOM     22  C   UNL     1      -2.259  -0.204   1.056  0.00  0.00    +0.004 A 
ATOM     23  C   UNL     1      -3.556  -0.683   1.066  0.00  0.00    +0.006 A 
ATOM     24  C   UNL     1      -4.006  -1.482   0.032  0.00  0.00    -0.025 A 
ATOM     25  C   UNL     1      -3.159  -1.803  -1.012  0.00  0.00    +0.006 A 
ATOM     26  C   UNL     1      -1.863  -1.321  -1.024  0.00  0.00    +0.004 A 
BRANCH  21  28
ATOM     27  C   UNL     1      -0.019   1.526   0.010  0.00  0.00    +0.012 C 
ATOM     28  C   UNL     1       0.002  -0.004   0.002  0.00  0.00    +0.013 C 
ATOM     29  C   UNL     1       0.742  -0.511   1.242  0.00  0.00    +0.012 C 
ENDBRANCH  21  28
ENDBRANCH   1  24
BRANCH  17  30
ATOM     30  C   UNL     1      -6.088  -7.379   0.638  0.00  0.00    +0.144 C 
BRANCH  30  31
ATOM     31  C   UNL     1      -6.202  -7.099   2.138  0.00  0.00    +0.162 C 
BRANCH  31  32
ATOM     32  C   UNL     1      -6.475  -8.388   2.870  0.00  0.00    -0.018 A 
ATOM     33  C   UNL     1      -5.426  -9.206   3.243  0.00  0.00    +0.006 A 
ATOM     34  C   UNL     1      -5.676 -10.388   3.914  0.00  0.00    +0.000 A 
ATOM     35  C   UNL     1      -6.976 -10.751   4.214  0.00  0.00    +0.000 A 
ATOM     36  C   UNL     1      -8.025  -9.932   3.842  0.00  0.00    +0.000 A 
ATOM     37  C   UNL     1      -7.774  -8.748   3.174  0.00  0.00    +0.006 A 
ENDBRANCH  31  32
BRANCH  31  38
ATOM     38  O   UNL     1      -4.979  -6.532   2.611  0.00  0.00    -0.386 OA
ATOM     39  H   UNL     1      -4.207  -7.101   2.485  0.00  0.00    +0.210 HD
ENDBRANCH  31  38
ENDBRANCH  30  31
ENDBRANCH  17  30
TORSDOF 6
