REMARK  Name = ZINC16310833
REMARK  5 active torsions:
REMARK  status: ('A' for Active; 'I' for Inactive)
REMARK    1  A    between atoms: C_1  and  C_2
REMARK    2  A    between atoms: C_5  and  S_8
REMARK    3  A    between atoms: S_8  and  C_9
REMARK    4  A    between atoms: C_9  and  C_22
REMARK    5  A    between atoms: C_22  and  N_48
REMARK                            x       y       z     vdW  Elec       q    Type
REMARK                         _______ _______ _______ _____ _____    ______ ____
ROOT
ATOM      1  C   UNL     1      -0.698   1.559  -1.306  0.00  0.00    +0.103 C 
ATOM      2  C   UNL     1       0.037   0.930  -2.499  0.00  0.00    +0.253 C 
ATOM      3  O   UNL     1      -0.548   1.397  -3.714  0.00  0.00    -0.488 OA
ATOM      4  C   UNL     1      -0.682   2.731  -3.902  0.00  0.00    +0.145 A 
ATOM      5  C   UNL     1      -0.710   3.612  -2.809  0.00  0.00    +0.063 A 
ATOM      6  C   UNL     1      -0.859   4.984  -3.015  0.00  0.00    +0.030 A 
ATOM      7  C   UNL     1      -0.973   5.472  -4.301  0.00  0.00    +0.020 A 
ATOM      8  C   UNL     1      -0.941   4.603  -5.381  0.00  0.00    +0.034 A 
ATOM      9  C   UNL     1      -0.796   3.243  -5.188  0.00  0.00    +0.061 A 
ATOM     10 BR   UNL     1      -0.753   2.077  -6.676  0.00  0.00    -0.046 Br
ATOM     11 BR   UNL     1      -1.175   7.330  -4.590  0.00  0.00    -0.050 Br
ATOM     12  C   UNL     1      -0.575   3.065  -1.447  0.00  0.00    +0.184 C 
ATOM     13  O   UNL     1      -0.376   3.782  -0.489  0.00  0.00    -0.290 OA
ENDROOT
BRANCH   1  14
ATOM     14  S   UNL     1      -2.446   1.074  -1.332  0.00  0.00    -0.109 S 
BRANCH  14  19
ATOM     15  C   UNL     1      -2.320  -4.896  -0.449  0.00  0.00    +0.044 C 
ATOM     16  C   UNL     1      -2.351  -3.405  -0.669  0.00  0.00    -0.050 A 
ATOM     17  C   UNL     1      -3.563  -2.742  -0.727  0.00  0.00    +0.004 A 
ATOM     18  C   UNL     1      -3.596  -1.377  -0.929  0.00  0.00    +0.015 A 
ATOM     19  C   UNL     1      -2.409  -0.669  -1.074  0.00  0.00    +0.009 A 
ATOM     20  C   UNL     1      -1.193  -1.339  -1.021  0.00  0.00    +0.015 A 
ATOM     21  C   UNL     1      -1.168  -2.704  -0.813  0.00  0.00    +0.004 A 
ENDBRANCH  14  19
ENDBRANCH   1  14
BRANCH   1  22
ATOM     22  C   UNL     1      -0.051   1.103   0.004  0.00  0.00    -0.049 C 
BRANCH  22  27
ATOM     23  C   UNL     1      -2.094   1.636   1.216  0.00  0.00    -0.079 C 
ATOM     24  C   UNL     1      -2.422   2.035   2.677  0.00  0.00    -0.020 C 
ATOM     25  C   UNL     1      -1.194   1.518   3.461  0.00  0.00    -0.020 C 
ATOM     26  C   UNL     1      -0.069   1.402   2.415  0.00  0.00    -0.079 C 
ATOM     27  N   UNL     1      -0.642   1.860   1.148  0.00  0.00    +0.381 N 
ATOM     28  H   UNL     1      -0.451   2.861   1.024  0.00  0.00    -0.082 HD
ENDBRANCH  22  27
ENDBRANCH   1  22
TORSDOF 4
