REMARK  Name = ZINC59935847
REMARK  10 active torsions:
REMARK  status: ('A' for Active; 'I' for Inactive)
REMARK    1  A    between atoms: C_1  and  C_2
REMARK    2  A    between atoms: C_7  and  O_8
REMARK    3  A    between atoms: O_8  and  C_9
REMARK    4  A    between atoms: C_9  and  C_10
REMARK    5  A    between atoms: C_10  and  C_11
REMARK    6  A    between atoms: C_11  and  C_12
REMARK    7  A    between atoms: N_14  and  C_15
REMARK    8  A    between atoms: C_19  and  C_21
REMARK    9  A    between atoms: C_21  and  N_22
REMARK   10  A    between atoms: C_26  and  C_28
REMARK                            x       y       z     vdW  Elec       q    Type
REMARK                         _______ _______ _______ _____ _____    ______ ____
ROOT
ATOM      1  C   UNL     1       0.180   0.451   9.658  0.00  0.00    +0.034 A 
ATOM      2  C   UNL     1       0.149   1.835   9.544  0.00  0.00    +0.023 A 
ATOM      3  C   UNL     1       0.239   2.622  10.675  0.00  0.00    +0.002 A 
ATOM      4  C   UNL     1       0.360   2.034  11.921  0.00  0.00    +0.002 A 
ATOM      5  C   UNL     1       0.392   0.656  12.038  0.00  0.00    -0.062 A 
ATOM      6  C   UNL     1       0.295  -0.137  10.911  0.00  0.00    +0.025 A 
ENDROOT
BRANCH   1   9
ATOM      7  C   UNL     1       0.657   0.057   7.361  0.00  0.00    +0.217 C 
ATOM      8  O   UNL     1       1.174   1.152   7.292  0.00  0.00    -0.275 OA
ATOM      9  N   UNL     1       0.089  -0.349   8.514  0.00  0.00    -0.285 N 
ATOM     10  H   UNL     1      -0.383  -1.196   8.550  0.00  0.00    +0.155 HD
BRANCH   7  11
ATOM     11  C   UNL     1       0.650  -0.850   6.158  0.00  0.00    +0.099 C 
BRANCH  11  12
ATOM     12  C   UNL     1       1.354  -0.155   4.991  0.00  0.00    +0.050 C 
BRANCH  12  13
ATOM     13  C   UNL     1       1.347  -1.075   3.769  0.00  0.00    +0.229 C 
BRANCH  13  14
ATOM     14  O   UNL     1       2.004  -0.426   2.679  0.00  0.00    -0.492 OA
BRANCH  14  21
ATOM     15  C   UNL     1       3.299   0.841   0.512  0.00  0.00    +0.047 C 
ATOM     16  C   UNL     1       2.710  -0.542   0.410  0.00  0.00    -0.007 A 
ATOM     17  C   UNL     1       2.797  -1.245  -0.776  0.00  0.00    +0.027 A 
ATOM     18  C   UNL     1       2.256  -2.514  -0.871  0.00  0.00    +0.041 A 
ATOM     19  C   UNL     1       1.628  -3.084   0.223  0.00  0.00    +0.023 A 
ATOM     20  C   UNL     1       1.539  -2.384   1.411  0.00  0.00    +0.047 A 
ATOM     21  C   UNL     1       2.086  -1.113   1.509  0.00  0.00    +0.123 A 
ATOM     22 CL   UNL     1       2.366  -3.395  -2.362  0.00  0.00    -0.084 Cl
ENDBRANCH  14  21
ENDBRANCH  13  14
ENDBRANCH  12  13
ENDBRANCH  11  12
ENDBRANCH   7  11
ENDBRANCH   1   9
BRANCH   5  23
ATOM     23  C   UNL     1       0.524   0.019  13.397  0.00  0.00    -0.042 C 
BRANCH  23  24
ATOM     24  N   UNL     1      -0.812  -0.209  13.964  0.00  0.00    +0.390 N 
ATOM     25  C   UNL     1      -1.520  -1.265  13.196  0.00  0.00    -0.077 C 
ATOM     26  C   UNL     1      -2.591  -1.771  14.195  0.00  0.00    -0.020 C 
ATOM     27  C   UNL     1      -1.847  -1.728  15.550  0.00  0.00    -0.008 C 
ATOM     28  C   UNL     1      -0.699  -0.722  15.346  0.00  0.00    +0.019 C 
ATOM     29  H   UNL     1      -1.345   0.648  13.953  0.00  0.00    -0.080 HD
BRANCH  28  30
ATOM     30  C   UNL     1      -0.830   0.413  16.328  0.00  0.00    +0.197 C 
ATOM     31  O   UNL     1      -1.001   1.545  15.927  0.00  0.00    -0.278 OA
ATOM     32  N   UNL     1      -0.757   0.171  17.652  0.00  0.00    -0.331 N 
ATOM     33  H   UNL     1      -0.620  -0.734  17.973  0.00  0.00    +0.145 HD
ATOM     34  H   UNL     1      -0.841   0.902  18.284  0.00  0.00    +0.145 HD
ENDBRANCH  28  30
ENDBRANCH  23  24
ENDBRANCH   5  23
TORSDOF 9
