REMARK  Name = ZINC35486247
REMARK  12 active torsions:
REMARK  status: ('A' for Active; 'I' for Inactive)
REMARK    1  A    between atoms: C_1  and  C_2
REMARK    2  A    between atoms: C_2  and  C_3
REMARK    3  A    between atoms: C_3  and  O_4
REMARK    4  A    between atoms: O_4  and  C_5
REMARK    5  A    between atoms: C_9  and  C_11
REMARK    6  A    between atoms: N_26  and  C_27
REMARK    7  A    between atoms: C_27  and  C_28
REMARK    8  A    between atoms: C_28  and  N_29
REMARK    9  A    between atoms: N_29  and  C_30
REMARK   10  A    between atoms: N_29  and  C_32
REMARK   11  A    between atoms: C_30  and  C_31
REMARK   12  A    between atoms: C_32  and  C_33
REMARK                            x       y       z     vdW  Elec       q    Type
REMARK                         _______ _______ _______ _____ _____    ______ ____
ROOT
ATOM      1  C   UNL     1       2.104  -6.145  -3.724  0.00  0.00    +0.145 C 
ATOM      2  C   UNL     1       1.178  -6.615  -4.796  0.00  0.00    +0.072 A 
ATOM      3  C   UNL     1      -0.286  -6.595  -4.886  0.00  0.00    +0.199 A 
ATOM      4  O   UNL     1      -0.995  -5.994  -4.098  0.00  0.00    -0.287 OA
ATOM      5  C   UNL     1      -0.822  -7.376  -6.029  0.00  0.00    +0.065 A 
ATOM      6  C   UNL     1      -2.191  -7.620  -6.137  0.00  0.00    +0.030 A 
ATOM      7  C   UNL     1      -2.671  -8.351  -7.202  0.00  0.00    +0.019 A 
ATOM      8  C   UNL     1      -1.793  -8.841  -8.160  0.00  0.00    +0.019 A 
ATOM      9  C   UNL     1      -0.441  -8.606  -8.064  0.00  0.00    +0.048 A 
ATOM     10  C   UNL     1       0.069  -7.866  -6.997  0.00  0.00    +0.140 A 
ATOM     11  O   UNL     1       1.401  -7.641  -6.933  0.00  0.00    -0.450 OA
ATOM     12  C   UNL     1       1.938  -7.134  -5.806  0.00  0.00    +0.199 A 
ATOM     13  C   UNL     1       3.356  -7.023  -5.420  0.00  0.00    +0.283 C 
ATOM     14  O   UNL     1       4.292  -7.396  -6.098  0.00  0.00    -0.267 OA
ATOM     15  N   UNL     1       3.463  -6.446  -4.204  0.00  0.00    -0.285 N 
ATOM     16 BR   UNL     1      -4.525  -8.687  -7.358  0.00  0.00    -0.050 Br
ENDROOT
BRANCH   1  21
ATOM     17  C   UNL     1       1.080  -2.827  -2.234  0.00  0.00    +0.121 A 
ATOM     18  C   UNL     1       1.655  -1.935  -3.129  0.00  0.00    +0.045 A 
ATOM     19  C   UNL     1       2.371  -2.409  -4.210  0.00  0.00    +0.004 A 
ATOM     20  C   UNL     1       2.516  -3.771  -4.402  0.00  0.00    +0.006 A 
ATOM     21  C   UNL     1       1.945  -4.662  -3.512  0.00  0.00    -0.019 A 
ATOM     22  C   UNL     1       1.232  -4.192  -2.425  0.00  0.00    +0.051 A 
BRANCH  17  23
ATOM     23  O   UNL     1       0.375  -2.363  -1.169  0.00  0.00    -0.492 OA
BRANCH  23  24
ATOM     24  C   UNL     1       0.260  -0.945  -1.035  0.00  0.00    +0.229 C 
BRANCH  24  26
ATOM     25  C   UNL     1      -0.685   0.903   0.356  0.00  0.00    +0.007 C 
ATOM     26  C   UNL     1      -0.561  -0.615   0.213  0.00  0.00    +0.038 C 
ENDBRANCH  24  26
ENDBRANCH  23  24
ENDBRANCH  17  23
ENDBRANCH   1  21
BRANCH  15  27
ATOM     27  C   UNL     1       4.710  -6.167  -3.489  0.00  0.00    +0.090 C 
BRANCH  27  28
ATOM     28  C   UNL     1       5.077  -7.370  -2.616  0.00  0.00    -0.060 C 
BRANCH  28  29
ATOM     29  N   UNL     1       6.392  -7.144  -2.000  0.00  0.00    +0.380 N 
ATOM     30  H   UNL     1       7.069  -6.934  -2.719  0.00  0.00    -0.082 HD
BRANCH  29  31
ATOM     31  C   UNL     1       6.307  -6.017  -1.063  0.00  0.00    -0.082 C 
ATOM     32  C   UNL     1       7.700  -5.702  -0.515  0.00  0.00    -0.017 C 
ENDBRANCH  29  31
BRANCH  29  33
ATOM     33  C   UNL     1       6.807  -8.353  -1.276  0.00  0.00    -0.082 C 
ATOM     34  C   UNL     1       7.034  -9.492  -2.272  0.00  0.00    -0.017 C 
ENDBRANCH  29  33
ENDBRANCH  28  29
ENDBRANCH  27  28
ENDBRANCH  15  27
TORSDOF 9
