REMARK  Name = ZINC47613482
REMARK  8 active torsions:
REMARK  status: ('A' for Active; 'I' for Inactive)
REMARK    1  A    between atoms: C_4  and  C_7
REMARK    2  A    between atoms: C_7  and  C_8
REMARK    3  A    between atoms: C_8  and  C_9
REMARK    4  A    between atoms: C_9  and  N_10
REMARK    5  A    between atoms: N_10  and  C_11
REMARK    6  A    between atoms: N_10  and  C_18
REMARK    7  A    between atoms: C_11  and  C_12
REMARK    8  A    between atoms: C_18  and  C_19
REMARK                            x       y       z     vdW  Elec       q    Type
REMARK                         _______ _______ _______ _____ _____    ______ ____
ROOT
ATOM      1  N   UNL     1       6.050  -1.938   2.810  0.00  0.00    +0.391 N 
ATOM      2  H   UNL     1       5.986  -1.166   3.457  0.00  0.00    -0.080 HD
ENDROOT
BRANCH   1   3
ATOM      3  C   UNL     1       5.833  -1.450   1.442  0.00  0.00    -0.077 C 
BRANCH   3   4
ATOM      4  C   UNL     1       4.514  -0.678   1.379  0.00  0.00    -0.014 C 
BRANCH   4   5
ATOM      5  C   UNL     1       4.288  -0.170  -0.047  0.00  0.00    +0.033 C 
BRANCH   5   9
ATOM      6  C   UNL     1       0.604   1.986  -0.225  0.00  0.00    +0.000 A 
ATOM      7  C   UNL     1       1.780   2.649   0.074  0.00  0.00    +0.000 A 
ATOM      8  C   UNL     1       2.972   1.952   0.132  0.00  0.00    +0.003 A 
ATOM      9  C   UNL     1       2.988   0.591  -0.109  0.00  0.00    -0.047 A 
ATOM     10  C   UNL     1       1.813  -0.073  -0.407  0.00  0.00    +0.003 A 
ATOM     11  C   UNL     1       0.621   0.625  -0.467  0.00  0.00    +0.000 A 
ENDBRANCH   5   9
ENDBRANCH   4   5
ENDBRANCH   3   4
ENDBRANCH   1   3
BRANCH   1  12
ATOM     12  C   UNL     1       5.027  -2.939   3.141  0.00  0.00    +0.020 C 
BRANCH  12  13
ATOM     13  C   UNL     1       5.159  -4.118   2.212  0.00  0.00    +0.204 C 
ATOM     14  O   UNL     1       5.954  -4.083   1.298  0.00  0.00    -0.277 OA
ATOM     15  N   UNL     1       4.393  -5.212   2.398  0.00  0.00    -0.242 N 
ATOM     16  C   UNL     1       4.511  -6.266   1.567  0.00  0.00    +0.303 C 
ATOM     17  O   UNL     1       5.308  -6.231   0.650  0.00  0.00    -0.253 OA
ATOM     18  N   UNL     1       3.745  -7.360   1.753  0.00  0.00    -0.313 N 
ATOM     19  H   UNL     1       3.757  -5.240   3.130  0.00  0.00    +0.159 HD
ATOM     20  H   UNL     1       3.109  -7.388   2.485  0.00  0.00    +0.146 HD
ATOM     21  H   UNL     1       3.830  -8.119   1.155  0.00  0.00    +0.146 HD
ENDBRANCH  12  13
ENDBRANCH   1  12
BRANCH   1  22
ATOM     22  C   UNL     1       7.382  -2.550   2.907  0.00  0.00    +0.020 C 
BRANCH  22  23
ATOM     23  C   UNL     1       7.669  -2.905   4.343  0.00  0.00    +0.204 C 
ATOM     24  O   UNL     1       6.840  -2.683   5.200  0.00  0.00    -0.277 OA
ATOM     25  N   UNL     1       8.847  -3.469   4.676  0.00  0.00    -0.242 N 
ATOM     26  C   UNL     1       9.103  -3.787   5.960  0.00  0.00    +0.303 C 
ATOM     27  O   UNL     1       8.272  -3.565   6.819  0.00  0.00    -0.253 OA
ATOM     28  N   UNL     1      10.281  -4.351   6.292  0.00  0.00    -0.313 N 
ATOM     29  H   UNL     1       9.510  -3.646   3.990  0.00  0.00    +0.159 HD
ATOM     30  H   UNL     1      10.944  -4.528   5.607  0.00  0.00    +0.146 HD
ATOM     31  H   UNL     1      10.465  -4.580   7.217  0.00  0.00    +0.146 HD
ENDBRANCH  22  23
ENDBRANCH   1  22
TORSDOF 8
