REMARK  Name = ZINC12159285
REMARK  10 active torsions:
REMARK  status: ('A' for Active; 'I' for Inactive)
REMARK    1  A    between atoms: C_1  and  C_2
REMARK    2  A    between atoms: C_6  and  N_8
REMARK    3  A    between atoms: N_8  and  S_9
REMARK    4  A    between atoms: S_9  and  C_12
REMARK    5  A    between atoms: C_13  and  C_28
REMARK    6  A    between atoms: C_20  and  C_21
REMARK    7  A    between atoms: C_20  and  N_56
REMARK    8  A    between atoms: C_26  and  O_27
REMARK    9  A    between atoms: C_28  and  O_30
REMARK   10  A    between atoms: O_30  and  C_31
REMARK                            x       y       z     vdW  Elec       q    Type
REMARK                         _______ _______ _______ _____ _____    ______ ____
ROOT
ATOM      1  C   UNL     1      -1.882   1.844   2.684  0.00  0.00    +0.160 A 
ATOM      2  C   UNL     1      -2.019   2.970   3.469  0.00  0.00    +0.096 A 
ATOM      3  C   UNL     1      -1.460   2.932   4.805  0.00  0.00    -0.025 A 
ATOM      4  C   UNL     1      -0.850   1.771   5.143  0.00  0.00    -0.021 A 
ATOM      5  S   UNL     1      -1.024   0.744   3.713  0.00  0.00    -0.074 S 
ATOM      6  C   UNL     1      -0.190   1.461   6.449  0.00  0.00    -0.035 C 
ATOM      7  C   UNL     1      -1.235   3.515   7.199  0.00  0.00    -0.073 C 
ATOM      8  C   UNL     1      -1.524   4.080   5.805  0.00  0.00    +0.018 C 
ATOM      9  N   UNL     1       0.025   2.743   7.164  0.00  0.00    +0.386 N 
ATOM     10  H   UNL     1       0.737   3.288   6.665  0.00  0.00    -0.081 HD
ENDROOT
BRANCH   1  11
ATOM     11  S   UNL     1      -2.448   1.583   1.036  0.00  0.00    +0.079 S 
ATOM     12  O   UNL     1      -3.531   2.480   0.833  0.00  0.00    -0.149 OA
ATOM     13  O   UNL     1      -2.581   0.178   0.870  0.00  0.00    -0.149 OA
BRANCH  11  14
ATOM     14  N   UNL     1      -1.235   2.068   0.019  0.00  0.00    -0.216 N 
ATOM     15  H   UNL     1      -1.370   2.827  -0.570  0.00  0.00    +0.174 HD
BRANCH  14  21
ATOM     16  C   UNL     1       3.678   2.181  -0.022  0.00  0.00    +0.044 C 
ATOM     17  C   UNL     1       2.381   1.414  -0.013  0.00  0.00    -0.049 A 
ATOM     18  C   UNL     1       2.396   0.031  -0.021  0.00  0.00    +0.003 A 
ATOM     19  C   UNL     1       1.208  -0.677  -0.013  0.00  0.00    +0.002 A 
ATOM     20  C   UNL     1       0.002  -0.004   0.002  0.00  0.00    +0.024 A 
ATOM     21  C   UNL     1      -0.017   1.385   0.010  0.00  0.00    +0.048 A 
ATOM     22  C   UNL     1       1.179   2.092   0.002  0.00  0.00    +0.027 A 
ENDBRANCH  14  21
ENDBRANCH  11  14
ENDBRANCH   1  11
BRANCH   2  23
ATOM     23  C   UNL     1      -2.709   4.167   2.967  0.00  0.00    +0.342 C 
ATOM     24  O   UNL     1      -3.908   4.291   3.131  0.00  0.00    -0.245 OA
BRANCH  23  25
ATOM     25  O   UNL     1      -2.014   5.127   2.325  0.00  0.00    -0.464 OA
ATOM     26  C   UNL     1      -2.760   6.280   1.857  0.00  0.00    +0.280 C 
ENDBRANCH  23  25
ENDBRANCH   2  23
BRANCH   9  27
ATOM     27  C   UNL     1       0.496   2.482   8.541  0.00  0.00    -0.039 C 
BRANCH  27  28
ATOM     28  C   UNL     1       1.882   1.893   8.478  0.00  0.00    -0.022 A 
ATOM     29  C   UNL     1       2.063   0.532   8.626  0.00  0.00    +0.005 A 
ATOM     30  C   UNL     1       3.334  -0.009   8.567  0.00  0.00    +0.000 A 
ATOM     31  C   UNL     1       4.428   0.812   8.360  0.00  0.00    +0.004 A 
ATOM     32  C   UNL     1       4.253   2.174   8.212  0.00  0.00    +0.045 A 
ATOM     33  C   UNL     1       2.977   2.718   8.265  0.00  0.00    +0.118 A 
BRANCH  33  34
ATOM     34  O   UNL     1       2.802   4.057   8.114  0.00  0.00    -0.507 OA
ATOM     35  H   UNL     1       2.837   4.555   8.942  0.00  0.00    +0.292 HD
ENDBRANCH  33  34
ENDBRANCH  27  28
ENDBRANCH   9  27
TORSDOF 8
