REMARK  Name = ZINC12705935
REMARK  11 active torsions:
REMARK  status: ('A' for Active; 'I' for Inactive)
REMARK    1  A    between atoms: C_1  and  C_2
REMARK    2  A    between atoms: C_5  and  C_31
REMARK    3  A    between atoms: C_9  and  C_14
REMARK    4  A    between atoms: C_14  and  N_15
REMARK    5  A    between atoms: N_15  and  C_16
REMARK    6  A    between atoms: C_16  and  C_17
REMARK    7  A    between atoms: C_17  and  C_18
REMARK    8  A    between atoms: C_18  and  N_60
REMARK    9  A    between atoms: C_19  and  N_60
REMARK   10  A    between atoms: C_20  and  N_60
REMARK   11  A    between atoms: N_23  and  C_24
REMARK                            x       y       z     vdW  Elec       q    Type
REMARK                         _______ _______ _______ _____ _____    ______ ____
ROOT
ATOM      1  N   UNL     1       1.305   3.959   1.438  0.00  0.00    -0.281 N 
ATOM      2  C   UNL     1       0.216   4.190   2.198  0.00  0.00    +0.307 C 
ATOM      3  O   UNL     1      -0.885   3.862   1.798  0.00  0.00    -0.252 OA
ATOM      4  N   UNL     1       0.346   4.784   3.400  0.00  0.00    -0.269 N 
ATOM      5  H   UNL     1       1.229   4.976   3.753  0.00  0.00    +0.156 HD
ENDROOT
BRANCH   4   6
ATOM      6  C   UNL     1      -0.792   5.125   4.140  0.00  0.00    +0.035 A 
ATOM      7  C   UNL     1      -1.954   5.518   3.488  0.00  0.00    +0.025 A 
ATOM      8  C   UNL     1      -3.077   5.848   4.220  0.00  0.00    +0.022 A 
ATOM      9  C   UNL     1      -3.043   5.799   5.603  0.00  0.00    +0.041 A 
ATOM     10  C   UNL     1      -1.885   5.413   6.255  0.00  0.00    +0.022 A 
ATOM     11  C   UNL     1      -0.760   5.076   5.527  0.00  0.00    +0.025 A 
ATOM     12 CL   UNL     1      -4.455   6.221   6.521  0.00  0.00    -0.084 Cl
ENDBRANCH   4   6
BRANCH   1  13
ATOM     13  C   UNL     1       1.163   3.312   0.131  0.00  0.00    +0.150 C 
BRANCH  13  22
ATOM     14  C   UNL     1      -2.218  -0.606   0.715  0.00  0.00    +0.044 C 
ATOM     15  C   UNL     1      -0.834  -1.203   0.723  0.00  0.00    -0.041 A 
ATOM     16  C   UNL     1      -0.670  -2.552   0.870  0.00  0.00    +0.004 A 
ATOM     17  C   UNL     1       0.600  -3.112   0.879  0.00  0.00    +0.005 A 
ATOM     18  C   UNL     1       1.719  -2.319   0.742  0.00  0.00    -0.026 A 
ATOM     19  C   UNL     1       1.577  -0.944   0.594  0.00  0.00    +0.052 A 
ATOM     20  C   UNL     1       0.287  -0.379   0.584  0.00  0.00    +0.002 A 
ATOM     21  C   UNL     1       0.148   1.070   0.427  0.00  0.00    +0.020 A 
ATOM     22  C   UNL     1       1.271   1.818   0.295  0.00  0.00    +0.035 A 
ATOM     23  C   UNL     1       2.541   1.203   0.310  0.00  0.00    +0.254 A 
ATOM     24  O   UNL     1       3.538   1.894   0.190  0.00  0.00    -0.268 OA
ATOM     25  N   UNL     1       2.679  -0.127   0.455  0.00  0.00    -0.322 N 
ATOM     26  H   UNL     1       3.567  -0.517   0.461  0.00  0.00    +0.169 HD
ATOM     27  C   UNL     1       3.092  -2.940   0.755  0.00  0.00    +0.046 C 
ENDBRANCH  13  22
ENDBRANCH   1  13
BRANCH   1  28
ATOM     28  C   UNL     1       2.631   4.354   1.919  0.00  0.00    +0.108 C 
BRANCH  28  29
ATOM     29  C   UNL     1       2.933   5.783   1.465  0.00  0.00    +0.000 C 
BRANCH  29  30
ATOM     30  C   UNL     1       4.318   6.196   1.968  0.00  0.00    -0.078 C 
BRANCH  30  33
ATOM     31  C   UNL     1       3.701   8.528   2.177  0.00  0.00    -0.097 C 
ATOM     32  C   UNL     1       6.012   7.917   1.788  0.00  0.00    -0.097 C 
ATOM     33  N   UNL     1       4.603   7.570   1.504  0.00  0.00    +0.376 N 
ATOM     34  H   UNL     1       4.446   7.619   0.490  0.00  0.00    -0.083 HD
ENDBRANCH  30  33
ENDBRANCH  29  30
ENDBRANCH  28  29
ENDBRANCH   1  28
TORSDOF 7
