REMARK  Name = ZINC36894253
REMARK  9 active torsions:
REMARK  status: ('A' for Active; 'I' for Inactive)
REMARK    1  A    between atoms: C_1  and  C_2
REMARK    2  A    between atoms: C_2  and  C_3
REMARK    3  A    between atoms: C_3  and  N_4
REMARK    4  A    between atoms: N_7  and  C_10
REMARK    5  A    between atoms: C_10  and  C_12
REMARK    6  A    between atoms: C_10  and  C_14
REMARK    7  A    between atoms: C_12  and  N_13
REMARK    8  A    between atoms: C_19  and  O_20
REMARK    9  A    between atoms: O_20  and  C_21
REMARK                            x       y       z     vdW  Elec       q    Type
REMARK                         _______ _______ _______ _____ _____    ______ ____
ROOT
ATOM      1  C   UNL     1       2.285  -5.960   1.178  0.00  0.00    +0.073 C 
ENDROOT
BRANCH   1   5
ATOM      2  N   UNL     1       0.316  -2.270   1.790  0.00  0.00    +0.381 N 
ATOM      3  C   UNL     1       0.982  -2.491   0.500  0.00  0.00    -0.063 C 
ATOM      4  C   UNL     1       1.193  -3.992   0.285  0.00  0.00    +0.066 C 
ATOM      5  N   UNL     1       2.014  -4.530   1.379  0.00  0.00    -0.301 NA
ATOM      6  C   UNL     1       1.371  -4.293   2.679  0.00  0.00    +0.066 C 
ATOM      7  C   UNL     1       1.159  -2.791   2.874  0.00  0.00    -0.063 C 
ATOM      8  H   UNL     1      -0.572  -2.748   1.796  0.00  0.00    -0.082 HD
BRANCH   2   9
ATOM      9  C   UNL     1       0.098  -0.831   1.988  0.00  0.00    -0.079 C 
BRANCH   9  11
ATOM     10  C   UNL     1      -1.106   1.186   1.137  0.00  0.00    +0.002 C 
ATOM     11  C   UNL     1      -0.879  -0.313   0.931  0.00  0.00    -0.022 C 
ENDBRANCH   9  11
ENDBRANCH   2   9
ENDBRANCH   1   5
BRANCH   1  12
ATOM     12  C   UNL     1       3.575  -6.327   1.867  0.00  0.00    +0.011 A 
ATOM     13  C   UNL     1       4.123  -5.477   2.807  0.00  0.00    +0.024 A 
ATOM     14  C   UNL     1       5.306  -5.813   3.440  0.00  0.00    +0.018 A 
ATOM     15  C   UNL     1       5.943  -7.002   3.131  0.00  0.00    +0.019 A 
ATOM     16  C   UNL     1       5.399  -7.856   2.192  0.00  0.00    +0.047 A 
ATOM     17  C   UNL     1       4.209  -7.522   1.560  0.00  0.00    +0.125 A 
ATOM     18 BR   UNL     1       6.054  -4.647   4.726  0.00  0.00    -0.050 Br
BRANCH  17  19
ATOM     19  O   UNL     1       3.669  -8.363   0.639  0.00  0.00    -0.495 OA
ATOM     20  C   UNL     1       4.376  -9.576   0.374  0.00  0.00    +0.277 C 
ENDBRANCH  17  19
ENDBRANCH   1  12
BRANCH   1  21
ATOM     21  C   UNL     1       1.139  -6.784   1.767  0.00  0.00    -0.062 C 
BRANCH  21  22
ATOM     22  N   UNL     1      -0.119  -6.419   1.103  0.00  0.00    +0.379 N 
ATOM     23  H   UNL     1      -0.843  -7.068   1.374  0.00  0.00    -0.090 HD
ATOM     24  H   UNL     1      -0.385  -5.485   1.376  0.00  0.00    -0.090 HD
ATOM     25  H   UNL     1       0.007  -6.454   0.102  0.00  0.00    -0.090 HD
ENDBRANCH  21  22
ENDBRANCH   1  21
TORSDOF 7
