REMARK  Name = ZINC03211447
REMARK  10 active torsions:
REMARK  status: ('A' for Active; 'I' for Inactive)
REMARK    1  A    between atoms: C_1  and  C_2
REMARK    2  A    between atoms: C_2  and  C_4
REMARK    3  A    between atoms: C_2  and  N_15
REMARK    4  A    between atoms: C_4  and  C_6
REMARK    5  A    between atoms: C_4  and  N_52
REMARK    6  A    between atoms: N_15  and  C_16
REMARK    7  A    between atoms: C_16  and  N_18
REMARK    8  A    between atoms: N_18  and  C_19
REMARK    9  A    between atoms: C_19  and  C_20
REMARK   10  A    between atoms: C_20  and  C_21
REMARK                            x       y       z     vdW  Elec       q    Type
REMARK                         _______ _______ _______ _____ _____    ______ ____
ROOT
ATOM      1  C   UNL     1      -1.219  -5.103   4.885  0.00  0.00    +0.026 C 
ATOM      2  C   UNL     1      -0.028  -4.806   3.971  0.00  0.00    +0.060 C 
ENDROOT
BRANCH   2   3
ATOM      3  N   UNL     1      -0.514  -4.293   2.688  0.00  0.00    -0.325 N 
ATOM      4  H   UNL     1      -0.641  -4.898   1.940  0.00  0.00    +0.148 HD
BRANCH   3   5
ATOM      5  C   UNL     1      -0.786  -2.980   2.546  0.00  0.00    +0.130 C 
ATOM      6  S   UNL     1      -0.563  -1.912   3.865  0.00  0.00    -0.019 S 
BRANCH   5   7
ATOM      7  N   UNL     1      -1.233  -2.509   1.365  0.00  0.00    -0.326 N 
ATOM      8  H   UNL     1      -1.360  -3.114   0.618  0.00  0.00    +0.148 HD
BRANCH   7   9
ATOM      9  C   UNL     1      -1.529  -1.082   1.211  0.00  0.00    +0.108 C 
BRANCH   9  10
ATOM     10  C   UNL     1      -2.016  -0.814  -0.214  0.00  0.00    +0.054 C 
BRANCH  10  11
ATOM     11  C   UNL     1      -2.320   0.654  -0.373  0.00  0.00    -0.046 A 
ATOM     12  C   UNL     1      -3.589   1.130  -0.102  0.00  0.00    +0.004 A 
ATOM     13  C   UNL     1      -3.867   2.477  -0.243  0.00  0.00    +0.000 A 
ATOM     14  C   UNL     1      -2.878   3.346  -0.665  0.00  0.00    +0.000 A 
ATOM     15  C   UNL     1      -1.610   2.869  -0.941  0.00  0.00    +0.000 A 
ATOM     16  C   UNL     1      -1.331   1.523  -0.795  0.00  0.00    +0.004 A 
ENDBRANCH  10  11
ENDBRANCH   9  10
ENDBRANCH   7   9
ENDBRANCH   5   7
ENDBRANCH   3   5
ENDBRANCH   2   3
BRANCH   2  17
ATOM     17  C   UNL     1       0.769  -6.090   3.738  0.00  0.00    -0.011 C 
BRANCH  17  22
ATOM     18  C   UNL     1       1.937  -7.917   4.846  0.00  0.00    -0.078 C 
ATOM     19  C   UNL     1       2.728  -8.061   6.171  0.00  0.00    -0.020 C 
ATOM     20  C   UNL     1       3.130  -6.603   6.493  0.00  0.00    -0.020 C 
ATOM     21  C   UNL     1       2.125  -5.728   5.721  0.00  0.00    -0.078 C 
ATOM     22  N   UNL     1       1.212  -6.653   5.049  0.00  0.00    +0.386 N 
ATOM     23  H   UNL     1       0.388  -6.818   5.640  0.00  0.00    -0.081 HD
ENDBRANCH  17  22
BRANCH  17  24
ATOM     24  C   UNL     1      -0.094  -7.094   3.019  0.00  0.00    -0.022 A 
ATOM     25  C   UNL     1      -0.119  -7.410   1.701  0.00  0.00    +0.009 A 
ATOM     26  C   UNL     1      -1.003  -8.377   1.260  0.00  0.00    +0.008 A 
ATOM     27  C   UNL     1      -1.826  -8.974   2.157  0.00  0.00    +0.045 A 
ATOM     28  S   UNL     1      -1.356  -8.171   3.680  0.00  0.00    -0.103 S 
ENDBRANCH  17  24
ENDBRANCH   2  17
TORSDOF 9
