REMARK  Name = ZINC10129401
REMARK  14 active torsions:
REMARK  status: ('A' for Active; 'I' for Inactive)
REMARK    1  A    between atoms: C_1  and  C_2
REMARK    2  A    between atoms: C_2  and  C_3
REMARK    3  A    between atoms: C_2  and  C_4
REMARK    4  A    between atoms: C_4  and  C_5
REMARK    5  A    between atoms: C_5  and  C_7
REMARK    6  A    between atoms: C_5  and  N_66
REMARK    7  A    between atoms: C_13  and  C_15
REMARK    8  A    between atoms: C_18  and  C_20
REMARK    9  A    between atoms: C_18  and  N_24
REMARK   10  A    between atoms: C_18  and  N_66
REMARK   11  A    between atoms: C_20  and  C_21
REMARK   12  A    between atoms: C_21  and  C_22
REMARK   13  A    between atoms: C_21  and  C_23
REMARK   14  A    between atoms: C_25  and  C_27
REMARK                            x       y       z     vdW  Elec       q    Type
REMARK                         _______ _______ _______ _____ _____    ______ ____
ROOT
ATOM      1  N   UNL     1       1.273   2.866   1.438  0.00  0.00    +0.399 N 
ATOM      2  H   UNL     1       1.815   3.544   1.987  0.00  0.00    -0.082 HD
ATOM      3  H   UNL     1       0.619   2.371   2.055  0.00  0.00    -0.082 HD
ENDROOT
BRANCH   1   4
ATOM      4  C   UNL     1       2.194   1.892   0.823  0.00  0.00    +0.019 C 
BRANCH   4   5
ATOM      5  C   UNL     1       3.164   1.401   1.867  0.00  0.00    +0.202 C 
ATOM      6  O   UNL     1       2.911   1.545   3.045  0.00  0.00    -0.277 OA
ATOM      7  N   UNL     1       4.311   0.802   1.492  0.00  0.00    -0.291 N 
ATOM      8  C   UNL     1       4.744   0.566   0.103  0.00  0.00    +0.108 C 
ATOM      9  C   UNL     1       6.289   0.457   0.184  0.00  0.00    +0.021 C 
ATOM     10  C   UNL     1       6.475  -0.296   1.527  0.00  0.00    +0.033 C 
ATOM     11  C   UNL     1       5.337   0.269   2.402  0.00  0.00    +0.162 C 
BRANCH  11  12
ATOM     12  C   UNL     1       4.748  -0.826   3.253  0.00  0.00    +0.231 C 
ATOM     13  O   UNL     1       3.757  -1.418   2.880  0.00  0.00    -0.274 OA
ATOM     14  N   UNL     1       5.321  -1.147   4.430  0.00  0.00    -0.328 N 
ATOM     15  H   UNL     1       6.113  -0.673   4.728  0.00  0.00    +0.145 HD
ATOM     16  H   UNL     1       4.942  -1.852   4.978  0.00  0.00    +0.145 HD
ENDBRANCH  11  12
ENDBRANCH   4   5
BRANCH   4  17
ATOM     17  C   UNL     1       1.396   0.709   0.272  0.00  0.00    -0.004 C 
BRANCH  17  19
ATOM     18  C   UNL     1      -0.633  -0.674   0.736  0.00  0.00    +0.007 C 
ATOM     19  C   UNL     1       0.489   0.149   1.371  0.00  0.00    -0.018 C 
ATOM     20  C   UNL     1       1.311  -0.743   2.304  0.00  0.00    +0.007 C 
ENDBRANCH  17  19
ENDBRANCH   4  17
ENDBRANCH   1   4
BRANCH   1  21
ATOM     21  C   UNL     1       0.513   3.581   0.396  0.00  0.00    +0.017 C 
BRANCH  21  22
ATOM     22  N   UNL     1       1.069   4.925   0.224  0.00  0.00    -0.328 N 
ATOM     23  C   UNL     1       1.820   5.210  -0.859  0.00  0.00    +0.232 C 
ATOM     24  O   UNL     1       2.035   4.353  -1.690  0.00  0.00    -0.274 OA
ATOM     25  H   UNL     1       0.896   5.610   0.888  0.00  0.00    +0.147 HD
BRANCH  23  26
ATOM     26  C   UNL     1       2.392   6.593  -1.036  0.00  0.00    +0.159 C 
ATOM     27  C   UNL     1       1.333   7.534  -1.652  0.00  0.00    +0.041 C 
ATOM     28  C   UNL     1       1.653   7.424  -3.161  0.00  0.00    +0.098 C 
ATOM     29  C   UNL     1       3.111   7.021  -3.203  0.00  0.00    +0.214 C 
ATOM     30  O   UNL     1       3.825   7.098  -4.180  0.00  0.00    -0.276 OA
ATOM     31  N   UNL     1       3.499   6.565  -2.000  0.00  0.00    -0.304 N 
ATOM     32  H   UNL     1       4.395   6.257  -1.794  0.00  0.00    +0.149 HD
ENDBRANCH  23  26
ENDBRANCH  21  22
BRANCH  21  33
ATOM     33  C   UNL     1      -0.952   3.686   0.825  0.00  0.00    +0.005 C 
BRANCH  33  34
ATOM     34  C   UNL     1      -1.768   4.325  -0.301  0.00  0.00    -0.017 C 
ATOM     35  C   UNL     1      -1.839   3.364  -1.489  0.00  0.00    +0.007 C 
ATOM     36  C   UNL     1      -3.183   4.622   0.200  0.00  0.00    +0.007 C 
ENDBRANCH  33  34
ENDBRANCH  21  33
ENDBRANCH   1  21
TORSDOF 10
