REMARK  Name = ZINC13569710
REMARK  1 active torsions:
REMARK  status: ('A' for Active; 'I' for Inactive)
REMARK    1  A    between atoms: C_11  and  C_15
REMARK                            x       y       z     vdW  Elec       q    Type
REMARK                         _______ _______ _______ _____ _____    ______ ____
ROOT
ATOM      1  C   UNL     1      -0.080   1.301  -0.631  0.00  0.00    +0.019 A 
ATOM      2  C   UNL     1       1.234   1.758  -0.399  0.00  0.00    +0.019 A 
ATOM      3  C   UNL     1       2.025   0.675  -0.274  0.00  0.00    +0.093 A 
ATOM      4  N   UNL     1       1.247  -0.441  -0.420  0.00  0.00    -0.302 N 
ATOM      5  C   UNL     1      -0.044  -0.046  -0.639  0.00  0.00    +0.093 A 
ATOM      6  C   UNL     1       1.693  -1.754  -0.357  0.00  0.00    +0.178 A 
ATOM      7  N   UNL     1       2.910  -2.202  -0.145  0.00  0.00    -0.222 NA
ATOM      8  C   UNL     1       3.205  -3.511  -0.109  0.00  0.00    +0.081 A 
ATOM      9  C   UNL     1       4.470  -4.113   0.108  0.00  0.00    +0.030 A 
ATOM     10  C   UNL     1       4.611  -5.461   0.116  0.00  0.00    +0.015 A 
ATOM     11  C   UNL     1       3.516  -6.312  -0.090  0.00  0.00    +0.038 A 
ATOM     12  C   UNL     1       2.253  -5.753  -0.308  0.00  0.00    +0.030 A 
ATOM     13  C   UNL     1       2.115  -4.392  -0.315  0.00  0.00    +0.042 A 
ATOM     14  S   UNL     1       0.758  -3.267  -0.534  0.00  0.00    -0.049 S 
ENDROOT
BRANCH  11  15
ATOM     15  C   UNL     1       3.695  -7.777  -0.078  0.00  0.00    +0.247 C 
ATOM     16  O   UNL     1       4.630  -8.280  -0.670  0.00  0.00    -0.270 OA
ATOM     17  N   UNL     1       2.821  -8.556   0.589  0.00  0.00    -0.291 N 
ATOM     18  C   UNL     1       3.028 -10.009   0.685  0.00  0.00    +0.115 C 
ATOM     19  C   UNL     1       3.257 -10.389   2.154  0.00  0.00    +0.076 C 
ATOM     20  C   UNL     1       2.232  -9.682   3.005  0.00  0.00    +0.065 A 
ATOM     21  C   UNL     1       1.516  -8.611   2.604  0.00  0.00    +0.056 A 
ATOM     22  N   UNL     1       0.707  -8.255   3.638  0.00  0.00    -0.347 N 
ATOM     23  H   UNL     1       0.076  -7.518   3.651  0.00  0.00    +0.167 HD
ATOM     24  C   UNL     1       0.951  -9.125   4.646  0.00  0.00    +0.197 A 
ATOM     25  N   UNL     1       1.864  -9.975   4.257  0.00  0.00    -0.241 NA
ATOM     26  C   UNL     1       1.636  -7.974   1.246  0.00  0.00    +0.163 C 
ENDBRANCH  11  15
TORSDOF 1
