REMARK  Name = ZINC20392950
REMARK  11 active torsions:
REMARK  status: ('A' for Active; 'I' for Inactive)
REMARK    1  A    between atoms: C_1  and  C_2
REMARK    2  A    between atoms: C_2  and  C_33
REMARK    3  A    between atoms: C_6  and  N_25
REMARK    4  A    between atoms: C_13  and  N_19
REMARK    5  A    between atoms: C_15  and  S_17
REMARK    6  A    between atoms: S_17  and  C_18
REMARK    7  A    between atoms: N_19  and  C_20
REMARK    8  A    between atoms: C_20  and  C_21
REMARK    9  A    between atoms: C_21  and  C_22
REMARK   10  A    between atoms: C_22  and  C_23
REMARK   11  A    between atoms: C_23  and  N_24
REMARK                            x       y       z     vdW  Elec       q    Type
REMARK                         _______ _______ _______ _____ _____    ______ ____
ROOT
ATOM      1  C   UNL     1       4.830  -2.942  -0.210  0.00  0.00    +0.041 C 
ATOM      2  C   UNL     1       3.557  -2.181   0.163  0.00  0.00    +0.068 C 
ATOM      3  C   UNL     1       3.720  -0.700  -0.187  0.00  0.00    +0.070 C 
ATOM      4  C   UNL     1       2.388  -0.006  -0.090  0.00  0.00    -0.024 A 
ATOM      5  C   UNL     1       1.216  -0.695  -0.076  0.00  0.00    +0.022 A 
ATOM      6  C   UNL     1       0.002  -0.004   0.002  0.00  0.00    +0.128 A 
ATOM      7  N   UNL     1      -0.015   1.318   0.068  0.00  0.00    -0.224 NA
ATOM      8  C   UNL     1       1.103   2.015   0.063  0.00  0.00    +0.113 A 
ATOM      9  C   UNL     1       2.368   1.408  -0.017  0.00  0.00    +0.038 A 
ATOM     10  C   UNL     1       3.524   2.324  -0.015  0.00  0.00    +0.094 A 
ATOM     11  C   UNL     1       3.224   3.688   0.070  0.00  0.00    +0.080 A 
ATOM     12  S   UNL     1       1.454   3.754   0.143  0.00  0.00    -0.064 S 
ATOM     13  C   UNL     1       4.230   4.643   0.081  0.00  0.00    +0.138 A 
ATOM     14  N   UNL     1       5.495   4.232   0.007  0.00  0.00    -0.206 NA
ATOM     15  C   UNL     1       5.768   2.936  -0.075  0.00  0.00    +0.190 A 
ATOM     16  N   UNL     1       4.836   2.006  -0.087  0.00  0.00    -0.221 NA
ATOM     17  C   UNL     1       1.188  -2.201  -0.136  0.00  0.00    +0.199 C 
ATOM     18  O   UNL     1       2.449  -2.701  -0.580  0.00  0.00    -0.369 OA
ATOM     19  C   UNL     1       3.287  -2.329   1.662  0.00  0.00    +0.041 C 
ENDROOT
BRANCH   6  20
ATOM     20  N   UNL     1      -1.194  -0.710   0.010  0.00  0.00    -0.310 N 
ATOM     21  C   UNL     1      -2.022  -0.356  -1.152  0.00  0.00    +0.134 C 
ATOM     22  C   UNL     1      -3.300  -1.198  -1.137  0.00  0.00    +0.178 C 
ATOM     23  O   UNL     1      -3.986  -0.990   0.101  0.00  0.00    -0.377 OA
ATOM     24  C   UNL     1      -3.209  -1.325   1.254  0.00  0.00    +0.178 C 
ATOM     25  C   UNL     1      -1.930  -0.484   1.262  0.00  0.00    +0.134 C 
ENDBRANCH   6  20
BRANCH  15  26
ATOM     26  S   UNL     1       7.455   2.437  -0.171  0.00  0.00    -0.089 S 
ATOM     27  C   UNL     1       8.265   4.055  -0.116  0.00  0.00    +0.093 C 
ENDBRANCH  15  26
BRANCH  13  28
ATOM     28  N   UNL     1       3.926   5.993   0.166  0.00  0.00    -0.328 N 
ATOM     29  H   UNL     1       2.877   6.318   0.226  0.00  0.00    +0.147 HD
BRANCH  28  30
ATOM     30  C   UNL     1       5.003   6.987   0.176  0.00  0.00    +0.103 C 
BRANCH  30  31
ATOM     31  C   UNL     1       4.401   8.390   0.277  0.00  0.00    +0.017 C 
BRANCH  31  32
ATOM     32  C   UNL     1       5.525   9.428   0.287  0.00  0.00    -0.018 C 
BRANCH  32  33
ATOM     33  C   UNL     1       4.923  10.831   0.387  0.00  0.00    -0.086 C 
BRANCH  33  34
ATOM     34  N   UNL     1       6.002  11.827   0.397  0.00  0.00    +0.378 N 
ATOM     35  H   UNL     1       5.569  12.836   0.470  0.00  0.00    -0.090 HD
ATOM     36  H   UNL     1       6.586  11.745  -0.531  0.00  0.00    -0.090 HD
ATOM     37  H   UNL     1       6.659  11.648   1.261  0.00  0.00    -0.090 HD
ENDBRANCH  33  34
ENDBRANCH  32  33
ENDBRANCH  31  32
ENDBRANCH  30  31
ENDBRANCH  28  30
ENDBRANCH  13  28
TORSDOF 8
