REMARK  Name = ZINC54426190
REMARK  5 active torsions:
REMARK  status: ('A' for Active; 'I' for Inactive)
REMARK    1  A    between atoms: C_1  and  C_2
REMARK    2  A    between atoms: C_2  and  C_3
REMARK    3  A    between atoms: C_2  and  O_4
REMARK    4  A    between atoms: O_4  and  C_5
REMARK    5  A    between atoms: C_8  and  C_11
REMARK                            x       y       z     vdW  Elec       q    Type
REMARK                         _______ _______ _______ _____ _____    ______ ____
ROOT
ATOM      1  C   UNL     1      -2.307  -0.985   5.900  0.00  0.00    +0.209 C 
ATOM      2  N   UNL     1      -1.814  -2.133   6.683  0.00  0.00    -0.294 N 
ATOM      3  C   UNL     1      -0.680  -1.948   7.461  0.00  0.00    +0.159 C 
ATOM      4  N   UNL     1      -0.692  -0.856   8.329  0.00  0.00    -0.259 N 
ATOM      5  C   UNL     1      -1.374   0.266   7.859  0.00  0.00    +0.205 A 
ATOM      6  N   UNL     1      -2.145   0.219   6.721  0.00  0.00    -0.288 N 
ATOM      7  C   UNL     1      -2.690   1.472   6.539  0.00  0.00    +0.076 A 
ATOM      8  C   UNL     1      -3.539   2.029   5.590  0.00  0.00    +0.077 A 
ATOM      9  C   UNL     1      -3.910   3.354   5.697  0.00  0.00    +0.164 A 
ATOM     10  C   UNL     1      -3.440   4.138   6.747  0.00  0.00    +0.164 A 
ATOM     11  C   UNL     1      -2.595   3.601   7.695  0.00  0.00    +0.079 A 
ATOM     12  C   UNL     1      -2.211   2.260   7.600  0.00  0.00    +0.095 A 
ATOM     13  N   UNL     1      -1.409   1.463   8.366  0.00  0.00    -0.214 NA
ATOM     14  O   UNL     1      -3.823   5.446   6.836  0.00  0.00    -0.488 OA
ATOM     15  C   UNL     1      -3.315   6.316   5.824  0.00  0.00    +0.232 C 
ATOM     16  C   UNL     1      -4.188   6.263   4.580  0.00  0.00    +0.082 C 
ATOM     17  C   UNL     1      -4.166   4.895   3.915  0.00  0.00    +0.232 C 
ATOM     18  O   UNL     1      -4.746   3.907   4.768  0.00  0.00    -0.488 OA
ATOM     19  N   UNL     1       0.343  -2.751   7.384  0.00  0.00    -0.375 N 
ATOM     20  H   UNL     1      -2.268  -2.990   6.656  0.00  0.00    +0.151 HD
ATOM     21  H   UNL     1       0.324  -3.503   6.771  0.00  0.00    +0.158 HD
ATOM     22  H   UNL     1      -0.258  -0.875   9.197  0.00  0.00    +0.158 HD
ATOM     23  H   UNL     1       1.123  -2.597   7.939  0.00  0.00    +0.158 HD
ENDROOT
BRANCH   1  27
ATOM     24  C   UNL     1      -0.031  -0.600   2.303  0.00  0.00    +0.121 A 
ATOM     25  C   UNL     1      -1.400  -0.376   2.286  0.00  0.00    +0.046 A 
ATOM     26  C   UNL     1      -2.133  -0.502   3.450  0.00  0.00    +0.011 A 
ATOM     27  C   UNL     1      -1.504  -0.849   4.631  0.00  0.00    -0.007 A 
ATOM     28  C   UNL     1      -0.140  -1.072   4.651  0.00  0.00    +0.011 A 
ATOM     29  C   UNL     1       0.598  -0.954   3.489  0.00  0.00    +0.046 A 
BRANCH  24  30
ATOM     30  O   UNL     1       0.693  -0.477   1.160  0.00  0.00    -0.489 OA
BRANCH  30  32
ATOM     31  C   UNL     1      -0.292   1.273  -0.184  0.00  0.00    +0.051 C 
ATOM     32  C   UNL     1      -0.034  -0.229  -0.045  0.00  0.00    +0.167 C 
ATOM     33  C   UNL     1       0.781  -0.720  -1.243  0.00  0.00    +0.051 C 
ENDBRANCH  30  32
ENDBRANCH  24  30
ENDBRANCH   1  27
TORSDOF 3
