REMARK  Name = ZINC27323512
REMARK  8 active torsions:
REMARK  status: ('A' for Active; 'I' for Inactive)
REMARK    1  A    between atoms: C_1  and  C_2
REMARK    2  A    between atoms: C_2  and  C_4
REMARK    3  A    between atoms: C_2  and  N_14
REMARK    4  A    between atoms: C_7  and  S_10
REMARK    5  A    between atoms: S_10  and  N_13
REMARK    6  A    between atoms: C_15  and  C_17
REMARK    7  A    between atoms: C_21  and  N_23
REMARK    8  A    between atoms: C_24  and  C_26
REMARK                            x       y       z     vdW  Elec       q    Type
REMARK                         _______ _______ _______ _____ _____    ______ ____
ROOT
ATOM      1  N   UNL     1      -3.558   4.454   4.760  0.00  0.00    -0.305 N 
ATOM      2  C   UNL     1      -4.630   4.920   5.431  0.00  0.00    +0.245 C 
ATOM      3  O   UNL     1      -5.279   4.171   6.135  0.00  0.00    -0.270 OA
ATOM      4  H   UNL     1      -2.970   5.131   4.123  0.00  0.00    +0.150 HD
ENDROOT
BRANCH   2   5
ATOM      5  C   UNL     1      -5.016   6.341   5.311  0.00  0.00    +0.039 A 
ATOM      6  C   UNL     1      -4.268   7.205   4.508  0.00  0.00    +0.014 A 
ATOM      7  C   UNL     1      -4.633   8.530   4.393  0.00  0.00    +0.022 A 
ATOM      8  C   UNL     1      -5.734   9.011   5.081  0.00  0.00    +0.062 A 
ATOM      9  C   UNL     1      -6.481   8.160   5.888  0.00  0.00    +0.053 A 
ATOM     10  C   UNL     1      -6.125   6.826   6.005  0.00  0.00    +0.037 A 
ATOM     11 CL   UNL     1      -6.182  10.682   4.935  0.00  0.00    -0.082 Cl
BRANCH   9  12
ATOM     12  N   UNL     1      -7.593   8.651   6.581  0.00  0.00    -0.280 N 
ATOM     13  C   UNL     1      -8.014   8.034   7.703  0.00  0.00    +0.255 C 
ATOM     14  O   UNL     1      -7.369   7.113   8.170  0.00  0.00    -0.269 OA
ATOM     15  H   UNL     1      -8.125   9.539   6.210  0.00  0.00    +0.155 HD
BRANCH  13  16
ATOM     16  C   UNL     1      -9.247   8.473   8.362  0.00  0.00    +0.074 A 
ATOM     17  C   UNL     1      -9.847   7.980   9.511  0.00  0.00    +0.021 A 
ATOM     18  C   UNL     1     -11.013   8.582   9.914  0.00  0.00    +0.008 A 
ATOM     19  C   UNL     1     -11.515   9.612   9.184  0.00  0.00    +0.046 A 
ATOM     20  S   UNL     1     -10.364   9.785   7.899  0.00  0.00    -0.092 S 
ENDBRANCH  13  16
ENDBRANCH   9  12
ENDBRANCH   2   5
BRANCH   1  22
ATOM     21  C   UNL     1      -2.297   2.857   6.118  0.00  0.00    +0.033 C 
ATOM     22  C   UNL     1      -3.175   3.045   4.879  0.00  0.00    +0.100 C 
BRANCH  22  23
ATOM     23  C   UNL     1      -2.406   2.628   3.651  0.00  0.00    -0.027 A 
ATOM     24  C   UNL     1      -2.623   1.383   3.090  0.00  0.00    +0.007 A 
ATOM     25  C   UNL     1      -1.918   1.000   1.964  0.00  0.00    +0.029 A 
ATOM     26  C   UNL     1      -0.996   1.862   1.400  0.00  0.00    +0.105 A 
ATOM     27  C   UNL     1      -0.776   3.105   1.964  0.00  0.00    +0.029 A 
ATOM     28  C   UNL     1      -1.485   3.490   3.087  0.00  0.00    +0.007 A 
BRANCH  26  29
ATOM     29  S   UNL     1      -0.097   1.374  -0.034  0.00  0.00    +0.056 S 
ATOM     30  O   UNL     1      -0.087  -0.047  -0.043  0.00  0.00    -0.153 OA
ATOM     31  O   UNL     1       1.097   2.145  -0.047  0.00  0.00    -0.153 OA
BRANCH  29  32
ATOM     32  N   UNL     1      -0.981   1.850  -1.352  0.00  0.00    -0.204 NA
ATOM     33  H   UNL     1      -0.451   1.562  -2.272  0.00  0.00    +0.144 HD
ATOM     34  H   UNL     1      -1.112   2.942  -1.330  0.00  0.00    +0.144 HD
ENDBRANCH  29  32
ENDBRANCH  26  29
ENDBRANCH  22  23
ENDBRANCH   1  22
TORSDOF 7
