REMARK  Name = ZINC14668612
REMARK  13 active torsions:
REMARK  status: ('A' for Active; 'I' for Inactive)
REMARK    1  A    between atoms: C_1  and  C_2
REMARK    2  A    between atoms: C_4  and  C_30
REMARK    3  A    between atoms: C_6  and  O_8
REMARK    4  A    between atoms: O_8  and  C_9
REMARK    5  A    between atoms: C_9  and  C_10
REMARK    6  A    between atoms: N_12  and  N_13
REMARK    7  A    between atoms: N_13  and  C_14
REMARK    8  A    between atoms: C_14  and  N_16
REMARK    9  A    between atoms: C_17  and  C_19
REMARK   10  A    between atoms: C_24  and  O_25
REMARK   11  A    between atoms: O_25  and  C_26
REMARK   12  A    between atoms: C_26  and  C_27
REMARK   13  A    between atoms: C_26  and  C_28
REMARK                            x       y       z     vdW  Elec       q    Type
REMARK                         _______ _______ _______ _____ _____    ______ ____
ROOT
ATOM      1  C   UNL     1       6.421   7.418   0.857  0.00  0.00    +0.153 C 
ATOM      2  S   UNL     1       7.995   8.092   0.847  0.00  0.00    -0.017 S 
ENDROOT
BRANCH   1   3
ATOM      3  N   UNL     1       5.349   8.210   0.658  0.00  0.00    -0.263 N 
ATOM      4  C   UNL     1       5.515   9.531   0.451  0.00  0.00    +0.253 C 
ATOM      5  O   UNL     1       6.633  10.009   0.444  0.00  0.00    -0.270 OA
ATOM      6  H   UNL     1       4.457   7.829   0.664  0.00  0.00    +0.157 HD
BRANCH   4   7
ATOM      7  C   UNL     1       4.342  10.397   0.234  0.00  0.00    +0.080 A 
ATOM      8  C   UNL     1       3.055   9.852   0.241  0.00  0.00    +0.032 A 
ATOM      9  C   UNL     1       1.962  10.667   0.038  0.00  0.00    +0.019 A 
ATOM     10  C   UNL     1       2.134  12.026  -0.174  0.00  0.00    +0.019 A 
ATOM     11  C   UNL     1       3.399  12.577  -0.184  0.00  0.00    +0.047 A 
ATOM     12  C   UNL     1       4.510  11.773   0.024  0.00  0.00    +0.133 A 
ATOM     13 BR   UNL     1       0.221   9.928   0.049  0.00  0.00    -0.050 Br
BRANCH  12  14
ATOM     14  O   UNL     1       5.754  12.314   0.020  0.00  0.00    -0.489 OA
BRANCH  14  15
ATOM     15  C   UNL     1       5.841  13.737  -0.084  0.00  0.00    +0.167 C 
ATOM     16  C   UNL     1       7.159  14.213   0.531  0.00  0.00    +0.051 C 
ATOM     17  C   UNL     1       5.790  14.145  -1.558  0.00  0.00    +0.051 C 
ENDBRANCH  14  15
ENDBRANCH  12  14
ENDBRANCH   4   7
ENDBRANCH   1   3
BRANCH   1  18
ATOM     18  N   UNL     1       6.255   6.097   1.063  0.00  0.00    -0.245 N 
ATOM     19  H   UNL     1       7.027   5.528   1.206  0.00  0.00    +0.172 HD
BRANCH  18  22
ATOM     20  C   UNL     1       4.801   4.225   1.278  0.00  0.00    +0.267 C 
ATOM     21  O   UNL     1       5.766   3.513   1.457  0.00  0.00    -0.271 OA
ATOM     22  N   UNL     1       4.967   5.546   1.072  0.00  0.00    -0.232 N 
ATOM     23  H   UNL     1       4.195   6.116   0.929  0.00  0.00    +0.173 HD
BRANCH  20  24
ATOM     24  C   UNL     1       3.415   3.632   1.287  0.00  0.00    +0.326 C 
BRANCH  24  25
ATOM     25  O   UNL     1       3.500   2.226   1.524  0.00  0.00    -0.483 OA
BRANCH  25  31
ATOM     26  C   UNL     1      -1.371   2.210   1.209  0.00  0.00    +0.044 C 
ATOM     27  C   UNL     1      -0.062   1.492   1.417  0.00  0.00    -0.047 A 
ATOM     28  C   UNL     1      -0.050   0.128   1.642  0.00  0.00    +0.007 A 
ATOM     29  C   UNL     1       1.149  -0.534   1.828  0.00  0.00    -0.047 A 
ATOM     30  C   UNL     1       2.339   0.166   1.789  0.00  0.00    +0.049 A 
ATOM     31  C   UNL     1       2.330   1.535   1.563  0.00  0.00    +0.122 A 
ATOM     32  C   UNL     1       1.126   2.197   1.377  0.00  0.00    +0.049 A 
ATOM     33  C   UNL     1       1.158  -2.021   2.073  0.00  0.00    +0.044 C 
ENDBRANCH  25  31
ENDBRANCH  24  25
ENDBRANCH  20  24
ENDBRANCH  18  22
ENDBRANCH   1  18
TORSDOF 9
