REMARK  Name = ZINC37250126
REMARK  16 active torsions:
REMARK  status: ('A' for Active; 'I' for Inactive)
REMARK    1  A    between atoms: C_2  and  C_36
REMARK    2  A    between atoms: C_4  and  O_16
REMARK    3  A    between atoms: C_6  and  O_11
REMARK    4  A    between atoms: C_8  and  O_10
REMARK    5  A    between atoms: O_11  and  S_12
REMARK    6  A    between atoms: O_16  and  C_17
REMARK    7  A    between atoms: C_17  and  C_19
REMARK    8  A    between atoms: C_17  and  C_24
REMARK    9  A    between atoms: C_19  and  C_21
REMARK   10  A    between atoms: C_19  and  O_23
REMARK   11  A    between atoms: C_21  and  O_22
REMARK   12  A    between atoms: C_24  and  C_26
REMARK   13  A    between atoms: C_24  and  O_35
REMARK   14  A    between atoms: C_26  and  C_28
REMARK   15  A    between atoms: C_26  and  N_30
REMARK   16  A    between atoms: N_30  and  S_31
REMARK                            x       y       z     vdW  Elec       q    Type
REMARK                         _______ _______ _______ _____ _____    ______ ____
ROOT
ATOM      1  C   UNL     1       4.799   0.339   0.792  0.00  0.00    +0.183 C 
ENDROOT
BRANCH   1   2
ATOM      2  C   UNL     1       6.089   0.418  -0.028  0.00  0.00    +0.171 C 
BRANCH   2   3
ATOM      3  O   UNL     1       7.139   0.943   0.787  0.00  0.00    -0.387 OA
ATOM      4  H   UNL     1       6.965   1.830   1.130  0.00  0.00    +0.210 HD
ENDBRANCH   2   3
BRANCH   2   5
ATOM      5  C   UNL     1       5.872   1.334  -1.233  0.00  0.00    +0.172 C 
BRANCH   5   6
ATOM      6  N   UNL     1       7.066   1.316  -2.082  0.00  0.00    -0.155 NA
ATOM      7  H   UNL     1       7.946   1.240  -1.680  0.00  0.00    +0.151 HD
BRANCH   6   8
ATOM      8  S   UNL     1       6.914   1.425  -3.727  0.00  0.00    +0.180 S 
ATOM      9  O   UNL     1       8.247   1.260  -4.286  0.00  0.00    -0.128 OA
ATOM     10  O   UNL     1       6.015   0.359  -4.140  0.00  0.00    -0.128 OA
ATOM     11  O   UNL     1       6.364   2.741  -4.014  0.00  0.00    -0.032 OA
ENDBRANCH   6   8
ENDBRANCH   5   6
BRANCH   5  12
ATOM     12  C   UNL     1       5.616   2.741  -0.756  0.00  0.00    +0.246 C 
ATOM     13  O   UNL     1       6.355   3.635  -1.090  0.00  0.00    -0.299 OA
ENDBRANCH   5  12
ENDBRANCH   2   5
ENDBRANCH   1   2
BRANCH   1  14
ATOM     14  C   UNL     1       5.016  -0.578   1.997  0.00  0.00    +0.171 C 
BRANCH  14  15
ATOM     15  O   UNL     1       5.486  -1.851   1.549  0.00  0.00    -0.387 OA
ATOM     16  H   UNL     1       4.877  -2.306   0.951  0.00  0.00    +0.210 HD
ENDBRANCH  14  15
BRANCH  14  17
ATOM     17  C   UNL     1       3.695  -0.756   2.747  0.00  0.00    +0.189 C 
BRANCH  17  18
ATOM     18  O   UNL     1       3.920  -1.516   3.936  0.00  0.00    -0.392 OA
ATOM     19  H   UNL     1       3.123  -1.668   4.463  0.00  0.00    +0.210 HD
ENDBRANCH  17  18
ENDBRANCH  14  17
ENDBRANCH   1  14
BRANCH   1  20
ATOM     20  O   UNL     1       3.749  -0.186  -0.023  0.00  0.00    -0.331 OA
BRANCH  20  24
ATOM     21  C   UNL     1      -0.018   1.500   0.010  0.00  0.00    +0.060 C 
ATOM     22  C   UNL     1       1.093   2.224   0.004  0.00  0.00    +0.210 C 
ATOM     23  O   UNL     1       2.332   1.673  -0.019  0.00  0.00    -0.454 OA
ATOM     24  C   UNL     1       2.448   0.291   0.328  0.00  0.00    +0.343 C 
ATOM     25  C   UNL     1       1.382  -0.493  -0.450  0.00  0.00    +0.252 C 
ATOM     26  C   UNL     1       0.002  -0.004   0.002  0.00  0.00    +0.178 C 
BRANCH  22  27
ATOM     27  C   UNL     1       0.977   3.690   0.021  0.00  0.00    +0.420 C 
ATOM     28  O   UNL     1      -0.128   4.216   0.041  0.00  0.00    -0.237 OA
ATOM     29  O   UNL     1       1.985   4.384   0.015  0.00  0.00    -0.237 OA
ENDBRANCH  22  27
BRANCH  26  30
ATOM     30  O   UNL     1      -0.994  -0.489  -0.900  0.00  0.00    -0.385 OA
ATOM     31  H   UNL     1      -1.894  -0.217  -0.676  0.00  0.00    +0.210 HD
ENDBRANCH  26  30
BRANCH  25  32
ATOM     32  O   UNL     1       1.514  -1.889  -0.174  0.00  0.00    -0.201 OA
BRANCH  32  33
ATOM     33  S   UNL     1       1.196  -2.787  -1.360  0.00  0.00    +0.239 S 
ATOM     34  O   UNL     1       1.022  -4.133  -0.837  0.00  0.00    -0.116 OA
ATOM     35  O   UNL     1      -0.027  -2.277  -1.961  0.00  0.00    -0.116 OA
ATOM     36  O   UNL     1       2.326  -2.700  -2.271  0.00  0.00    -0.022 OA
ENDBRANCH  32  33
ENDBRANCH  25  32
ENDBRANCH  20  24
ENDBRANCH   1  20
TORSDOF 16
