REMARK  Name = ZINC22181075
REMARK  8 active torsions:
REMARK  status: ('A' for Active; 'I' for Inactive)
REMARK    1  A    between atoms: C_3  and  O_25
REMARK    2  A    between atoms: C_6  and  N_7
REMARK    3  A    between atoms: C_11  and  S_13
REMARK    4  A    between atoms: S_13  and  C_14
REMARK    5  A    between atoms: C_14  and  C_15
REMARK    6  A    between atoms: N_17  and  C_18
REMARK    7  A    between atoms: C_19  and  C_23
REMARK    8  A    between atoms: O_25  and  C_26
REMARK                            x       y       z     vdW  Elec       q    Type
REMARK                         _______ _______ _______ _____ _____    ______ ____
ROOT
ATOM      1  N   UNL     1      -1.200  -0.721   0.010  0.00  0.00    -0.292 N 
ATOM      2  C   UNL     1      -1.184  -2.106  -0.102  0.00  0.00    +0.187 A 
ATOM      3  N   UNL     1      -0.155  -2.931  -0.130  0.00  0.00    -0.125 NA
ATOM      4  N   UNL     1      -0.366  -4.285  -0.249  0.00  0.00    -0.133 NA
ATOM      5  C   UNL     1      -1.596  -4.753  -0.335  0.00  0.00    +0.160 A 
ATOM      6  S   UNL     1      -2.552  -3.246  -0.240  0.00  0.00    -0.024 S 
ATOM      7  H   UNL     1      -2.044  -0.251   0.102  0.00  0.00    +0.154 HD
ENDROOT
BRANCH   1  13
ATOM      8  C   UNL     1       1.121  -0.539  -0.632  0.00  0.00    +0.027 A 
ATOM      9  C   UNL     1       2.306   0.170  -0.651  0.00  0.00    +0.048 A 
ATOM     10  C   UNL     1       2.378   1.417  -0.046  0.00  0.00    +0.130 A 
ATOM     11  C   UNL     1       1.261   1.952   0.577  0.00  0.00    +0.048 A 
ATOM     12  C   UNL     1       0.075   1.245   0.597  0.00  0.00    +0.027 A 
ATOM     13  C   UNL     1       0.001  -0.003  -0.009  0.00  0.00    +0.033 A 
BRANCH  10  14
ATOM     14  O   UNL     1       3.546   2.114  -0.064  0.00  0.00    -0.406 OA
BRANCH  14  15
ATOM     15  C   UNL     1       3.549   3.390   0.578  0.00  0.00    +0.575 C 
ATOM     16  F   UNL     1       3.226   3.233   1.930  0.00  0.00    -0.133 F 
ATOM     17  F   UNL     1       4.820   3.965   0.467  0.00  0.00    -0.133 F 
ATOM     18  F   UNL     1       2.606   4.222  -0.033  0.00  0.00    -0.133 F 
ENDBRANCH  14  15
ENDBRANCH  10  14
ENDBRANCH   1  13
BRANCH   5  19
ATOM     19  S   UNL     1      -2.150  -6.418  -0.493  0.00  0.00    -0.088 S 
BRANCH  19  20
ATOM     20  C   UNL     1      -0.618  -7.389  -0.513  0.00  0.00    +0.172 C 
BRANCH  20  21
ATOM     21  C   UNL     1      -0.952  -8.852  -0.646  0.00  0.00    +0.228 C 
ATOM     22  O   UNL     1      -2.110  -9.206  -0.720  0.00  0.00    -0.275 OA
ATOM     23  N   UNL     1       0.035  -9.769  -0.683  0.00  0.00    -0.278 N 
ATOM     24  H   UNL     1       0.962  -9.487  -0.624  0.00  0.00    +0.155 HD
BRANCH  23  25
ATOM     25  C   UNL     1      -0.273 -11.117  -0.806  0.00  0.00    +0.089 A 
ATOM     26  C   UNL     1       0.603 -12.190  -0.854  0.00  0.00    +0.080 A 
ATOM     27  C   UNL     1       0.012 -13.502  -0.986  0.00  0.00    +0.028 A 
ATOM     28  C   UNL     1      -1.333 -13.536  -1.047  0.00  0.00    +0.048 A 
ATOM     29  S   UNL     1      -1.791 -11.821  -0.922  0.00  0.00    -0.081 S 
BRANCH  26  30
ATOM     30  C   UNL     1       2.022 -12.008  -0.778  0.00  0.00    +0.102 C 
ATOM     31  N   UNL     1       3.147 -11.864  -0.718  0.00  0.00    -0.191 NA
ENDBRANCH  26  30
ENDBRANCH  23  25
ENDBRANCH  20  21
ENDBRANCH  19  20
ENDBRANCH   5  19
TORSDOF 8
