REMARK  Name = ZINC00934300
REMARK  10 active torsions:
REMARK  status: ('A' for Active; 'I' for Inactive)
REMARK    1  A    between atoms: C_1  and  C_2
REMARK    2  A    between atoms: C_2  and  N_49
REMARK    3  A    between atoms: C_3  and  C_4
REMARK    4  A    between atoms: C_3  and  N_49
REMARK    5  A    between atoms: C_5  and  C_6
REMARK    6  A    between atoms: C_5  and  N_49
REMARK    7  A    between atoms: C_7  and  O_29
REMARK    8  A    between atoms: C_13  and  C_25
REMARK    9  A    between atoms: C_14  and  O_17
REMARK   10  A    between atoms: O_17  and  C_18
REMARK                            x       y       z     vdW  Elec       q    Type
REMARK                         _______ _______ _______ _____ _____    ______ ____
ROOT
ATOM      1  C   UNL     1       1.017   1.463   0.504  0.00  0.00    +0.020 A 
ATOM      2  C   UNL     1       2.334   1.755   0.820  0.00  0.00    +0.122 A 
ATOM      3  C   UNL     1       2.725   3.066   1.085  0.00  0.00    +0.046 A 
ATOM      4  C   UNL     1       1.813   4.082   1.037  0.00  0.00    +0.019 A 
ATOM      5  C   UNL     1       0.483   3.804   0.721  0.00  0.00    +0.068 A 
ATOM      6  C   UNL     1       0.080   2.484   0.447  0.00  0.00    +0.144 A 
ATOM      7  O   UNL     1      -1.209   2.227   0.148  0.00  0.00    -0.447 OA
ATOM      8  C   UNL     1      -2.139   3.189   0.089  0.00  0.00    +0.254 A 
ATOM      9  C   UNL     1      -1.861   4.486   0.328  0.00  0.00    +0.222 A 
ATOM     10  C   UNL     1      -0.531   4.871   0.659  0.00  0.00    +0.235 A 
ATOM     11  O   UNL     1      -0.242   6.035   0.882  0.00  0.00    -0.283 OA
ENDROOT
BRANCH   8  12
ATOM     12  C   UNL     1      -3.554   2.806  -0.260  0.00  0.00    +0.454 C 
ATOM     13  F   UNL     1      -3.726   2.866  -1.647  0.00  0.00    -0.163 F 
ATOM     14  F   UNL     1      -3.807   1.504   0.185  0.00  0.00    -0.163 F 
ATOM     15  F   UNL     1      -4.443   3.692   0.359  0.00  0.00    -0.163 F 
ENDBRANCH   8  12
BRANCH   2  16
ATOM     16  O   UNL     1       3.251   0.756   0.871  0.00  0.00    -0.506 OA
ATOM     17  H   UNL     1       3.695   0.586   0.029  0.00  0.00    +0.292 HD
ENDBRANCH   2  16
BRANCH   1  18
ATOM     18  C   UNL     1       0.605   0.041   0.219  0.00  0.00    -0.036 C 
BRANCH  18  19
ATOM     19  N   UNL     1       0.213  -0.605   1.489  0.00  0.00    +0.382 N 
ATOM     20  H   UNL     1       0.963  -0.470   2.178  0.00  0.00    -0.081 HD
BRANCH  19  22
ATOM     21  C   UNL     1      -2.200  -0.277   1.063  0.00  0.00    -0.017 C 
ATOM     22  C   UNL     1      -1.029   0.008   2.006  0.00  0.00    -0.082 C 
ENDBRANCH  19  22
BRANCH  19  23
ATOM     23  C   UNL     1       0.011  -2.054   1.277  0.00  0.00    -0.082 C 
ATOM     24  C   UNL     1      -0.101  -2.740   2.640  0.00  0.00    -0.017 C 
ENDBRANCH  19  23
ENDBRANCH  18  19
ENDBRANCH   1  18
BRANCH   9  25
ATOM     25  O   UNL     1      -2.847   5.423   0.255  0.00  0.00    -0.447 OA
BRANCH  25  26
ATOM     26  C   UNL     1      -3.066   6.025  -0.944  0.00  0.00    +0.143 A 
ATOM     27  C   UNL     1      -2.293   5.684  -2.045  0.00  0.00    +0.047 A 
ATOM     28  C   UNL     1      -2.522   6.294  -3.263  0.00  0.00    +0.004 A 
ATOM     29  C   UNL     1      -3.514   7.251  -3.384  0.00  0.00    +0.001 A 
ATOM     30  C   UNL     1      -4.282   7.597  -2.287  0.00  0.00    +0.019 A 
ATOM     31  C   UNL     1      -4.060   6.986  -1.067  0.00  0.00    +0.060 A 
ATOM     32 BR   UNL     1      -5.111   7.459   0.432  0.00  0.00    -0.046 Br
ENDBRANCH  25  26
ENDBRANCH   9  25
TORSDOF 8
