REMARK  Name = ZINC54540185
REMARK  7 active torsions:
REMARK  status: ('A' for Active; 'I' for Inactive)
REMARK    1  A    between atoms: C_3  and  C_6
REMARK    2  A    between atoms: C_6  and  C_8
REMARK    3  A    between atoms: C_6  and  N_24
REMARK    4  A    between atoms: C_8  and  N_9
REMARK    5  A    between atoms: N_12  and  C_13
REMARK    6  A    between atoms: C_13  and  C_14
REMARK    7  A    between atoms: N_16  and  C_17
REMARK                            x       y       z     vdW  Elec       q    Type
REMARK                         _______ _______ _______ _____ _____    ______ ____
ROOT
ATOM      1  N   UNL     1       5.686   0.346  -1.362  0.00  0.00    -0.301 N 
ATOM      2  C   UNL     1       6.453   0.210  -2.462  0.00  0.00    +0.300 C 
ATOM      3  O   UNL     1       5.934   0.095  -3.555  0.00  0.00    -0.253 OA
ATOM      4  N   UNL     1       7.796   0.201  -2.349  0.00  0.00    -0.291 N 
ATOM      5  H   UNL     1       6.100   0.438  -0.490  0.00  0.00    +0.150 HD
ATOM      6  H   UNL     1       8.210   0.293  -1.477  0.00  0.00    +0.151 HD
ENDROOT
BRANCH   1   7
ATOM      7  C   UNL     1       4.226   0.356  -1.484  0.00  0.00    +0.098 C 
BRANCH   7   8
ATOM      8  C   UNL     1       3.601   0.649  -0.119  0.00  0.00    +0.016 C 
BRANCH   8   9
ATOM      9  N   UNL     1       2.139   0.550  -0.217  0.00  0.00    +0.387 N 
ATOM     10  C   UNL     1       1.737  -0.858  -0.469  0.00  0.00    -0.078 C 
ATOM     11  C   UNL     1       0.264  -0.896   0.008  0.00  0.00    -0.020 C 
ATOM     12  C   UNL     1       0.278   0.023   1.251  0.00  0.00    -0.020 C 
ATOM     13  C   UNL     1       1.514   0.924   1.070  0.00  0.00    -0.078 C 
ATOM     14  H   UNL     1       1.798   1.147  -0.956  0.00  0.00    -0.081 HD
ENDBRANCH   8   9
BRANCH   8  17
ATOM     15  C   UNL     1       4.968   3.760   1.309  0.00  0.00    +0.041 A 
ATOM     16  C   UNL     1       4.957   2.351   1.192  0.00  0.00    +0.043 A 
ATOM     17  C   UNL     1       3.982   2.040   0.319  0.00  0.00    +0.093 A 
ATOM     18  O   UNL     1       3.405   3.180  -0.097  0.00  0.00    -0.469 OA
ATOM     19  C   UNL     1       3.999   4.226   0.500  0.00  0.00    +0.195 A 
ENDBRANCH   8  17
ENDBRANCH   7   8
ENDBRANCH   1   7
BRANCH   4  20
ATOM     20  C   UNL     1       8.630   0.053  -3.544  0.00  0.00    +0.202 C 
BRANCH  20  21
ATOM     21  C   UNL     1      10.084   0.074  -3.148  0.00  0.00    +0.234 C 
ATOM     22  O   UNL     1      10.393   0.201  -1.982  0.00  0.00    -0.274 OA
ATOM     23  N   UNL     1      11.041  -0.047  -4.089  0.00  0.00    -0.284 N 
ATOM     24  H   UNL     1      10.795  -0.218  -5.012  0.00  0.00    +0.155 HD
BRANCH  23  25
ATOM     25  C   UNL     1      12.390   0.074  -3.736  0.00  0.00    +0.034 A 
ATOM     26  C   UNL     1      13.287   0.674  -4.610  0.00  0.00    +0.025 A 
ATOM     27  C   UNL     1      14.617   0.792  -4.258  0.00  0.00    +0.022 A 
ATOM     28  C   UNL     1      15.057   0.314  -3.036  0.00  0.00    +0.041 A 
ATOM     29  C   UNL     1      14.165  -0.284  -2.163  0.00  0.00    +0.022 A 
ATOM     30  C   UNL     1      12.832  -0.400  -2.507  0.00  0.00    +0.025 A 
ATOM     31 CL   UNL     1      16.730   0.464  -2.598  0.00  0.00    -0.084 Cl
ENDBRANCH  23  25
ENDBRANCH  20  21
ENDBRANCH   4  20
TORSDOF 7
