REMARK  Name = ZINC07990612
REMARK  10 active torsions:
REMARK  status: ('A' for Active; 'I' for Inactive)
REMARK    1  A    between atoms: C_1  and  C_2
REMARK    2  A    between atoms: C_2  and  C_3
REMARK    3  A    between atoms: C_3  and  N_4
REMARK    4  A    between atoms: C_5  and  N_29
REMARK    5  A    between atoms: C_6  and  C_13
REMARK    6  A    between atoms: C_13  and  C_15
REMARK    7  A    between atoms: C_15  and  N_52
REMARK    8  A    between atoms: C_16  and  C_17
REMARK    9  A    between atoms: C_16  and  C_23
REMARK   10  A    between atoms: C_16  and  N_52
REMARK                            x       y       z     vdW  Elec       q    Type
REMARK                         _______ _______ _______ _____ _____    ______ ____
ROOT
ATOM      1  C   UNL     1       0.095  -2.512   2.539  0.00  0.00    +0.155 C 
ATOM      2  O   UNL     1       0.012  -1.810   3.527  0.00  0.00    -0.294 OA
ENDROOT
BRANCH   1   5
ATOM      3  N   UNL     1       0.012  -0.015  -0.172  0.00  0.00    -0.281 N 
ATOM      4  C   UNL     1       0.049  -0.532   1.091  0.00  0.00    +0.116 A 
ATOM      5  C   UNL     1       0.057  -1.929   1.254  0.00  0.00    +0.118 A 
ATOM      6  C   UNL     1       0.025  -2.761   0.044  0.00  0.00    +0.266 A 
ATOM      7  O   UNL     1       0.030  -3.975   0.126  0.00  0.00    -0.267 OA
ATOM      8  N   UNL     1      -0.011  -2.152  -1.159  0.00  0.00    -0.274 N 
ATOM      9  H   UNL     1      -0.029  -2.704  -1.992  0.00  0.00    +0.173 HD
ATOM     10  C   UNL     1      -0.022  -0.812  -1.252  0.00  0.00    +0.331 A 
ATOM     11  O   UNL     1      -0.059  -0.302  -2.355  0.00  0.00    -0.246 OA
BRANCH   4  12
ATOM     12  N   UNL     1       0.078   0.290   2.174  0.00  0.00    -0.344 N 
ATOM     13  H   UNL     1       0.156   1.249   2.053  0.00  0.00    +0.144 HD
ATOM     14  H   UNL     1       0.020  -0.083   3.068  0.00  0.00    +0.144 HD
ENDBRANCH   4  12
BRANCH   3  15
ATOM     15  C   UNL     1       0.003   1.439  -0.353  0.00  0.00    +0.128 C 
BRANCH  15  17
ATOM     16  C   UNL     1       1.432   3.467  -0.644  0.00  0.00    +0.005 C 
ATOM     17  C   UNL     1       1.441   1.949  -0.456  0.00  0.00    +0.018 C 
ENDBRANCH  15  17
ENDBRANCH   3  15
ENDBRANCH   1   5
BRANCH   1  18
ATOM     18  C   UNL     1       0.238  -4.005   2.684  0.00  0.00    -0.000 C 
BRANCH  18  19
ATOM     19  N   UNL     1       0.251  -4.351   4.118  0.00  0.00    +0.391 N 
ATOM     20  H   UNL     1      -0.628  -4.042   4.549  0.00  0.00    -0.084 HD
ATOM     21  H   UNL     1       1.041  -3.879   4.574  0.00  0.00    -0.084 HD
BRANCH  19  22
ATOM     22  C   UNL     1       0.391  -5.810   4.291  0.00  0.00    -0.009 C 
BRANCH  22  23
ATOM     23  C   UNL     1       1.002  -6.092   5.639  0.00  0.00    -0.057 A 
ATOM     24  C   UNL     1       0.624  -5.345   6.740  0.00  0.00    +0.002 A 
ATOM     25  C   UNL     1       1.181  -5.607   7.977  0.00  0.00    +0.000 A 
ATOM     26  C   UNL     1       2.123  -6.608   8.113  0.00  0.00    +0.000 A 
ATOM     27  C   UNL     1       2.506  -7.351   7.012  0.00  0.00    +0.000 A 
ATOM     28  C   UNL     1       1.945  -7.093   5.775  0.00  0.00    +0.002 A 
ENDBRANCH  22  23
BRANCH  22  29
ATOM     29  C   UNL     1      -0.967  -6.458   4.210  0.00  0.00    -0.057 A 
ATOM     30  C   UNL     1      -2.060  -5.850   4.800  0.00  0.00    +0.002 A 
ATOM     31  C   UNL     1      -3.307  -6.443   4.721  0.00  0.00    +0.000 A 
ATOM     32  C   UNL     1      -3.459  -7.648   4.061  0.00  0.00    +0.000 A 
ATOM     33  C   UNL     1      -2.365  -8.258   3.476  0.00  0.00    +0.000 A 
ATOM     34  C   UNL     1      -1.119  -7.663   3.550  0.00  0.00    +0.002 A 
ENDBRANCH  22  29
ENDBRANCH  19  22
ENDBRANCH  18  19
ENDBRANCH   1  18
TORSDOF 9
