REMARK  Name = ZINC20836448
REMARK  8 active torsions:
REMARK  status: ('A' for Active; 'I' for Inactive)
REMARK    1  A    between atoms: C_1  and  N_2
REMARK    2  A    between atoms: N_5  and  S_8
REMARK    3  A    between atoms: S_8  and  C_11
REMARK    4  A    between atoms: C_14  and  N_17
REMARK    5  A    between atoms: C_18  and  C_20
REMARK    6  A    between atoms: C_20  and  S_21
REMARK    7  A    between atoms: S_21  and  C_22
REMARK    8  A    between atoms: N_27  and  N_28
REMARK                            x       y       z     vdW  Elec       q    Type
REMARK                         _______ _______ _______ _____ _____    ______ ____
ROOT
ATOM      1  N   UNL     1       3.421   0.315   6.214  0.00  0.00    -0.285 N 
ATOM      2  C   UNL     1       4.344  -0.661   6.108  0.00  0.00    +0.227 C 
ATOM      3  O   UNL     1       4.297  -1.442   5.181  0.00  0.00    -0.275 OA
ATOM      4  H   UNL     1       3.511   1.074   7.005  0.00  0.00    +0.155 HD
ENDROOT
BRANCH   1   8
ATOM      5  C   UNL     1       0.224   0.459   3.546  0.00  0.00    +0.106 A 
ATOM      6  C   UNL     1       0.760   1.632   4.045  0.00  0.00    +0.030 A 
ATOM      7  C   UNL     1       1.816   1.587   4.934  0.00  0.00    +0.025 A 
ATOM      8  C   UNL     1       2.347   0.363   5.318  0.00  0.00    +0.034 A 
ATOM      9  C   UNL     1       1.811  -0.813   4.811  0.00  0.00    +0.025 A 
ATOM     10  C   UNL     1       0.751  -0.762   3.927  0.00  0.00    +0.030 A 
BRANCH   5  11
ATOM     11  S   UNL     1      -1.128   0.520   2.418  0.00  0.00    +0.061 S 
ATOM     12  O   UNL     1      -1.089  -0.689   1.672  0.00  0.00    -0.153 OA
ATOM     13  O   UNL     1      -1.084   1.798   1.800  0.00  0.00    -0.153 OA
BRANCH  11  18
ATOM     14  C   UNL     1      -6.700   0.471   3.702  0.00  0.00    -0.096 C 
ATOM     15  N   UNL     1      -5.245   0.455   3.902  0.00  0.00    +0.380 N 
ATOM     16  C   UNL     1      -4.631   1.694   3.404  0.00  0.00    -0.062 C 
ATOM     17  C   UNL     1      -3.149   1.717   3.792  0.00  0.00    +0.091 C 
ATOM     18  N   UNL     1      -2.518   0.476   3.317  0.00  0.00    -0.180 NA
ATOM     19  C   UNL     1      -3.159  -0.804   3.658  0.00  0.00    +0.091 C 
ATOM     20  C   UNL     1      -4.641  -0.728   3.276  0.00  0.00    -0.062 C 
ATOM     21  H   UNL     1      -5.051   0.397   4.983  0.00  0.00    -0.082 HD
ENDBRANCH  11  18
ENDBRANCH   5  11
ENDBRANCH   1   8
BRANCH   2  22
ATOM     22  C   UNL     1       5.434  -0.783   7.141  0.00  0.00    +0.173 C 
BRANCH  22  23
ATOM     23  S   UNL     1       6.510  -2.183   6.723  0.00  0.00    -0.075 S 
BRANCH  23  24
ATOM     24  C   UNL     1       7.717  -2.191   8.007  0.00  0.00    +0.211 A 
ATOM     25  N   UNL     1       8.753  -3.072   8.129  0.00  0.00    -0.186 NA
ATOM     26  C   UNL     1       9.458  -2.743   9.253  0.00  0.00    +0.232 A 
ATOM     27  N   UNL     1       8.881  -1.702   9.802  0.00  0.00    -0.245 N 
ATOM     28  N   UNL     1       7.781  -1.349   9.010  0.00  0.00    -0.144 NA
ATOM     29  N   UNL     1      10.587  -3.396   9.729  0.00  0.00    -0.205 N 
ATOM     30  H   UNL     1      10.990  -4.264   9.187  0.00  0.00    +0.177 HD
ATOM     31  H   UNL     1       9.289  -1.272  10.729  0.00  0.00    +0.192 HD
BRANCH  29  32
ATOM     32  N   UNL     1      11.213  -2.950  10.900  0.00  0.00    -0.189 NA
ATOM     33  C   UNL     1      12.309  -3.487  11.285  0.00  0.00    +0.037 C 
ATOM     34  C   UNL     1      12.887  -4.679  10.554  0.00  0.00    +0.052 C 
ATOM     35  C   UNL     1      14.355  -4.375  10.219  0.00  0.00    +0.006 C 
ATOM     36  C   UNL     1      15.100  -4.001  11.502  0.00  0.00    +0.001 C 
ATOM     37  C   UNL     1      14.516  -2.712  12.083  0.00  0.00    +0.006 C 
ATOM     38  C   UNL     1      13.057  -2.950  12.485  0.00  0.00    +0.052 C 
ENDBRANCH  29  32
ENDBRANCH  23  24
ENDBRANCH  22  23
ENDBRANCH   2  22
TORSDOF 7
