REMARK  Name = ZINC36813034
REMARK  5 active torsions:
REMARK  status: ('A' for Active; 'I' for Inactive)
REMARK    1  A    between atoms: C_1  and  O_2
REMARK    2  A    between atoms: O_2  and  C_3
REMARK    3  A    between atoms: C_8  and  N_9
REMARK    4  A    between atoms: N_9  and  C_10
REMARK    5  A    between atoms: C_19  and  N_20
REMARK                            x       y       z     vdW  Elec       q    Type
REMARK                         _______ _______ _______ _____ _____    ______ ____
ROOT
ATOM      1  C   UNL     1       0.055  -4.162  -0.244  0.00  0.00    +0.063 A 
ATOM      2  C   UNL     1      -0.851  -4.938   0.513  0.00  0.00    +0.022 A 
ATOM      3  C   UNL     1      -1.750  -4.342   1.409  0.00  0.00    +0.027 A 
ATOM      4  C   UNL     1      -2.610  -5.123   2.122  0.00  0.00    +0.019 A 
ATOM      5  C   UNL     1      -2.605  -6.509   1.972  0.00  0.00    +0.017 A 
ATOM      6  C   UNL     1      -1.745  -7.120   1.112  0.00  0.00    +0.027 A 
ATOM      7  C   UNL     1      -0.844  -6.346   0.359  0.00  0.00    +0.048 A 
ATOM      8  N   UNL     1       0.010  -6.922  -0.493  0.00  0.00    -0.359 N 
ATOM      9  C   UNL     1       0.858  -6.216  -1.205  0.00  0.00    +0.107 A 
ATOM     10  C   UNL     1       0.911  -4.826  -1.115  0.00  0.00    +0.063 A 
ATOM     11 BR   UNL     1      -3.821  -4.318   3.330  0.00  0.00    -0.050 Br
ATOM     12  H   UNL     1       0.004  -7.888  -0.588  0.00  0.00    +0.165 HD
ENDROOT
BRANCH  10  13
ATOM     13  N   UNL     1       1.825  -4.104  -1.895  0.00  0.00    -0.355 N 
ATOM     14  H   UNL     1       1.917  -3.146  -1.771  0.00  0.00    +0.142 HD
ATOM     15  H   UNL     1       2.366  -4.561  -2.558  0.00  0.00    +0.142 HD
ENDBRANCH  10  13
BRANCH   1  16
ATOM     16  N   UNL     1       0.085  -2.776  -0.126  0.00  0.00    -0.310 N 
ATOM     17  H   UNL     1       0.587  -2.361   0.593  0.00  0.00    +0.152 HD
BRANCH  16  23
ATOM     18  C   UNL     1      -0.685  -0.601  -0.857  0.00  0.00    +0.141 A 
ATOM     19  C   UNL     1      -1.368   0.182  -1.773  0.00  0.00    +0.047 A 
ATOM     20  C   UNL     1      -1.977  -0.405  -2.867  0.00  0.00    +0.004 A 
ATOM     21  C   UNL     1      -1.907  -1.774  -3.050  0.00  0.00    +0.002 A 
ATOM     22  C   UNL     1      -1.228  -2.562  -2.142  0.00  0.00    +0.027 A 
ATOM     23  C   UNL     1      -0.609  -1.980  -1.045  0.00  0.00    +0.074 A 
BRANCH  18  25
ATOM     24  C   UNL     1      -0.204   1.393   0.346  0.00  0.00    +0.277 C 
ATOM     25  O   UNL     1      -0.085  -0.025   0.219  0.00  0.00    -0.493 OA
ENDBRANCH  18  25
ENDBRANCH  16  23
ENDBRANCH   1  16
TORSDOF 4
