REMARK  Name = ZINC40291863
REMARK  6 active torsions:
REMARK  status: ('A' for Active; 'I' for Inactive)
REMARK    1  A    between atoms: C_1  and  C_2
REMARK    2  A    between atoms: C_3  and  C_22
REMARK    3  A    between atoms: C_7  and  C_8
REMARK    4  A    between atoms: N_9  and  O_10
REMARK    5  A    between atoms: N_12  and  C_13
REMARK    6  A    between atoms: N_12  and  C_14
REMARK                            x       y       z     vdW  Elec       q    Type
REMARK                         _______ _______ _______ _____ _____    ______ ____
ROOT
ATOM      1  C   UNL     1      -0.003   1.503   0.013  0.00  0.00    +0.046 C 
ATOM      2  C   UNL     1       0.009  -0.004   0.004  0.00  0.00    -0.016 A 
ATOM      3  C   UNL     1       0.015  -0.711  -1.188  0.00  0.00    +0.035 A 
ATOM      4  N   UNL     1       0.025  -2.029  -1.176  0.00  0.00    -0.280 N 
ATOM      5  N   UNL     1       0.031  -2.711  -0.089  0.00  0.00    -0.158 NA
ATOM      6  C   UNL     1       0.028  -2.136   1.105  0.00  0.00    +0.152 A 
ATOM      7  C   UNL     1       0.022  -0.733   1.197  0.00  0.00    +0.064 A 
ATOM      8  N   UNL     1       0.035  -2.913   2.253  0.00  0.00    -0.312 N 
ATOM      9  C   UNL     1      -1.226  -3.235   2.927  0.00  0.00    +0.131 C 
ATOM     10  C   UNL     1       0.008   0.029  -2.501  0.00  0.00    +0.065 C 
ATOM     11  H   UNL     1       0.028  -2.502  -2.022  0.00  0.00    +0.189 HD
ENDROOT
BRANCH   8  12
ATOM     12  C   UNL     1       1.302  -3.410   2.793  0.00  0.00    +0.097 C 
ATOM     13  C   UNL     1       1.273  -4.946   2.856  0.00  0.00    +0.046 C 
ATOM     14  C   UNL     1       2.456  -5.462   3.710  0.00  0.00    +0.168 C 
ATOM     15  S   UNL     1       2.753  -4.069   4.873  0.00  0.00    -0.029 S 
ATOM     16  O   UNL     1       4.055  -3.546   4.645  0.00  0.00    -0.174 OA
ATOM     17  O   UNL     1       2.381  -4.473   6.184  0.00  0.00    -0.174 OA
ATOM     18  C   UNL     1       1.506  -2.871   4.238  0.00  0.00    +0.188 C 
ENDBRANCH   8  12
BRANCH   7  19
ATOM     19  C   UNL     1       0.024  -0.052   2.511  0.00  0.00    +0.166 C 
ATOM     20  N   UNL     1      -1.097   0.144   3.143  0.00  0.00    -0.071 NA
ATOM     21  N   UNL     1       1.217   0.377   3.067  0.00  0.00    -0.340 N 
ATOM     22  H   UNL     1       2.052   0.231   2.595  0.00  0.00    +0.144 HD
ATOM     23  H   UNL     1       1.218   0.823   3.928  0.00  0.00    +0.144 HD
BRANCH  20  24
ATOM     24  O   UNL     1      -1.095   0.795   4.400  0.00  0.00    -0.408 OA
ATOM     25  H   UNL     1      -1.973   0.895   4.793  0.00  0.00    +0.328 HD
ENDBRANCH  20  24
ENDBRANCH   7  19
TORSDOF 3
