REMARK  Name = ZINC63506934
REMARK  8 active torsions:
REMARK  status: ('A' for Active; 'I' for Inactive)
REMARK    1  A    between atoms: C_1  and  C_2
REMARK    2  A    between atoms: C_4  and  C_20
REMARK    3  A    between atoms: C_7  and  O_12
REMARK    4  A    between atoms: O_12  and  C_13
REMARK    5  A    between atoms: C_13  and  C_14
REMARK    6  A    between atoms: C_20  and  C_21
REMARK    7  A    between atoms: C_21  and  N_22
REMARK    8  A    between atoms: C_23  and  C_25
REMARK                            x       y       z     vdW  Elec       q    Type
REMARK                         _______ _______ _______ _____ _____    ______ ____
ROOT
ATOM      1  C   UNL     1      -0.019   1.526   0.010  0.00  0.00    +0.035 C 
ATOM      2  C   UNL     1       0.002  -0.004   0.002  0.00  0.00    +0.103 C 
ATOM      3  C   UNL     1       0.729  -0.509  -1.224  0.00  0.00    -0.037 C 
ATOM      4  C   UNL     1       1.785  -1.220  -0.768  0.00  0.00    +0.003 A 
ATOM      5  C   UNL     1       2.858  -1.954  -1.447  0.00  0.00    +0.055 A 
ATOM      6  C   UNL     1       3.803  -2.586  -0.711  0.00  0.00    +0.122 A 
ATOM      7  C   UNL     1       3.796  -2.567   0.695  0.00  0.00    +0.048 A 
ATOM      8  C   UNL     1       2.851  -1.919   1.409  0.00  0.00    +0.029 A 
ATOM      9  C   UNL     1       1.779  -1.200   0.713  0.00  0.00    +0.043 A 
ATOM     10  N   UNL     1       0.758  -0.506   1.155  0.00  0.00    -0.378 N 
ATOM     11  H   UNL     1       0.540  -0.349   2.087  0.00  0.00    +0.160 HD
ENDROOT
BRANCH   6  12
ATOM     12  O   UNL     1       4.792  -3.263  -1.353  0.00  0.00    -0.487 OA
BRANCH  12  13
ATOM     13  C   UNL     1       5.767  -3.915  -0.537  0.00  0.00    +0.264 C 
BRANCH  13  14
ATOM     14  C   UNL     1       6.776  -4.607  -1.417  0.00  0.00    -0.010 A 
ATOM     15  C   UNL     1       6.564  -5.914  -1.815  0.00  0.00    +0.007 A 
ATOM     16  C   UNL     1       7.490  -6.549  -2.622  0.00  0.00    +0.000 A 
ATOM     17  C   UNL     1       8.626  -5.877  -3.032  0.00  0.00    +0.000 A 
ATOM     18  C   UNL     1       8.838  -4.570  -2.634  0.00  0.00    +0.000 A 
ATOM     19  C   UNL     1       7.910  -3.934  -1.831  0.00  0.00    +0.007 A 
ENDBRANCH  13  14
ENDBRANCH  12  13
ENDBRANCH   6  12
BRANCH   3  20
ATOM     20  C   UNL     1       0.352  -0.269  -2.664  0.00  0.00    +0.052 C 
BRANCH  20  21
ATOM     21  C   UNL     1       1.363  -0.963  -3.578  0.00  0.00    +0.109 C 
BRANCH  21  22
ATOM     22  N   UNL     1       0.997  -0.729  -4.977  0.00  0.00    -0.311 N 
ATOM     23  C   UNL     1       1.750  -1.249  -5.967  0.00  0.00    +0.244 C 
ATOM     24  O   UNL     1       2.733  -1.912  -5.699  0.00  0.00    -0.270 OA
ATOM     25  H   UNL     1       0.212  -0.201  -5.192  0.00  0.00    +0.149 HD
BRANCH  23  26
ATOM     26  C   UNL     1       1.380  -1.014  -7.379  0.00  0.00    +0.038 A 
ATOM     27  C   UNL     1       0.255  -0.249  -7.691  0.00  0.00    +0.013 A 
ATOM     28  C   UNL     1      -0.085  -0.032  -9.010  0.00  0.00    +0.002 A 
ATOM     29  C   UNL     1       0.686  -0.572 -10.024  0.00  0.00    +0.015 A 
ATOM     30  C   UNL     1       1.803  -1.333  -9.722  0.00  0.00    +0.019 A 
ATOM     31  C   UNL     1       2.158  -1.551  -8.406  0.00  0.00    +0.028 A 
ATOM     32 BR   UNL     1       2.849  -2.067 -11.116  0.00  0.00    -0.050 Br
ENDBRANCH  23  26
ENDBRANCH  21  22
ENDBRANCH  20  21
ENDBRANCH   3  20
TORSDOF 7
