REMARK  Name = ZINC05684591
REMARK  12 active torsions:
REMARK  status: ('A' for Active; 'I' for Inactive)
REMARK    1  A    between atoms: C_4  and  C_7
REMARK    2  A    between atoms: C_7  and  C_9
REMARK    3  A    between atoms: C_7  and  N_51
REMARK    4  A    between atoms: C_9  and  C_10
REMARK    5  A    between atoms: C_10  and  C_12
REMARK    6  A    between atoms: C_23  and  C_24
REMARK    7  A    between atoms: C_23  and  C_26
REMARK    8  A    between atoms: C_23  and  C_28
REMARK    9  A    between atoms: C_23  and  N_51
REMARK   10  A    between atoms: C_24  and  O_25
REMARK   11  A    between atoms: C_26  and  O_27
REMARK   12  A    between atoms: C_28  and  O_29
REMARK                            x       y       z     vdW  Elec       q    Type
REMARK                         _______ _______ _______ _____ _____    ______ ____
ROOT
ATOM      1  C   UNL     1       6.254   5.944  -0.074  0.00  0.00    -0.032 C 
ENDROOT
BRANCH   1   5
ATOM      2  C   UNL     1       5.630  10.170  -0.018  0.00  0.00    +0.000 A 
ATOM      3  C   UNL     1       6.013   9.512   1.137  0.00  0.00    +0.000 A 
ATOM      4  C   UNL     1       6.215   8.145   1.118  0.00  0.00    +0.002 A 
ATOM      5  C   UNL     1       6.034   7.435  -0.054  0.00  0.00    -0.061 A 
ATOM      6  C   UNL     1       5.656   8.093  -1.209  0.00  0.00    +0.002 A 
ATOM      7  C   UNL     1       5.449   9.460  -1.190  0.00  0.00    +0.000 A 
ENDBRANCH   1   5
BRANCH   1   8
ATOM      8  N   UNL     1       6.926   5.563  -1.331  0.00  0.00    +0.392 N 
ATOM      9  H   UNL     1       6.643   6.211  -2.076  0.00  0.00    -0.084 HD
ATOM     10  H   UNL     1       6.651   4.607  -1.586  0.00  0.00    -0.084 HD
BRANCH   8  11
ATOM     11  C   UNL     1       8.391   5.620  -1.167  0.00  0.00    +0.003 C 
BRANCH  11  12
ATOM     12  C   UNL     1       9.058   5.361  -2.519  0.00  0.00    +0.148 C 
BRANCH  12  13
ATOM     13  O   UNL     1      10.478   5.414  -2.368  0.00  0.00    -0.396 OA
ATOM     14  H   UNL     1      10.966   5.258  -3.187  0.00  0.00    +0.209 HD
ENDBRANCH  12  13
ENDBRANCH  11  12
BRANCH  11  15
ATOM     15  C   UNL     1       8.798   7.003  -0.654  0.00  0.00    +0.148 C 
BRANCH  15  16
ATOM     16  O   UNL     1       8.280   8.007  -1.530  0.00  0.00    -0.396 OA
ATOM     17  H   UNL     1       8.500   8.911  -1.266  0.00  0.00    +0.209 HD
ENDBRANCH  15  16
ENDBRANCH  11  15
BRANCH  11  18
ATOM     18  C   UNL     1       8.837   4.554  -0.165  0.00  0.00    +0.148 C 
BRANCH  18  19
ATOM     19  O   UNL     1       8.524   3.257  -0.678  0.00  0.00    -0.396 OA
ATOM     20  H   UNL     1       8.780   2.531  -0.094  0.00  0.00    +0.209 HD
ENDBRANCH  18  19
ENDBRANCH  11  18
ENDBRANCH   8  11
ENDBRANCH   1   8
BRANCH   1  21
ATOM     21  C   UNL     1       4.905   5.228   0.011  0.00  0.00    +0.069 C 
BRANCH  21  22
ATOM     22  C   UNL     1       5.131   3.742   0.115  0.00  0.00    +0.169 C 
ATOM     23  O   UNL     1       6.261   3.299   0.120  0.00  0.00    -0.292 OA
BRANCH  22  24
ATOM     24  C   UNL     1       3.987   2.832   0.210  0.00  0.00    +0.102 A 
ATOM     25  C   UNL     1       2.689   3.325   0.205  0.00  0.00    +0.030 A 
ATOM     26  C   UNL     1       1.614   2.408   0.300  0.00  0.00    +0.018 A 
ATOM     27  C   UNL     1       0.289   2.871   0.298  0.00  0.00    +0.011 A 
ATOM     28  C   UNL     1      -0.743   1.982   0.388  0.00  0.00    +0.001 A 
ATOM     29  C   UNL     1      -0.492   0.620   0.477  0.00  0.00    +0.004 A 
ATOM     30  C   UNL     1       0.801   0.142   0.486  0.00  0.00    +0.047 A 
ATOM     31  C   UNL     1       1.870   1.028   0.395  0.00  0.00    +0.139 A 
ATOM     32  O   UNL     1       3.135   0.556   0.399  0.00  0.00    -0.422 OA
ATOM     33  C   UNL     1       4.192   1.381   0.312  0.00  0.00    +0.348 A 
ATOM     34  O   UNL     1       5.320   0.925   0.318  0.00  0.00    -0.244 OA
ENDBRANCH  22  24
ENDBRANCH  21  22
ENDBRANCH   1  21
TORSDOF 12
