REMARK  Name = ZINC22812234
REMARK  11 active torsions:
REMARK  status: ('A' for Active; 'I' for Inactive)
REMARK    1  A    between atoms: C_1  and  C_2
REMARK    2  A    between atoms: C_2  and  C_4
REMARK    3  A    between atoms: C_2  and  N_14
REMARK    4  A    between atoms: C_15  and  C_17
REMARK    5  A    between atoms: C_17  and  N_18
REMARK    6  A    between atoms: N_22  and  C_25
REMARK    7  A    between atoms: C_25  and  C_26
REMARK    8  A    between atoms: N_28  and  C_29
REMARK    9  A    between atoms: C_29  and  C_30
REMARK   10  A    between atoms: C_29  and  C_31
REMARK   11  A    between atoms: C_29  and  C_32
REMARK                            x       y       z     vdW  Elec       q    Type
REMARK                         _______ _______ _______ _____ _____    ______ ____
ROOT
ATOM      1  C   UNL     1      -0.364   1.102   2.632  0.00  0.00    +0.180 C 
ENDROOT
BRANCH   1   2
ATOM      2  N   UNL     1      -0.657   2.178   1.675  0.00  0.00    -0.296 NA
ATOM      3  C   UNL     1      -0.178   3.447   2.164  0.00  0.00    +0.083 C 
ATOM      4  C   UNL     1      -1.131   4.611   1.820  0.00  0.00    -0.003 C 
ATOM      5  C   UNL     1      -1.689   4.489   0.386  0.00  0.00    -0.077 C 
ATOM      6  N   UNL     1      -0.690   4.062  -0.562  0.00  0.00    +0.386 N 
ATOM      7  C   UNL     1      -0.746   2.592  -0.728  0.00  0.00    -0.063 C 
ATOM      8  C   UNL     1      -0.058   1.889   0.352  0.00  0.00    +0.066 C 
ATOM      9  H   UNL     1       0.291   4.352  -0.158  0.00  0.00    -0.081 HD
BRANCH   6  10
ATOM     10  C   UNL     1      -0.863   4.745  -1.852  0.00  0.00    +0.019 C 
BRANCH  10  11
ATOM     11  C   UNL     1      -0.557   6.211  -1.689  0.00  0.00    +0.197 C 
ATOM     12  O   UNL     1      -0.227   6.646  -0.606  0.00  0.00    -0.278 OA
ATOM     13  N   UNL     1      -0.650   7.040  -2.748  0.00  0.00    -0.312 N 
ATOM     14  H   UNL     1      -0.949   6.646  -3.730  0.00  0.00    +0.149 HD
BRANCH  13  15
ATOM     15  C   UNL     1      -0.353   8.466  -2.590  0.00  0.00    +0.026 C 
ATOM     16  C   UNL     1       1.091   8.636  -2.113  0.00  0.00    +0.031 C 
ATOM     17  C   UNL     1      -0.534   9.176  -3.933  0.00  0.00    +0.031 C 
ATOM     18  C   UNL     1      -1.306   9.075  -1.559  0.00  0.00    +0.031 C 
ENDBRANCH  13  15
ENDBRANCH  10  11
ENDBRANCH   6  10
ENDBRANCH   1   2
BRANCH   1  20
ATOM     19  N   UNL     1       1.630   0.092   3.691  0.00  0.00    -0.308 N 
ATOM     20  C   UNL     1       1.122   1.034   2.872  0.00  0.00    +0.228 C 
ATOM     21  O   UNL     1       1.861   1.827   2.328  0.00  0.00    -0.274 OA
ATOM     22  H   UNL     1       0.960  -0.627   4.184  0.00  0.00    +0.149 HD
BRANCH  19  24
ATOM     23  C   UNL     1       3.726  -0.846   2.849  0.00  0.00    +0.033 C 
ATOM     24  C   UNL     1       3.075   0.026   3.924  0.00  0.00    +0.101 C 
BRANCH  24  25
ATOM     25  C   UNL     1       3.338  -0.572   5.282  0.00  0.00    -0.020 A 
ATOM     26  C   UNL     1       2.434  -1.423   5.841  0.00  0.00    +0.006 A 
ATOM     27  C   UNL     1       2.662  -1.989   7.094  0.00  0.00    +0.001 A 
ATOM     28  C   UNL     1       3.790  -1.700   7.799  0.00  0.00    +0.008 A 
ATOM     29  C   UNL     1       4.743  -0.821   7.257  0.00  0.00    -0.018 A 
ATOM     30  C   UNL     1       4.513  -0.249   5.980  0.00  0.00    -0.013 A 
ATOM     31  C   UNL     1       5.467   0.630   5.438  0.00  0.00    +0.009 A 
ATOM     32  C   UNL     1       6.595   0.918   6.143  0.00  0.00    +0.001 A 
ATOM     33  C   UNL     1       6.820   0.356   7.398  0.00  0.00    +0.001 A 
ATOM     34  C   UNL     1       5.919  -0.499   7.955  0.00  0.00    +0.008 A 
ENDBRANCH  24  25
ENDBRANCH  19  24
ENDBRANCH   1  20
TORSDOF 7
