REMARK  Name = ZINC16134200
REMARK  3 active torsions:
REMARK  status: ('A' for Active; 'I' for Inactive)
REMARK    1  A    between atoms: C_1  and  C_2
REMARK    2  A    between atoms: C_7  and  S_8
REMARK    3  A    between atoms: S_8  and  N_11
REMARK                            x       y       z     vdW  Elec       q    Type
REMARK                         _______ _______ _______ _____ _____    ______ ____
ROOT
ATOM      1  S   UNL     1       0.026   0.171   2.726  0.00  0.00    +0.099 S 
ATOM      2  O   UNL     1      -1.014   1.137   2.645  0.00  0.00    -0.146 OA
ATOM      3  O   UNL     1       0.076  -0.810   3.753  0.00  0.00    -0.146 OA
ENDROOT
BRANCH   1   4
ATOM      4  N   UNL     1       1.449   1.014   2.806  0.00  0.00    -0.129 NA
ATOM      5  C   UNL     1       1.711   1.754   3.849  0.00  0.00    +0.087 C 
ATOM      6  C   UNL     1       0.743   1.836   4.959  0.00  0.00    +0.033 C 
ATOM      7  C   UNL     1       1.015   2.599   6.031  0.00  0.00    +0.054 C 
ATOM      8  C   UNL     1       2.275   3.350   6.099  0.00  0.00    +0.197 C 
ATOM      9  O   UNL     1       2.518   4.040   7.072  0.00  0.00    -0.286 OA
ATOM     10  C   UNL     1       3.242   3.271   4.995  0.00  0.00    +0.090 C 
ATOM     11  C   UNL     1       2.978   2.505   3.922  0.00  0.00    +0.053 C 
ATOM     12 CL   UNL     1       4.729   4.161   5.080  0.00  0.00    -0.080 Cl
ENDBRANCH   1   4
BRANCH   1  19
ATOM     13  C   UNL     1      -0.018   1.503   0.010  0.00  0.00    +0.046 C 
ATOM     14  C   UNL     1       0.002  -0.004   0.002  0.00  0.00    -0.024 A 
ATOM     15  C   UNL     1       0.006  -0.689  -1.199  0.00  0.00    +0.005 A 
ATOM     16  C   UNL     1       0.025  -2.071  -1.207  0.00  0.00    +0.000 A 
ATOM     17  C   UNL     1       0.040  -2.768  -0.013  0.00  0.00    +0.002 A 
ATOM     18  C   UNL     1       0.037  -2.084   1.188  0.00  0.00    +0.029 A 
ATOM     19  C   UNL     1       0.023  -0.702   1.195  0.00  0.00    +0.115 A 
ENDBRANCH   1  19
TORSDOF 2
