REMARK  Name = ZINC19768075
REMARK  7 active torsions:
REMARK  status: ('A' for Active; 'I' for Inactive)
REMARK    1  A    between atoms: C_1  and  C_2
REMARK    2  A    between atoms: C_2  and  C_4
REMARK    3  A    between atoms: C_2  and  N_26
REMARK    4  A    between atoms: N_10  and  C_15
REMARK    5  A    between atoms: C_15  and  C_16
REMARK    6  A    between atoms: N_18  and  C_19
REMARK    7  A    between atoms: C_19  and  C_20
REMARK                            x       y       z     vdW  Elec       q    Type
REMARK                         _______ _______ _______ _____ _____    ______ ____
ROOT
ATOM      1  C   UNL     1      -7.423   1.165   6.608  0.00  0.00    -0.060 A 
ATOM      2  C   UNL     1      -8.260   2.142   7.116  0.00  0.00    +0.005 A 
ATOM      3  C   UNL     1      -7.776   3.413   7.366  0.00  0.00    +0.048 A 
ATOM      4  C   UNL     1      -6.449   3.709   7.107  0.00  0.00    +0.143 A 
ATOM      5  C   UNL     1      -5.605   2.724   6.594  0.00  0.00    +0.079 A 
ATOM      6  C   UNL     1      -6.096   1.453   6.345  0.00  0.00    +0.029 A 
ATOM      7  N   UNL     1      -4.263   3.038   6.336  0.00  0.00    -0.257 N 
ATOM      8  C   UNL     1      -3.737   4.159   6.875  0.00  0.00    +0.258 C 
ATOM      9  O   UNL     1      -2.586   4.463   6.644  0.00  0.00    -0.271 OA
ATOM     10  C   UNL     1      -4.588   5.033   7.760  0.00  0.00    +0.325 C 
ATOM     11  O   UNL     1      -5.955   4.953   7.349  0.00  0.00    -0.481 OA
ENDROOT
BRANCH   1  13
ATOM     12  C   UNL     1      -8.021  -1.004   7.650  0.00  0.00    -0.009 C 
ATOM     13  C   UNL     1      -7.959  -0.218   6.339  0.00  0.00    -0.047 C 
BRANCH  13  14
ATOM     14  N   UNL     1      -9.307  -0.117   5.764  0.00  0.00    +0.382 N 
ATOM     15  H   UNL     1      -9.262   0.449   4.822  0.00  0.00    -0.089 HD
ATOM     16  H   UNL     1      -9.970   0.402   6.473  0.00  0.00    -0.089 HD
ATOM     17  H   UNL     1      -9.698  -1.126   5.568  0.00  0.00    -0.089 HD
ENDBRANCH  13  14
ENDBRANCH   1  13
BRANCH   7  18
ATOM     18  C   UNL     1      -3.442   2.159   5.498  0.00  0.00    +0.209 C 
BRANCH  18  19
ATOM     19  C   UNL     1      -3.554   2.590   4.059  0.00  0.00    +0.231 C 
ATOM     20  O   UNL     1      -4.250   3.537   3.761  0.00  0.00    -0.274 OA
ATOM     21  N   UNL     1      -2.880   1.922   3.102  0.00  0.00    -0.312 N 
ATOM     22  H   UNL     1      -2.248   1.063   3.371  0.00  0.00    +0.149 HD
BRANCH  21  23
ATOM     23  C   UNL     1      -2.988   2.341   1.702  0.00  0.00    +0.135 C 
BRANCH  23  24
ATOM     24  C   UNL     1      -2.131   1.423   0.827  0.00  0.00    +0.135 C 
ATOM     25  C   UNL     1      -2.230   1.847  -0.655  0.00  0.00    +0.035 C 
ATOM     26  C   UNL     1      -0.804   1.620  -1.206  0.00  0.00    +0.031 C 
ATOM     27  C   UNL     1      -0.013   1.086   0.008  0.00  0.00    +0.160 C 
ATOM     28  O   UNL     1      -0.731   1.573   1.163  0.00  0.00    -0.375 OA
ENDBRANCH  23  24
ENDBRANCH  21  23
ENDBRANCH  18  19
ENDBRANCH   7  18
TORSDOF 6
