REMARK  Name = ZINC39362028
REMARK  11 active torsions:
REMARK  status: ('A' for Active; 'I' for Inactive)
REMARK    1  A    between atoms: C_1  and  C_2
REMARK    2  A    between atoms: C_6  and  N_9
REMARK    3  A    between atoms: C_7  and  C_8
REMARK    4  A    between atoms: C_10  and  C_12
REMARK    5  A    between atoms: C_12  and  S_13
REMARK    6  A    between atoms: S_13  and  C_14
REMARK    7  A    between atoms: C_17  and  C_28
REMARK    8  A    between atoms: N_19  and  C_20
REMARK    9  A    between atoms: C_24  and  O_26
REMARK   10  A    between atoms: O_26  and  C_27
REMARK   11  A    between atoms: C_28  and  C_29
REMARK                            x       y       z     vdW  Elec       q    Type
REMARK                         _______ _______ _______ _____ _____    ______ ____
ROOT
ATOM      1  C   UNL     1      -0.335  -7.412   4.943  0.00  0.00    +0.180 C 
ATOM      2  N   UNL     1      -0.341  -6.744   6.046  0.00  0.00    -0.162 NA
ATOM      3  N   UNL     1      -0.433  -7.591   7.158  0.00  0.00    -0.246 N 
ATOM      4  C   UNL     1      -0.490  -8.963   6.625  0.00  0.00    +0.187 C 
ATOM      5  N   UNL     1      -0.427  -8.779   5.165  0.00  0.00    -0.258 N 
ATOM      6  H   UNL     1      -0.456  -7.327   8.091  0.00  0.00    +0.170 HD
ENDROOT
BRANCH   5   7
ATOM      7  C   UNL     1      -0.453  -9.783   4.194  0.00  0.00    +0.041 A 
ATOM      8  C   UNL     1       0.660 -10.004   3.391  0.00  0.00    +0.024 A 
ATOM      9  C   UNL     1       0.634 -10.997   2.432  0.00  0.00    +0.005 A 
ATOM     10  C   UNL     1      -0.497 -11.774   2.268  0.00  0.00    +0.046 A 
ATOM     11  C   UNL     1      -1.611 -11.559   3.068  0.00  0.00    +0.122 A 
ATOM     12  C   UNL     1      -1.588 -10.567   4.035  0.00  0.00    +0.069 A 
BRANCH  11  13
ATOM     13  O   UNL     1      -2.722 -12.325   2.905  0.00  0.00    -0.495 OA
ATOM     14  C   UNL     1      -2.674 -13.332   1.893  0.00  0.00    +0.277 C 
ENDBRANCH  11  13
ENDBRANCH   5   7
BRANCH   1  15
ATOM     15  S   UNL     1      -0.229  -6.677   3.345  0.00  0.00    -0.079 S 
BRANCH  15  16
ATOM     16  C   UNL     1      -0.133  -4.898   3.685  0.00  0.00    +0.173 C 
BRANCH  16  18
ATOM     17  N   UNL     1       0.046  -2.797   2.392  0.00  0.00    -0.285 N 
ATOM     18  C   UNL     1      -0.037  -4.142   2.385  0.00  0.00    +0.227 C 
ATOM     19  O   UNL     1      -0.034  -4.744   1.332  0.00  0.00    -0.275 OA
ATOM     20  H   UNL     1       0.124  -2.320   3.233  0.00  0.00    +0.155 HD
BRANCH  17  26
ATOM     21  C   UNL     1       1.195   1.237  -0.173  0.00  0.00    +0.044 C 
ATOM     22  C   UNL     1       0.567  -0.130  -0.085  0.00  0.00    -0.046 A 
ATOM     23  C   UNL     1      -0.037  -0.685  -1.198  0.00  0.00    +0.004 A 
ATOM     24  C   UNL     1      -0.614  -1.940  -1.122  0.00  0.00    +0.002 A 
ATOM     25  C   UNL     1      -0.588  -2.642   0.067  0.00  0.00    +0.023 A 
ATOM     26  C   UNL     1       0.018  -2.088   1.186  0.00  0.00    +0.037 A 
ATOM     27  C   UNL     1       0.601  -0.830   1.105  0.00  0.00    -0.026 A 
ATOM     28  C   UNL     1       1.266  -0.227   2.316  0.00  0.00    +0.046 C 
ENDBRANCH  17  26
ENDBRANCH  16  18
ENDBRANCH  15  16
ENDBRANCH   1  15
BRANCH   4  29
ATOM     29  C   UNL     1       0.703  -9.782   7.123  0.00  0.00    +0.097 C 
BRANCH  29  30
ATOM     30  C   UNL     1       0.592  -9.975   8.613  0.00  0.00    +0.029 A 
ATOM     31  N   UNL     1       1.059  -9.013   9.467  0.00  0.00    -0.311 N 
ATOM     32  C   UNL     1       0.965  -9.175  10.800  0.00  0.00    +0.327 A 
ATOM     33  O   UNL     1       1.386  -8.307  11.540  0.00  0.00    -0.247 OA
ATOM     34  N   UNL     1       0.411 -10.284  11.324  0.00  0.00    -0.275 N 
ATOM     35  C   UNL     1      -0.060 -11.255  10.516  0.00  0.00    +0.254 A 
ATOM     36  O   UNL     1      -0.561 -12.259  10.990  0.00  0.00    -0.268 OA
ATOM     37  C   UNL     1       0.028 -11.095   9.113  0.00  0.00    +0.091 A 
ATOM     38  H   UNL     1       0.351 -10.385  12.287  0.00  0.00    +0.173 HD
ATOM     39  H   UNL     1       1.461  -8.206   9.109  0.00  0.00    +0.170 HD
ENDBRANCH  29  30
ENDBRANCH   4  29
TORSDOF 8
