REMARK  Name = ZINC04368315
REMARK  8 active torsions:
REMARK  status: ('A' for Active; 'I' for Inactive)
REMARK    1  A    between atoms: C_1  and  C_2
REMARK    2  A    between atoms: C_2  and  O_3
REMARK    3  A    between atoms: O_3  and  C_4
REMARK    4  A    between atoms: C_7  and  C_11
REMARK    5  A    between atoms: C_11  and  S_12
REMARK    6  A    between atoms: S_12  and  C_13
REMARK    7  A    between atoms: C_13  and  C_14
REMARK    8  A    between atoms: C_14  and  N_15
REMARK                            x       y       z     vdW  Elec       q    Type
REMARK                         _______ _______ _______ _____ _____    ______ ____
ROOT
ATOM      1  N   UNL     1      -5.459   5.553  -2.346  0.00  0.00    -0.357 N 
ATOM      2  C   UNL     1      -6.179   5.920  -3.458  0.00  0.00    +0.175 C 
ATOM      3  N   UNL     1      -7.448   6.443  -3.315  0.00  0.00    -0.301 N 
ATOM      4  C   UNL     1      -7.950   6.701  -2.057  0.00  0.00    +0.173 C 
ATOM      5  N   UNL     1      -9.163   7.334  -1.917  0.00  0.00    -0.371 N 
ATOM      6  H   UNL     1      -5.807   5.736  -1.460  0.00  0.00    +0.162 HD
ATOM      7  H   UNL     1      -6.066   6.067  -5.485  0.00  0.00    +0.159 HD
ATOM      8  H   UNL     1      -7.987   6.630  -4.100  0.00  0.00    +0.171 HD
ATOM      9  H   UNL     1      -7.545   6.482  -0.073  0.00  0.00    +0.159 HD
ATOM     10  H   UNL     1      -9.665   7.599  -2.703  0.00  0.00    +0.159 HD
ATOM     11  H   UNL     1      -9.516   7.515  -1.032  0.00  0.00    +0.159 HD
ATOM     12  N   UNL     1      -5.603   5.742  -4.636  0.00  0.00    -0.371 N 
ATOM     13  H   UNL     1      -4.689   5.276  -4.695  0.00  0.00    +0.159 HD
ATOM     14  N   UNL     1      -7.217   6.314  -1.024  0.00  0.00    -0.371 N 
ATOM     15  H   UNL     1      -6.317   5.845  -1.181  0.00  0.00    +0.159 HD
ENDROOT
BRANCH   1  16
ATOM     16  C   UNL     1      -4.165   4.884  -2.501  0.00  0.00    +0.126 C 
BRANCH  16  17
ATOM     17  C   UNL     1      -3.576   4.586  -1.120  0.00  0.00    +0.090 C 
BRANCH  17  18
ATOM     18  S   UNL     1      -1.974   3.757  -1.311  0.00  0.00    -0.154 S 
BRANCH  18  19
ATOM     19  C   UNL     1      -1.419   3.477   0.393  0.00  0.00    +0.104 C 
BRANCH  19  23
ATOM     20  C   UNL     1       2.378   1.516   0.349  0.00  0.00    +0.139 A 
ATOM     21  C   UNL     1       1.210   0.768   0.360  0.00  0.00    +0.047 A 
ATOM     22  C   UNL     1      -0.016   1.405   0.369  0.00  0.00    +0.008 A 
ATOM     23  C   UNL     1      -0.080   2.786   0.377  0.00  0.00    -0.036 A 
ATOM     24  C   UNL     1       1.083   3.534   0.366  0.00  0.00    +0.028 A 
ATOM     25  C   UNL     1       2.313   2.902   0.352  0.00  0.00    +0.083 A 
ATOM     26 CL   UNL     1       3.772   3.841   0.337  0.00  0.00    -0.080 Cl
BRANCH  20  27
ATOM     27  O   UNL     1       3.586   0.891   0.334  0.00  0.00    -0.491 OA
BRANCH  27  29
ATOM     28  C   UNL     1       5.017  -1.056   0.314  0.00  0.00    +0.048 C 
ATOM     29  C   UNL     1       3.577  -0.538   0.332  0.00  0.00    +0.226 C 
ENDBRANCH  27  29
ENDBRANCH  20  27
ENDBRANCH  19  23
ENDBRANCH  18  19
ENDBRANCH  17  18
ENDBRANCH  16  17
ENDBRANCH   1  16
TORSDOF 7
