REMARK  Name = ZINC35920119
REMARK  6 active torsions:
REMARK  status: ('A' for Active; 'I' for Inactive)
REMARK    1  A    between atoms: C_1  and  C_2
REMARK    2  A    between atoms: C_5  and  N_8
REMARK    3  A    between atoms: C_16  and  O_27
REMARK    4  A    between atoms: N_23  and  C_26
REMARK    5  A    between atoms: O_27  and  C_28
REMARK    6  A    between atoms: C_32  and  C_34
REMARK                            x       y       z     vdW  Elec       q    Type
REMARK                         _______ _______ _______ _____ _____    ______ ____
ROOT
ATOM      1  N   UNL     1      -1.815  -6.017   1.508  0.00  0.00    -0.269 N 
ATOM      2  C   UNL     1      -0.545  -5.830   1.919  0.00  0.00    +0.307 C 
ATOM      3  O   UNL     1      -0.326  -5.308   2.995  0.00  0.00    -0.252 OA
ATOM      4  N   UNL     1       0.481  -6.222   1.138  0.00  0.00    -0.280 N 
ATOM      5  C   UNL     1       1.873  -6.149   1.611  0.00  0.00    +0.116 C 
ATOM      6  C   UNL     1       2.423  -7.574   1.686  0.00  0.00    +0.075 C 
ATOM      7  C   UNL     1       2.104  -8.335   0.428  0.00  0.00    +0.056 A 
ATOM      8  C   UNL     1       1.103  -7.963  -0.437  0.00  0.00    +0.053 A 
ATOM      9  C   UNL     1       0.871  -8.743  -1.573  0.00  0.00    +0.230 A 
ATOM     10  N   UNL     1       1.626  -9.813  -1.788  0.00  0.00    -0.179 NA
ATOM     11  C   UNL     1       2.588 -10.137  -0.938  0.00  0.00    +0.221 A 
ATOM     12  N   UNL     1       2.825  -9.418   0.147  0.00  0.00    -0.219 NA
ATOM     13  N   UNL     1       3.364 -11.254  -1.190  0.00  0.00    -0.303 N 
ATOM     14  C   UNL     1       4.371 -11.711  -0.219  0.00  0.00    +0.089 C 
ATOM     15  C   UNL     1       4.159 -13.207   0.033  0.00  0.00    -0.060 C 
ATOM     16  N   UNL     1       4.182 -13.926  -1.246  0.00  0.00    +0.380 N 
ATOM     17  C   UNL     1       3.049 -13.502  -2.079  0.00  0.00    -0.060 C 
ATOM     18  C   UNL     1       3.202 -12.023  -2.433  0.00  0.00    +0.089 C 
ATOM     19  C   UNL     1       4.089 -15.371  -0.996  0.00  0.00    -0.096 C 
ATOM     20  C   UNL     1       0.254  -6.744  -0.215  0.00  0.00    +0.151 C 
ATOM     21  H   UNL     1      -1.992  -6.500   0.685  0.00  0.00    +0.156 HD
ATOM     22  H   UNL     1       5.045 -13.726  -1.728  0.00  0.00    -0.082 HD
ENDROOT
BRANCH   1  27
ATOM     23  C   UNL     1      -6.124  -3.982   4.586  0.00  0.00    +0.044 C 
ATOM     24  C   UNL     1      -4.980  -4.523   3.768  0.00  0.00    -0.050 A 
ATOM     25  C   UNL     1      -5.072  -4.556   2.389  0.00  0.00    +0.005 A 
ATOM     26  C   UNL     1      -4.025  -5.050   1.637  0.00  0.00    +0.023 A 
ATOM     27  C   UNL     1      -2.878  -5.515   2.267  0.00  0.00    +0.035 A 
ATOM     28  C   UNL     1      -2.788  -5.481   3.652  0.00  0.00    +0.023 A 
ATOM     29  C   UNL     1      -3.837  -4.980   4.399  0.00  0.00    +0.005 A 
ENDBRANCH   1  27
BRANCH   9  30
ATOM     30  O   UNL     1      -0.113  -8.412  -2.443  0.00  0.00    -0.438 OA
BRANCH  30  31
ATOM     31  C   UNL     1      -0.270  -9.182  -3.553  0.00  0.00    +0.131 A 
ATOM     32  C   UNL     1      -1.089 -10.301  -3.511  0.00  0.00    +0.049 A 
ATOM     33  C   UNL     1      -1.248 -11.082  -4.639  0.00  0.00    +0.042 A 
ATOM     34  C   UNL     1      -0.589 -10.749  -5.811  0.00  0.00    +0.127 A 
ATOM     35  C   UNL     1       0.229  -9.633  -5.854  0.00  0.00    -0.012 A 
ATOM     36  C   UNL     1       0.385  -8.846  -4.728  0.00  0.00    +0.052 A 
ATOM     37  C   UNL     1       0.945  -9.272  -7.130  0.00  0.00    +0.047 C 
ATOM     38  F   UNL     1      -0.744 -11.514  -6.914  0.00  0.00    -0.205 F 
ENDBRANCH  30  31
ENDBRANCH   9  30
TORSDOF 3
