REMARK  Name = ZINC43262384
REMARK  8 active torsions:
REMARK  status: ('A' for Active; 'I' for Inactive)
REMARK    1  A    between atoms: C_1  and  C_2
REMARK    2  A    between atoms: C_2  and  C_4
REMARK    3  A    between atoms: C_2  and  N_21
REMARK    4  A    between atoms: C_4  and  C_6
REMARK    5  A    between atoms: C_4  and  N_12
REMARK    6  A    between atoms: N_12  and  C_13
REMARK    7  A    between atoms: N_12  and  C_14
REMARK    8  A    between atoms: C_14  and  C_15
REMARK                            x       y       z     vdW  Elec       q    Type
REMARK                         _______ _______ _______ _____ _____    ______ ____
ROOT
ATOM      1  C   UNL     1       0.780  -0.421   1.213  0.00  0.00    +0.079 C 
ENDROOT
BRANCH   1   2
ATOM      2  C   UNL     1       0.784  -1.917   1.028  0.00  0.00    +0.006 A 
ATOM      3  C   UNL     1       1.787  -2.720   0.597  0.00  0.00    +0.014 A 
ATOM      4  C   UNL     1       1.563  -4.082   0.504  0.00  0.00    +0.023 A 
ATOM      5  C   UNL     1       0.346  -4.572   0.848  0.00  0.00    +0.055 A 
ATOM      6  S   UNL     1      -0.527  -3.091   1.327  0.00  0.00    -0.085 S 
ATOM      7 BR   UNL     1      -0.265  -6.362   0.830  0.00  0.00    -0.043 Br
ENDBRANCH   1   2
BRANCH   1   9
ATOM      8  C   UNL     1      -0.276   1.716   0.467  0.00  0.00    -0.012 C 
ATOM      9  C   UNL     1      -0.162   0.216   0.190  0.00  0.00    -0.056 C 
BRANCH   9  10
ATOM     10  N   UNL     1       0.372   0.007  -1.163  0.00  0.00    +0.381 N 
ATOM     11  H   UNL     1      -0.249   0.428  -1.838  0.00  0.00    -0.090 HD
ATOM     12  H   UNL     1       1.284   0.433  -1.234  0.00  0.00    -0.090 HD
ATOM     13  H   UNL     1       0.447  -0.982  -1.346  0.00  0.00    -0.090 HD
ENDBRANCH   9  10
ENDBRANCH   1   9
BRANCH   1  14
ATOM     14  N   UNL     1       0.320  -0.097   2.570  0.00  0.00    -0.295 NA
ATOM     15  C   UNL     1       1.273  -0.579   3.579  0.00  0.00    +0.105 C 
BRANCH  14  16
ATOM     16  C   UNL     1      -1.023  -0.640   2.814  0.00  0.00    +0.127 C 
BRANCH  16  17
ATOM     17  C   UNL     1      -1.625   0.033   4.021  0.00  0.00    +0.005 A 
ATOM     18  C   UNL     1      -2.384   1.155   4.083  0.00  0.00    +0.027 A 
ATOM     19  C   UNL     1      -2.832   1.593   5.315  0.00  0.00    +0.025 A 
ATOM     20  C   UNL     1      -2.500   0.888   6.425  0.00  0.00    +0.060 A 
ATOM     21  S   UNL     1      -1.531  -0.445   5.739  0.00  0.00    -0.099 S 
ATOM     22 BR   UNL     1      -3.893   3.153   5.451  0.00  0.00    -0.050 Br
ENDBRANCH  16  17
ENDBRANCH  14  16
ENDBRANCH   1  14
TORSDOF 6
