REMARK  Name = ZINC39687315
REMARK  8 active torsions:
REMARK  status: ('A' for Active; 'I' for Inactive)
REMARK    1  A    between atoms: C_1  and  C_2
REMARK    2  A    between atoms: C_6  and  C_8
REMARK    3  A    between atoms: C_8  and  C_9
REMARK    4  A    between atoms: C_13  and  C_22
REMARK    5  A    between atoms: N_24  and  C_25
REMARK    6  A    between atoms: C_25  and  C_27
REMARK    7  A    between atoms: C_25  and  C_34
REMARK    8  A    between atoms: C_27  and  C_28
REMARK                            x       y       z     vdW  Elec       q    Type
REMARK                         _______ _______ _______ _____ _____    ______ ____
ROOT
ATOM      1  C   UNL     1       1.317  -3.223   2.210  0.00  0.00    +0.220 C 
ATOM      2  O   UNL     1       2.219  -2.838   1.497  0.00  0.00    -0.275 OA
ATOM      3  N   UNL     1       1.590  -3.732   3.428  0.00  0.00    -0.300 N 
ATOM      4  C   UNL     1       0.632  -4.254   4.431  0.00  0.00    +0.121 C 
ATOM      5  C   UNL     1       1.333  -5.493   5.032  0.00  0.00    +0.100 C 
ATOM      6  C   UNL     1       2.833  -5.251   4.792  0.00  0.00    -0.004 C 
ATOM      7  C   UNL     1       2.919  -3.901   4.064  0.00  0.00    +0.115 C 
ATOM      8  C   UNL     1       3.412  -6.355   3.913  0.00  0.00    -0.010 C 
ATOM      9  C   UNL     1       4.916  -6.123   3.735  0.00  0.00    -0.082 C 
ATOM     10  N   UNL     1       5.571  -6.121   5.049  0.00  0.00    +0.379 N 
ATOM     11  C   UNL     1       5.074  -5.000   5.855  0.00  0.00    -0.082 C 
ATOM     12  C   UNL     1       3.577  -5.183   6.122  0.00  0.00    -0.010 C 
ATOM     13  H   UNL     1       5.371  -6.989   5.524  0.00  0.00    -0.086 HD
ATOM     14  H   UNL     1       6.568  -6.029   4.926  0.00  0.00    -0.086 HD
ENDROOT
BRANCH   5  15
ATOM     15  C   UNL     1       0.882  -6.745   4.325  0.00  0.00    +0.219 C 
ATOM     16  O   UNL     1       0.601  -6.709   3.146  0.00  0.00    -0.275 OA
ATOM     17  N   UNL     1       0.791  -7.906   5.004  0.00  0.00    -0.303 N 
ATOM     18  H   UNL     1       1.016  -7.936   5.947  0.00  0.00    +0.149 HD
BRANCH  17  19
ATOM     19  C   UNL     1       0.352  -9.124   4.318  0.00  0.00    +0.163 C 
BRANCH  19  20
ATOM     20  C   UNL     1      -1.153  -9.180   4.306  0.00  0.00    +0.236 C 
ATOM     21  O   UNL     1      -1.790  -8.527   5.106  0.00  0.00    -0.274 OA
ATOM     22  N   UNL     1      -1.792  -9.955   3.408  0.00  0.00    -0.300 N 
ATOM     23  C   UNL     1      -1.041 -10.673   2.370  0.00  0.00    +0.108 C 
ATOM     24  C   UNL     1      -1.413 -12.157   2.428  0.00  0.00    +0.019 C 
ATOM     25  C   UNL     1      -2.933 -12.303   2.318  0.00  0.00    +0.003 C 
ATOM     26  C   UNL     1      -3.602 -11.590   3.496  0.00  0.00    +0.019 C 
ATOM     27  C   UNL     1      -3.253 -10.104   3.453  0.00  0.00    +0.108 C 
ENDBRANCH  19  20
BRANCH  19  28
ATOM     28  C   UNL     1       0.903 -10.349   5.051  0.00  0.00    +0.067 C 
BRANCH  28  29
ATOM     29  C   UNL     1       2.407 -10.359   4.954  0.00  0.00    -0.045 A 
ATOM     30  C   UNL     1       3.027 -10.995   3.895  0.00  0.00    +0.004 A 
ATOM     31  C   UNL     1       4.407 -11.004   3.806  0.00  0.00    +0.000 A 
ATOM     32  C   UNL     1       5.165 -10.376   4.776  0.00  0.00    +0.000 A 
ATOM     33  C   UNL     1       4.545  -9.740   5.835  0.00  0.00    +0.000 A 
ATOM     34  C   UNL     1       3.166  -9.727   5.921  0.00  0.00    +0.004 A 
ENDBRANCH  28  29
ENDBRANCH  19  28
ENDBRANCH  17  19
ENDBRANCH   5  15
BRANCH   1  35
ATOM     35  C   UNL     1      -0.111  -3.132   1.735  0.00  0.00    +0.131 C 
BRANCH  35  41
ATOM     36  C   UNL     1      -0.392   0.881  -1.242  0.00  0.00    +0.044 C 
ATOM     37  C   UNL     1      -0.278  -0.612  -1.071  0.00  0.00    -0.050 A 
ATOM     38  C   UNL     1      -0.203  -1.431  -2.182  0.00  0.00    +0.003 A 
ATOM     39  C   UNL     1      -0.098  -2.800  -2.026  0.00  0.00    +0.001 A 
ATOM     40  C   UNL     1      -0.068  -3.351  -0.758  0.00  0.00    +0.004 A 
ATOM     41  C   UNL     1      -0.143  -2.532   0.353  0.00  0.00    -0.038 A 
ATOM     42  C   UNL     1      -0.243  -1.162   0.197  0.00  0.00    +0.007 A 
ENDBRANCH  35  41
ENDBRANCH   1  35
TORSDOF 7
