REMARK  Name = ZINC09446685
REMARK  3 active torsions:
REMARK  status: ('A' for Active; 'I' for Inactive)
REMARK    1  A    between atoms: C_6  and  N_7
REMARK    2  A    between atoms: N_19  and  C_20
REMARK    3  A    between atoms: C_20  and  C_22
REMARK                            x       y       z     vdW  Elec       q    Type
REMARK                         _______ _______ _______ _____ _____    ______ ____
ROOT
ATOM      1  N   UNL     1       5.459   5.168   1.227  0.00  0.00    -0.276 N 
ATOM      2  C   UNL     1       6.874   5.368   1.462  0.00  0.00    +0.116 C 
ATOM      3  C   UNL     1       7.546   6.670   1.005  0.00  0.00    +0.190 C 
ATOM      4  S   UNL     1       9.309   6.118   0.877  0.00  0.00    -0.028 S 
ATOM      5  O   UNL     1       9.774   6.352  -0.445  0.00  0.00    -0.174 OA
ATOM      6  O   UNL     1      10.040   6.640   1.978  0.00  0.00    -0.174 OA
ATOM      7  C   UNL     1       9.065   4.292   1.121  0.00  0.00    +0.182 C 
ATOM      8  C   UNL     1       7.623   4.231   0.673  0.00  0.00    +0.097 C 
ATOM      9  S   UNL     1       6.556   2.879   1.232  0.00  0.00    -0.086 S 
ATOM     10  C   UNL     1       5.035   3.844   1.262  0.00  0.00    +0.154 C 
ATOM     11  N   UNL     1       3.787   3.392   1.312  0.00  0.00    -0.159 NA
ENDROOT
BRANCH   1  17
ATOM     12  C   UNL     1       3.983   6.364  -0.264  0.00  0.00    +0.026 A 
ATOM     13  C   UNL     1       3.117   7.413  -0.505  0.00  0.00    +0.041 A 
ATOM     14  C   UNL     1       2.847   8.333   0.494  0.00  0.00    +0.142 A 
ATOM     15  C   UNL     1       3.445   8.203   1.738  0.00  0.00    +0.078 A 
ATOM     16  C   UNL     1       4.307   7.151   1.984  0.00  0.00    +0.046 A 
ATOM     17  C   UNL     1       4.582   6.231   0.981  0.00  0.00    +0.037 A 
ATOM     18 CL   UNL     1       3.105   9.358   2.989  0.00  0.00    -0.081 Cl
ATOM     19  F   UNL     1       2.000   9.358   0.257  0.00  0.00    -0.204 F 
ENDBRANCH   1  17
BRANCH  11  20
ATOM     20  C   UNL     1       3.554   2.082   1.341  0.00  0.00    +0.241 C 
ATOM     21  O   UNL     1       4.484   1.299   1.320  0.00  0.00    -0.273 OA
BRANCH  20  22
ATOM     22  C   UNL     1       2.138   1.570   1.398  0.00  0.00    +0.077 C 
ATOM     23  C   UNL     1       1.370   2.055   0.167  0.00  0.00    +0.013 C 
ATOM     24  C   UNL     1      -0.068   1.535   0.225  0.00  0.00    +0.001 C 
ATOM     25  C   UNL     1      -0.056   0.005   0.248  0.00  0.00    +0.000 C 
ATOM     26  C   UNL     1       0.712  -0.481   1.479  0.00  0.00    +0.001 C 
ATOM     27  C   UNL     1       2.150   0.040   1.421  0.00  0.00    +0.013 C 
ENDBRANCH  20  22
ENDBRANCH  11  20
TORSDOF 3
