REMARK  Name = ZINC47770017
REMARK  12 active torsions:
REMARK  status: ('A' for Active; 'I' for Inactive)
REMARK    1  A    between atoms: C_1  and  C_2
REMARK    2  A    between atoms: C_2  and  C_3
REMARK    3  A    between atoms: C_2  and  O_4
REMARK    4  A    between atoms: O_4  and  C_5
REMARK    5  A    between atoms: C_5  and  C_6
REMARK    6  A    between atoms: C_6  and  C_7
REMARK    7  A    between atoms: C_7  and  N_8
REMARK    8  A    between atoms: C_9  and  C_11
REMARK    9  A    between atoms: N_14  and  C_17
REMARK   10  A    between atoms: C_17  and  C_18
REMARK   11  A    between atoms: C_17  and  C_19
REMARK   12  A    between atoms: N_24  and  C_25
REMARK                            x       y       z     vdW  Elec       q    Type
REMARK                         _______ _______ _______ _____ _____    ______ ____
ROOT
ATOM      1  C   UNL     1       6.033  -1.982  -6.698  0.00  0.00    +0.071 C 
ATOM      2  C   UNL     1       5.509  -3.377  -7.048  0.00  0.00    -0.006 C 
ATOM      3  C   UNL     1       6.627  -4.184  -7.712  0.00  0.00    -0.077 C 
ATOM      4  N   UNL     1       7.763  -4.303  -6.790  0.00  0.00    +0.387 N 
ATOM      5  C   UNL     1       8.316  -2.974  -6.506  0.00  0.00    -0.077 C 
ATOM      6  C   UNL     1       7.263  -2.120  -5.796  0.00  0.00    -0.006 C 
ATOM      7  H   UNL     1       7.453  -4.728  -5.929  0.00  0.00    -0.081 HD
ENDROOT
BRANCH   1   9
ATOM      8  N   UNL     1       3.782  -0.963  -6.578  0.00  0.00    -0.315 N 
ATOM      9  C   UNL     1       4.961  -1.208  -5.974  0.00  0.00    +0.216 C 
ATOM     10  O   UNL     1       5.160  -0.807  -4.847  0.00  0.00    -0.276 OA
ATOM     11  H   UNL     1       3.623  -1.284  -7.480  0.00  0.00    +0.149 HD
BRANCH   8  12
ATOM     12  C   UNL     1       2.740  -0.211  -5.874  0.00  0.00    +0.106 C 
BRANCH  12  13
ATOM     13  C   UNL     1       1.513  -0.073  -6.777  0.00  0.00    +0.047 C 
BRANCH  13  14
ATOM     14  C   UNL     1       0.425   0.712  -6.041  0.00  0.00    +0.161 C 
BRANCH  14  15
ATOM     15  O   UNL     1      -0.722   0.840  -6.884  0.00  0.00    -0.377 OA
BRANCH  15  17
ATOM     16  C   UNL     1      -1.659   3.051  -6.609  0.00  0.00    +0.037 C 
ATOM     17  C   UNL     1      -1.803   1.562  -6.290  0.00  0.00    +0.112 C 
ATOM     18  C   UNL     1      -3.130   1.045  -6.849  0.00  0.00    +0.037 C 
ENDBRANCH  15  17
ENDBRANCH  14  15
ENDBRANCH  13  14
ENDBRANCH  12  13
ENDBRANCH   8  12
ENDBRANCH   1   9
BRANCH   4  19
ATOM     19  C   UNL     1       8.802  -5.144  -7.401  0.00  0.00    +0.017 C 
ATOM     20  C   UNL     1      10.009  -5.223  -6.465  0.00  0.00    -0.004 C 
BRANCH  19  21
ATOM     21  C   UNL     1       8.255  -6.528  -7.634  0.00  0.00    +0.207 C 
ATOM     22  O   UNL     1       7.363  -6.954  -6.932  0.00  0.00    -0.277 OA
ATOM     23  N   UNL     1       8.758  -7.294  -8.623  0.00  0.00    -0.242 N 
ATOM     24  C   UNL     1       8.268  -8.532  -8.831  0.00  0.00    +0.306 C 
ATOM     25  O   UNL     1       7.374  -8.959  -8.128  0.00  0.00    -0.252 OA
ATOM     26  N   UNL     1       8.771  -9.298  -9.820  0.00  0.00    -0.296 N 
ATOM     27  H   UNL     1       9.471  -6.953  -9.184  0.00  0.00    +0.159 HD
ATOM     28  H   UNL     1       9.485  -8.957 -10.382  0.00  0.00    +0.151 HD
BRANCH  26  29
ATOM     29  C   UNL     1       8.240 -10.644 -10.047  0.00  0.00    +0.075 C 
ATOM     30  C   UNL     1       9.246 -11.766 -10.307  0.00  0.00    +0.024 C 
ATOM     31  C   UNL     1       8.382 -11.232 -11.452  0.00  0.00    +0.024 C 
ENDBRANCH  26  29
ENDBRANCH  19  21
ENDBRANCH   4  19
TORSDOF 9
