REMARK  Name = ZINC35230394
REMARK  7 active torsions:
REMARK  status: ('A' for Active; 'I' for Inactive)
REMARK    1  A    between atoms: C_1  and  C_2
REMARK    2  A    between atoms: C_2  and  C_4
REMARK    3  A    between atoms: C_2  and  N_14
REMARK    4  A    between atoms: C_7  and  S_10
REMARK    5  A    between atoms: S_10  and  N_13
REMARK    6  A    between atoms: N_14  and  C_15
REMARK    7  A    between atoms: C_15  and  C_16
REMARK                            x       y       z     vdW  Elec       q    Type
REMARK                         _______ _______ _______ _____ _____    ______ ____
ROOT
ATOM      1  C   UNL     1      -0.019   1.526   0.010  0.00  0.00    -0.009 C 
ATOM      2  C   UNL     1       0.002  -0.004   0.002  0.00  0.00    -0.044 C 
ENDROOT
BRANCH   2   3
ATOM      3  C   UNL     1      -1.412  -0.526   0.013  0.00  0.00    -0.062 A 
ATOM      4  C   UNL     1      -2.123  -0.571   1.197  0.00  0.00    +0.004 A 
ATOM      5  C   UNL     1      -3.420  -1.049   1.207  0.00  0.00    +0.029 A 
ATOM      6  C   UNL     1      -4.006  -1.482   0.032  0.00  0.00    +0.105 A 
ATOM      7  C   UNL     1      -3.295  -1.436  -1.153  0.00  0.00    +0.029 A 
ATOM      8  C   UNL     1      -2.000  -0.954  -1.163  0.00  0.00    +0.004 A 
BRANCH   6   9
ATOM      9  S   UNL     1      -5.658  -2.093   0.045  0.00  0.00    +0.056 S 
ATOM     10  O   UNL     1      -5.785  -2.944  -1.086  0.00  0.00    -0.153 OA
ATOM     11  O   UNL     1      -5.915  -2.542   1.369  0.00  0.00    -0.153 OA
BRANCH   9  12
ATOM     12  N   UNL     1      -6.660  -0.801  -0.219  0.00  0.00    -0.204 NA
ATOM     13  H   UNL     1      -6.286   0.085  -0.345  0.00  0.00    +0.144 HD
ATOM     14  H   UNL     1      -7.621  -0.931  -0.249  0.00  0.00    +0.144 HD
ENDBRANCH   9  12
ENDBRANCH   6   9
ENDBRANCH   2   3
BRANCH   2  15
ATOM     15  N   UNL     1       0.713  -0.491   1.192  0.00  0.00    +0.386 N 
ATOM     16  H   UNL     1       0.290  -0.099   2.020  0.00  0.00    -0.085 HD
ATOM     17  H   UNL     1       0.655  -1.497   1.230  0.00  0.00    -0.085 HD
BRANCH  15  18
ATOM     18  C   UNL     1       2.122  -0.083   1.122  0.00  0.00    -0.045 C 
BRANCH  18  19
ATOM     19  C   UNL     1       2.851  -0.582   2.343  0.00  0.00    -0.050 A 
ATOM     20  C   UNL     1       3.094   0.274   3.401  0.00  0.00    +0.003 A 
ATOM     21  C   UNL     1       3.763  -0.184   4.521  0.00  0.00    +0.000 A 
ATOM     22  C   UNL     1       4.188  -1.498   4.584  0.00  0.00    +0.001 A 
ATOM     23  C   UNL     1       3.944  -2.354   3.527  0.00  0.00    +0.015 A 
ATOM     24  C   UNL     1       3.271  -1.898   2.408  0.00  0.00    +0.019 A 
ATOM     25 BR   UNL     1       2.932  -3.071   0.964  0.00  0.00    -0.050 Br
ENDBRANCH  18  19
ENDBRANCH  15  18
ENDBRANCH   2  15
TORSDOF 6
