REMARK  Name = ZINC33032941
REMARK  9 active torsions:
REMARK  status: ('A' for Active; 'I' for Inactive)
REMARK    1  A    between atoms: C_1  and  C_2
REMARK    2  A    between atoms: C_2  and  N_3
REMARK    3  A    between atoms: N_3  and  C_4
REMARK    4  A    between atoms: C_4  and  C_5
REMARK    5  A    between atoms: C_6  and  C_8
REMARK    6  A    between atoms: C_11  and  N_25
REMARK    7  A    between atoms: C_12  and  N_14
REMARK    8  A    between atoms: N_14  and  S_15
REMARK    9  A    between atoms: S_15  and  C_18
REMARK                            x       y       z     vdW  Elec       q    Type
REMARK                         _______ _______ _______ _____ _____    ______ ____
ROOT
ATOM      1  C   UNL     1      -0.319   5.463   2.960  0.00  0.00    +0.039 A 
ATOM      2  C   UNL     1       0.007   4.653   4.050  0.00  0.00    +0.015 A 
ATOM      3  C   UNL     1      -0.863   3.667   4.461  0.00  0.00    +0.026 A 
ATOM      4  C   UNL     1      -2.069   3.478   3.797  0.00  0.00    +0.052 A 
ATOM      5  C   UNL     1      -2.399   4.282   2.702  0.00  0.00    +0.070 A 
ATOM      6  C   UNL     1      -1.529   5.272   2.286  0.00  0.00    +0.039 A 
ENDROOT
BRANCH   4   7
ATOM      7  N   UNL     1      -2.948   2.484   4.220  0.00  0.00    -0.332 N 
ATOM      8  C   UNL     1      -2.309   1.600   5.205  0.00  0.00    +0.086 C 
ATOM      9  C   UNL     1      -3.279   0.478   5.583  0.00  0.00    -0.063 C 
ATOM     10  N   UNL     1      -4.512   1.062   6.127  0.00  0.00    +0.381 N 
ATOM     11  C   UNL     1      -5.151   1.946   5.142  0.00  0.00    -0.063 C 
ATOM     12  C   UNL     1      -4.182   3.068   4.764  0.00  0.00    +0.086 C 
ATOM     13  H   UNL     1      -5.215   0.257   6.388  0.00  0.00    -0.086 HD
ATOM     14  H   UNL     1      -4.275   1.648   7.027  0.00  0.00    -0.086 HD
ENDBRANCH   4   7
BRANCH   1  16
ATOM     15  N   UNL     1       1.435   7.107   3.412  0.00  0.00    -0.298 N 
ATOM     16  C   UNL     1       0.612   6.520   2.520  0.00  0.00    +0.247 C 
ATOM     17  O   UNL     1       0.638   6.861   1.353  0.00  0.00    -0.270 OA
BRANCH  15  19
ATOM     18  C   UNL     1       1.812   9.507   3.135  0.00  0.00    +0.024 C 
ATOM     19  C   UNL     1       2.406   8.108   2.964  0.00  0.00    +0.104 C 
ENDBRANCH  15  19
BRANCH  15  20
ATOM     20  C   UNL     1       1.358   6.744   4.829  0.00  0.00    +0.104 C 
ATOM     21  C   UNL     1       2.587   5.917   5.211  0.00  0.00    +0.024 C 
ENDBRANCH  15  20
ENDBRANCH   1  16
BRANCH   5  22
ATOM     22  N   UNL     1      -3.612   4.088   2.030  0.00  0.00    -0.214 N 
ATOM     23  H   UNL     1      -4.564   4.199   2.570  0.00  0.00    +0.174 HD
BRANCH  22  24
ATOM     24  S   UNL     1      -3.614   3.690   0.423  0.00  0.00    +0.072 S 
ATOM     25  O   UNL     1      -2.789   4.644  -0.233  0.00  0.00    -0.150 OA
ATOM     26  O   UNL     1      -4.971   3.478   0.058  0.00  0.00    -0.150 OA
BRANCH  24  27
ATOM     27  C   UNL     1      -2.803   2.133   0.270  0.00  0.00    +0.109 A 
ATOM     28  C   UNL     1      -1.436   2.083   0.065  0.00  0.00    +0.030 A 
ATOM     29  C   UNL     1      -0.800   0.862  -0.060  0.00  0.00    +0.017 A 
ATOM     30  C   UNL     1      -1.531  -0.309   0.020  0.00  0.00    +0.018 A 
ATOM     31  C   UNL     1      -2.898  -0.259   0.225  0.00  0.00    +0.017 A 
ATOM     32  C   UNL     1      -3.533   0.962   0.350  0.00  0.00    +0.030 A 
ATOM     33 BR   UNL     1      -0.661  -1.980  -0.151  0.00  0.00    -0.050 Br
ENDBRANCH  24  27
ENDBRANCH  22  24
ENDBRANCH   5  22
TORSDOF 7
