REMARK  Name = ZINC36264765
REMARK  4 active torsions:
REMARK  status: ('A' for Active; 'I' for Inactive)
REMARK    1  A    between atoms: C_6  and  S_7
REMARK    2  A    between atoms: S_7  and  N_10
REMARK    3  A    between atoms: N_10  and  C_11
REMARK    4  A    between atoms: C_14  and  N_16
REMARK                            x       y       z     vdW  Elec       q    Type
REMARK                         _______ _______ _______ _____ _____    ______ ____
ROOT
ATOM      1  S   UNL     1      -1.512  -0.905   0.012  0.00  0.00    +0.059 S 
ATOM      2  O   UNL     1      -1.220  -2.186   0.553  0.00  0.00    -0.153 OA
ATOM      3  O   UNL     1      -2.493  -0.045   0.577  0.00  0.00    -0.153 OA
ENDROOT
BRANCH   1   9
ATOM      4  C   UNL     1      -0.017   1.378   0.010  0.00  0.00    +0.031 A 
ATOM      5  C   UNL     1       1.170   2.087   0.002  0.00  0.00    +0.043 A 
ATOM      6  C   UNL     1       2.379   1.413  -0.013  0.00  0.00    +0.159 A 
ATOM      7  C   UNL     1       2.397   0.026  -0.021  0.00  0.00    +0.160 A 
ATOM      8  C   UNL     1       1.208  -0.680  -0.013  0.00  0.00    +0.069 A 
ATOM      9  C   UNL     1       0.002  -0.004   0.002  0.00  0.00    +0.108 A 
ATOM     10  F   UNL     1       3.576  -0.634  -0.036  0.00  0.00    -0.202 F 
ATOM     11  F   UNL     1       3.539   2.105  -0.021  0.00  0.00    -0.202 F 
ENDBRANCH   1   9
BRANCH   1  12
ATOM     12  N   UNL     1      -1.948  -1.147  -1.567  0.00  0.00    -0.189 NA
ATOM     13  H   UNL     1      -2.756  -0.737  -1.916  0.00  0.00    +0.148 HD
BRANCH  12  14
ATOM     14  C   UNL     1      -1.115  -1.979  -2.438  0.00  0.00    +0.061 C 
ATOM     15  C   UNL     1      -1.030  -1.592  -3.916  0.00  0.00    +0.004 C 
ATOM     16  C   UNL     1      -1.825  -2.830  -3.493  0.00  0.00    -0.055 C 
BRANCH  16  17
ATOM     17  N   UNL     1      -1.248  -4.145  -3.804  0.00  0.00    +0.381 N 
ATOM     18  H   UNL     1      -1.234  -4.712  -2.970  0.00  0.00    -0.090 HD
ATOM     19  H   UNL     1      -1.808  -4.599  -4.510  0.00  0.00    -0.090 HD
ATOM     20  H   UNL     1      -0.306  -4.027  -4.147  0.00  0.00    -0.090 HD
ENDBRANCH  16  17
ENDBRANCH  12  14
ENDBRANCH   1  12
TORSDOF 4
