REMARK  Name = ZINC67384104
REMARK  9 active torsions:
REMARK  status: ('A' for Active; 'I' for Inactive)
REMARK    1  A    between atoms: C_1  and  C_2
REMARK    2  A    between atoms: C_6  and  C_8
REMARK    3  A    between atoms: N_10  and  N_11
REMARK    4  A    between atoms: N_14  and  C_15
REMARK    5  A    between atoms: C_15  and  C_16
REMARK    6  A    between atoms: C_16  and  C_18
REMARK    7  A    between atoms: C_16  and  N_25
REMARK    8  A    between atoms: N_25  and  C_26
REMARK    9  A    between atoms: N_25  and  C_27
REMARK                            x       y       z     vdW  Elec       q    Type
REMARK                         _______ _______ _______ _____ _____    ______ ____
ROOT
ATOM      1  N   UNL     1       0.715  -5.215   3.724  0.00  0.00    -0.218 N 
ATOM      2  C   UNL     1       0.522  -6.547   3.655  0.00  0.00    +0.316 C 
ATOM      3  O   UNL     1       0.455  -7.205   4.676  0.00  0.00    -0.251 OA
ATOM      4  N   UNL     1       0.402  -7.150   2.456  0.00  0.00    -0.299 N 
ATOM      5  H   UNL     1       0.801  -4.781   4.588  0.00  0.00    +0.174 HD
ATOM      6  H   UNL     1       0.456  -6.625   1.642  0.00  0.00    +0.150 HD
ENDROOT
BRANCH   1   9
ATOM      7  C   UNL     1       0.985  -3.125   2.618  0.00  0.00    +0.260 C 
ATOM      8  O   UNL     1       1.093  -2.581   3.700  0.00  0.00    -0.269 OA
ATOM      9  N   UNL     1       0.792  -4.457   2.549  0.00  0.00    -0.229 N 
ATOM     10  H   UNL     1       0.706  -4.890   1.685  0.00  0.00    +0.173 HD
BRANCH   7  16
ATOM     11  C   UNL     1       1.556   1.286   0.355  0.00  0.00    +0.044 C 
ATOM     12  C   UNL     1       1.341  -0.204   0.284  0.00  0.00    -0.050 A 
ATOM     13  C   UNL     1       1.218  -0.825  -0.946  0.00  0.00    +0.003 A 
ATOM     14  C   UNL     1       1.020  -2.192  -1.021  0.00  0.00    +0.001 A 
ATOM     15  C   UNL     1       0.943  -2.945   0.133  0.00  0.00    +0.013 A 
ATOM     16  C   UNL     1       1.067  -2.324   1.377  0.00  0.00    +0.038 A 
ATOM     17  C   UNL     1       1.272  -0.945   1.445  0.00  0.00    +0.016 A 
ENDBRANCH   7  16
ENDBRANCH   1   9
BRANCH   4  18
ATOM     18  C   UNL     1       0.192  -8.598   2.381  0.00  0.00    +0.095 C 
BRANCH  18  19
ATOM     19  C   UNL     1      -0.036  -9.005   0.924  0.00  0.00    -0.020 C 
BRANCH  19  20
ATOM     20  C   UNL     1       1.221  -8.758   0.131  0.00  0.00    -0.041 A 
ATOM     21  C   UNL     1       1.378  -7.573  -0.565  0.00  0.00    +0.003 A 
ATOM     22  C   UNL     1       2.531  -7.346  -1.293  0.00  0.00    +0.000 A 
ATOM     23  C   UNL     1       3.528  -8.303  -1.326  0.00  0.00    +0.001 A 
ATOM     24  C   UNL     1       3.373  -9.488  -0.631  0.00  0.00    +0.020 A 
ATOM     25  C   UNL     1       2.221  -9.713   0.103  0.00  0.00    +0.043 A 
ATOM     26 CL   UNL     1       2.028 -11.198   0.981  0.00  0.00    -0.083 Cl
ENDBRANCH  19  20
BRANCH  19  27
ATOM     27  N   UNL     1      -1.135  -8.211   0.360  0.00  0.00    +0.382 N 
ATOM     28  C   UNL     1      -1.383  -8.633  -1.025  0.00  0.00    -0.096 C 
ATOM     29  C   UNL     1      -2.350  -8.418   1.160  0.00  0.00    -0.096 C 
ATOM     30  H   UNL     1      -0.886  -7.234   0.374  0.00  0.00    -0.082 HD
ENDBRANCH  19  27
ENDBRANCH  18  19
ENDBRANCH   4  18
TORSDOF 6
