REMARK  Name = ZINC64590490
REMARK  8 active torsions:
REMARK  status: ('A' for Active; 'I' for Inactive)
REMARK    1  A    between atoms: C_1  and  O_2
REMARK    2  A    between atoms: O_2  and  C_3
REMARK    3  A    between atoms: C_10  and  C_11
REMARK    4  A    between atoms: C_11  and  C_12
REMARK    5  A    between atoms: C_12  and  N_13
REMARK    6  A    between atoms: C_14  and  C_16
REMARK    7  A    between atoms: C_19  and  C_21
REMARK    8  A    between atoms: C_21  and  N_22
REMARK                            x       y       z     vdW  Elec       q    Type
REMARK                         _______ _______ _______ _____ _____    ______ ____
ROOT
ATOM      1  C   UNL     1       2.712   4.884  -7.757  0.00  0.00    +0.189 A 
ATOM      2  C   UNL     1       2.434   5.370  -9.002  0.00  0.00    +0.055 A 
ATOM      3  C   UNL     1       2.706   6.747  -8.968  0.00  0.00    +0.047 A 
ATOM      4  C   UNL     1       3.134   7.037  -7.720  0.00  0.00    +0.126 A 
ATOM      5  O   UNL     1       3.131   5.913  -6.991  0.00  0.00    -0.453 OA
ENDROOT
BRANCH   1   7
ATOM      6  N   UNL     1       2.879   3.142  -6.059  0.00  0.00    -0.309 N 
ATOM      7  C   UNL     1       2.574   3.490  -7.325  0.00  0.00    +0.279 C 
ATOM      8  O   UNL     1       2.184   2.646  -8.111  0.00  0.00    -0.267 OA
ATOM      9  H   UNL     1       3.190   3.815  -5.434  0.00  0.00    +0.149 HD
BRANCH   6  10
ATOM     10  C   UNL     1       2.741   1.749  -5.629  0.00  0.00    +0.109 C 
BRANCH  10  11
ATOM     11  C   UNL     1       3.149   1.627  -4.159  0.00  0.00    +0.052 C 
BRANCH  11  18
ATOM     12  C   UNL     1       0.606  -0.607  -1.056  0.00  0.00    +0.117 C 
ATOM     13  C   UNL     1       1.145   0.164  -2.013  0.00  0.00    +0.032 C 
ATOM     14  C   UNL     1       1.765  -0.492  -3.212  0.00  0.00    +0.091 C 
ATOM     15  C   UNL     1       2.266  -1.859  -2.778  0.00  0.00    +0.052 C 
ATOM     16  N   UNL     1       3.493  -1.940  -3.185  0.00  0.00    -0.259 NA
ATOM     17  C   UNL     1       3.958  -0.774  -3.671  0.00  0.00    +0.111 C 
ATOM     18  C   UNL     1       3.007   0.193  -3.716  0.00  0.00    -0.037 C 
ATOM     19  C   UNL     1       1.500  -2.707  -1.951  0.00  0.00    +0.028 C 
ATOM     20  C   UNL     1       0.646  -2.069  -1.100  0.00  0.00    +0.047 C 
BRANCH  12  22
ATOM     21  C   UNL     1      -0.017   1.425   0.010  0.00  0.00    +0.277 C 
ATOM     22  O   UNL     1       0.002  -0.004   0.002  0.00  0.00    -0.495 OA
ENDBRANCH  12  22
ENDBRANCH  11  18
ENDBRANCH  10  11
ENDBRANCH   6  10
ENDBRANCH   1   7
BRANCH   4  23
ATOM     23  C   UNL     1       3.541   8.402  -7.226  0.00  0.00    +0.201 C 
BRANCH  23  24
ATOM     24  N   UNL     1       2.371   9.093  -6.679  0.00  0.00    -0.283 N 
ATOM     25  C   UNL     1       1.582   9.877  -7.512  0.00  0.00    +0.161 A 
ATOM     26  C   UNL     1       0.464  10.542  -7.006  0.00  0.00    +0.090 A 
ATOM     27  C   UNL     1      -0.310  11.320  -7.858  0.00  0.00    +0.031 A 
ATOM     28  C   UNL     1       0.063  11.407  -9.192  0.00  0.00    +0.022 A 
ATOM     29  C   UNL     1       1.182  10.723  -9.625  0.00  0.00    +0.113 A 
ATOM     30  N   UNL     1       1.899   9.991  -8.795  0.00  0.00    -0.236 NA
ATOM     31  N   UNL     1       0.121  10.430  -5.656  0.00  0.00    -0.309 N 
ATOM     32  C   UNL     1      -0.890  10.959  -4.923  0.00  0.00    +0.092 A 
ATOM     33  C   UNL     1      -0.772  10.536  -3.641  0.00  0.00    +0.020 A 
ATOM     34  C   UNL     1       0.354   9.711  -3.562  0.00  0.00    +0.033 A 
ATOM     35  C   UNL     1       0.901   9.653  -4.824  0.00  0.00    +0.112 A 
ATOM     36  C   UNL     1       2.067   8.957  -5.373  0.00  0.00    +0.277 A 
ATOM     37  O   UNL     1       2.761   8.264  -4.652  0.00  0.00    -0.265 OA
ENDBRANCH  23  24
ENDBRANCH   4  23
TORSDOF 7
