REMARK  Name = ZINC67472011
REMARK  9 active torsions:
REMARK  status: ('A' for Active; 'I' for Inactive)
REMARK    1  A    between atoms: C_1  and  C_2
REMARK    2  A    between atoms: C_2  and  C_4
REMARK    3  A    between atoms: C_2  and  N_11
REMARK    4  A    between atoms: N_11  and  C_12
REMARK    5  A    between atoms: C_12  and  C_14
REMARK    6  A    between atoms: C_12  and  C_15
REMARK    7  A    between atoms: N_17  and  C_18
REMARK    8  A    between atoms: C_21  and  S_24
REMARK    9  A    between atoms: S_24  and  N_27
REMARK                            x       y       z     vdW  Elec       q    Type
REMARK                         _______ _______ _______ _____ _____    ______ ____
ROOT
ATOM      1  C   UNL     1       2.936  -1.316   1.806  0.00  0.00    +0.234 C 
ATOM      2  O   UNL     1       2.304  -2.032   2.554  0.00  0.00    -0.274 OA
ATOM      3  N   UNL     1       4.278  -1.421   1.748  0.00  0.00    -0.284 N 
ATOM      4  H   UNL     1       4.790  -0.796   1.210  0.00  0.00    +0.155 HD
ENDROOT
BRANCH   3   5
ATOM      5  C   UNL     1       4.933  -2.430   2.462  0.00  0.00    +0.034 A 
ATOM      6  C   UNL     1       6.181  -2.189   3.020  0.00  0.00    +0.025 A 
ATOM      7  C   UNL     1       6.825  -3.187   3.724  0.00  0.00    +0.030 A 
ATOM      8  C   UNL     1       6.228  -4.426   3.874  0.00  0.00    +0.105 A 
ATOM      9  C   UNL     1       4.985  -4.669   3.319  0.00  0.00    +0.030 A 
ATOM     10  C   UNL     1       4.333  -3.673   2.619  0.00  0.00    +0.025 A 
BRANCH   8  11
ATOM     11  S   UNL     1       7.053  -5.697   4.774  0.00  0.00    +0.056 S 
ATOM     12  O   UNL     1       6.528  -6.931   4.306  0.00  0.00    -0.153 OA
ATOM     13  O   UNL     1       8.440  -5.392   4.727  0.00  0.00    -0.153 OA
BRANCH  11  14
ATOM     14  N   UNL     1       6.591  -5.555   6.357  0.00  0.00    -0.204 NA
ATOM     15  H   UNL     1       5.971  -4.857   6.621  0.00  0.00    +0.144 HD
ATOM     16  H   UNL     1       6.939  -6.170   7.021  0.00  0.00    +0.144 HD
ENDBRANCH  11  14
ENDBRANCH   8  11
ENDBRANCH   3   5
BRANCH   1  17
ATOM     17  C   UNL     1       2.220  -0.309   0.943  0.00  0.00    +0.138 C 
ATOM     18  C   UNL     1       2.715   1.098   1.283  0.00  0.00    +0.034 C 
BRANCH  17  19
ATOM     19  N   UNL     1       0.774  -0.393   1.190  0.00  0.00    -0.299 NA
ATOM     20  H   UNL     1       0.508   0.178   1.979  0.00  0.00    +0.123 HD
BRANCH  19  22
ATOM     21  C   UNL     1      -1.326   0.595   0.406  0.00  0.00    +0.029 C 
ATOM     22  C   UNL     1       0.013  -0.019  -0.010  0.00  0.00    +0.081 C 
BRANCH  22  23
ATOM     23  C   UNL     1      -0.237  -1.246  -0.849  0.00  0.00    -0.031 A 
ATOM     24  C   UNL     1      -0.564  -2.443  -0.241  0.00  0.00    +0.006 A 
ATOM     25  C   UNL     1      -0.793  -3.569  -1.010  0.00  0.00    +0.020 A 
ATOM     26  C   UNL     1      -0.694  -3.497  -2.388  0.00  0.00    +0.041 A 
ATOM     27  C   UNL     1      -0.366  -2.298  -2.996  0.00  0.00    +0.020 A 
ATOM     28  C   UNL     1      -0.143  -1.172  -2.226  0.00  0.00    +0.006 A 
ATOM     29 CL   UNL     1      -0.981  -4.910  -3.354  0.00  0.00    -0.084 Cl
ENDBRANCH  22  23
ENDBRANCH  19  22
ENDBRANCH  17  19
ENDBRANCH   1  17
TORSDOF 7
