REMARK  Name = ZINC32086340
REMARK  8 active torsions:
REMARK  status: ('A' for Active; 'I' for Inactive)
REMARK    1  A    between atoms: C_1  and  C_2
REMARK    2  A    between atoms: C_2  and  N_3
REMARK    3  A    between atoms: N_3  and  C_4
REMARK    4  A    between atoms: N_3  and  C_6
REMARK    5  A    between atoms: C_4  and  C_5
REMARK    6  A    between atoms: C_6  and  C_8
REMARK    7  A    between atoms: C_6  and  C_10
REMARK    8  A    between atoms: C_8  and  N_9
REMARK                            x       y       z     vdW  Elec       q    Type
REMARK                         _______ _______ _______ _____ _____    ______ ____
ROOT
ATOM      1  C   UNL     1       0.089  -0.203   2.507  0.00  0.00    -0.052 C 
ENDROOT
BRANCH   1   2
ATOM      2  C   UNL     1      -0.291  -1.242   1.484  0.00  0.00    -0.014 A 
ATOM      3  C   UNL     1      -0.271  -2.582   1.819  0.00  0.00    +0.025 A 
ATOM      4  C   UNL     1      -0.620  -3.536   0.880  0.00  0.00    +0.042 A 
ATOM      5  C   UNL     1      -0.989  -3.151  -0.397  0.00  0.00    +0.039 A 
ATOM      6  C   UNL     1      -1.016  -1.812  -0.734  0.00  0.00    +0.066 A 
ATOM      7  C   UNL     1      -0.661  -0.853   0.205  0.00  0.00    +0.194 A 
ATOM      8  O   UNL     1      -0.681   0.465  -0.127  0.00  0.00    -0.287 OA
ATOM      9 BR   UNL     1      -1.529  -1.285  -2.477  0.00  0.00    -0.046 Br
ATOM     10 CL   UNL     1      -0.594  -5.220   1.304  0.00  0.00    -0.083 Cl
ENDBRANCH   1   2
BRANCH   1  11
ATOM     11  N   UNL     1       0.784  -0.850   3.627  0.00  0.00    +0.383 N 
ATOM     12  H   UNL     1       1.256  -0.062   4.233  0.00  0.00    -0.081 HD
BRANCH  11  14
ATOM     13  C   UNL     1       0.595  -2.213   5.653  0.00  0.00    -0.017 C 
ATOM     14  C   UNL     1      -0.162  -1.575   4.486  0.00  0.00    -0.082 C 
ENDBRANCH  11  14
BRANCH  11  15
ATOM     15  C   UNL     1       1.846  -1.742   3.143  0.00  0.00    -0.082 C 
ATOM     16  C   UNL     1       3.076  -0.914   2.765  0.00  0.00    -0.017 C 
ENDBRANCH  11  15
ENDBRANCH   1  11
BRANCH   1  17
ATOM     17  C   UNL     1      -1.174   0.490   3.023  0.00  0.00    -0.097 C 
BRANCH  17  18
ATOM     18  N   UNL     1      -0.818   1.406   4.115  0.00  0.00    +0.377 N 
ATOM     19  H   UNL     1      -1.726   1.904   4.486  0.00  0.00    -0.090 HD
ATOM     20  H   UNL     1      -0.111   2.162   3.744  0.00  0.00    -0.090 HD
ATOM     21  H   UNL     1      -0.352   0.837   4.933  0.00  0.00    -0.090 HD
ENDBRANCH  17  18
ENDBRANCH   1  17
TORSDOF 6
