REMARK  Name = ZINC36075062
REMARK  13 active torsions:
REMARK  status: ('A' for Active; 'I' for Inactive)
REMARK    1  A    between atoms: C_1  and  C_2
REMARK    2  A    between atoms: C_7  and  N_12
REMARK    3  A    between atoms: C_9  and  C_11
REMARK    4  A    between atoms: N_12  and  C_13
REMARK    5  A    between atoms: C_13  and  C_14
REMARK    6  A    between atoms: N_16  and  C_17
REMARK    7  A    between atoms: C_20  and  N_36
REMARK    8  A    between atoms: C_22  and  C_23
REMARK    9  A    between atoms: N_25  and  C_26
REMARK   10  A    between atoms: C_28  and  O_34
REMARK   11  A    between atoms: C_30  and  O_32
REMARK   12  A    between atoms: O_32  and  C_33
REMARK   13  A    between atoms: O_34  and  C_35
REMARK                            x       y       z     vdW  Elec       q    Type
REMARK                         _______ _______ _______ _____ _____    ______ ____
ROOT
ATOM      1  C   UNL     1       1.086  -0.611   8.441  0.00  0.00    +0.046 A 
ATOM      2  C   UNL     1       2.174  -1.453   8.254  0.00  0.00    +0.026 A 
ATOM      3  C   UNL     1       2.835  -1.981   9.344  0.00  0.00    +0.034 A 
ATOM      4  C   UNL     1       2.421  -1.676  10.631  0.00  0.00    +0.127 A 
ATOM      5  C   UNL     1       1.344  -0.842  10.836  0.00  0.00    +0.047 A 
ATOM      6  C   UNL     1       0.668  -0.295   9.742  0.00  0.00    +0.060 A 
ENDROOT
BRANCH   1   9
ATOM      7  C   UNL     1       1.062   0.070   6.167  0.00  0.00    +0.200 C 
ATOM      8  O   UNL     1       2.249  -0.166   6.093  0.00  0.00    -0.278 OA
ATOM      9  N   UNL     1       0.417  -0.077   7.342  0.00  0.00    -0.286 N 
ATOM     10  H   UNL     1      -0.512   0.190   7.422  0.00  0.00    +0.155 HD
BRANCH   7  11
ATOM     11  C   UNL     1       0.306   0.526   4.945  0.00  0.00    +0.016 C 
BRANCH  11  12
ATOM     12  N   UNL     1       1.226   0.606   3.803  0.00  0.00    +0.387 N 
ATOM     13  H   UNL     1       1.627  -0.304   3.630  0.00  0.00    -0.085 HD
ATOM     14  H   UNL     1       1.962   1.265   4.008  0.00  0.00    -0.085 HD
BRANCH  12  20
ATOM     15  C   UNL     1      -0.011   3.037   0.517  0.00  0.00    +0.008 C 
ATOM     16  C   UNL     1       0.701   1.717   0.213  0.00  0.00    -0.013 C 
ATOM     17  C   UNL     1      -0.333   0.657  -0.173  0.00  0.00    +0.003 C 
ATOM     18  C   UNL     1      -1.312   0.454   0.986  0.00  0.00    -0.001 C 
ATOM     19  C   UNL     1      -0.545  -0.010   2.226  0.00  0.00    -0.015 C 
ATOM     20  C   UNL     1       0.489   1.050   2.612  0.00  0.00    -0.068 C 
ATOM     21  C   UNL     1       1.468   1.254   1.453  0.00  0.00    -0.025 C 
ATOM     22  C   UNL     1       2.502   2.313   1.839  0.00  0.00    +0.006 C 
ENDBRANCH  12  20
ENDBRANCH  11  12
ENDBRANCH   7  11
ENDBRANCH   1   9
BRANCH   6  23
ATOM     23  C   UNL     1      -0.482   0.604   9.954  0.00  0.00    +0.250 C 
ATOM     24  O   UNL     1      -1.126   1.002   9.003  0.00  0.00    -0.270 OA
ATOM     25  N   UNL     1      -0.819   0.984  11.203  0.00  0.00    -0.281 N 
ATOM     26  H   UNL     1      -0.359   0.602  11.967  0.00  0.00    +0.155 HD
BRANCH  25  27
ATOM     27  C   UNL     1      -1.832   1.928  11.397  0.00  0.00    +0.041 A 
ATOM     28  C   UNL     1      -2.546   1.946  12.587  0.00  0.00    +0.069 A 
ATOM     29  C   UNL     1      -3.549   2.883  12.779  0.00  0.00    +0.125 A 
ATOM     30  C   UNL     1      -3.840   3.803  11.782  0.00  0.00    +0.091 A 
ATOM     31  C   UNL     1      -3.127   3.785  10.592  0.00  0.00    +0.125 A 
ATOM     32  C   UNL     1      -2.120   2.852  10.401  0.00  0.00    +0.069 A 
BRANCH  31  33
ATOM     33  O   UNL     1      -3.413   4.686   9.616  0.00  0.00    -0.495 OA
ATOM     34  C   UNL     1      -4.460   5.622   9.883  0.00  0.00    +0.277 C 
ENDBRANCH  31  33
BRANCH  29  35
ATOM     35  O   UNL     1      -4.249   2.901  13.944  0.00  0.00    -0.495 OA
ATOM     36  C   UNL     1      -5.269   3.893  14.073  0.00  0.00    +0.277 C 
ENDBRANCH  29  35
ENDBRANCH  25  27
ENDBRANCH   6  23
BRANCH   4  37
ATOM     37  N   UNL     1       3.140  -2.249  11.791  0.00  0.00    +0.056 N 
ATOM     38  O   UNL     1       4.085  -2.982  11.615  0.00  0.00    -0.126 OA
ATOM     39  O   UNL     1       2.781  -1.985  12.915  0.00  0.00    -0.126 OA
ENDBRANCH   4  37
TORSDOF 9
