REMARK  Name = ZINC02791367
REMARK  13 active torsions:
REMARK  status: ('A' for Active; 'I' for Inactive)
REMARK    1  A    between atoms: C_1  and  C_2
REMARK    2  A    between atoms: C_2  and  C_3
REMARK    3  A    between atoms: C_2  and  C_4
REMARK    4  A    between atoms: C_7  and  C_10
REMARK    5  A    between atoms: C_13  and  C_32
REMARK    6  A    between atoms: C_18  and  C_20
REMARK    7  A    between atoms: C_23  and  S_30
REMARK    8  A    between atoms: N_24  and  C_25
REMARK    9  A    between atoms: C_25  and  C_26
REMARK   10  A    between atoms: C_26  and  C_27
REMARK   11  A    between atoms: C_27  and  N_64
REMARK   12  A    between atoms: C_28  and  N_64
REMARK   13  A    between atoms: C_29  and  N_64
REMARK                            x       y       z     vdW  Elec       q    Type
REMARK                         _______ _______ _______ _____ _____    ______ ____
ROOT
ATOM      1  C   UNL     1       2.485   0.241   0.277  0.00  0.00    +0.104 C 
ATOM      2  C   UNL     1       1.373  -0.479  -0.494  0.00  0.00    +0.063 C 
ATOM      3  C   UNL     1       0.002  -0.004   0.002  0.00  0.00    +0.215 C 
ATOM      4  N   UNL     1      -0.018   1.461   0.010  0.00  0.00    -0.238 N 
ATOM      5  C   UNL     1       1.108   2.235   0.004  0.00  0.00    +0.119 A 
ATOM      6  C   UNL     1       0.728   3.528   0.010  0.00  0.00    +0.076 A 
ATOM      7  C   UNL     1      -0.684   3.558   0.024  0.00  0.00    +0.132 A 
ATOM      8  N   UNL     1      -1.122   2.312   0.019  0.00  0.00    -0.166 NA
ATOM      9  N   UNL     1       2.393   1.687  -0.007  0.00  0.00    -0.322 N 
ATOM     10  H   UNL     1       3.179   2.224  -0.190  0.00  0.00    +0.148 HD
ENDROOT
BRANCH   1  14
ATOM     11  C   UNL     1       1.991  -0.431   4.467  0.00  0.00    -0.045 A 
ATOM     12  C   UNL     1       2.915  -1.171   3.752  0.00  0.00    +0.004 A 
ATOM     13  C   UNL     1       3.075  -0.953   2.397  0.00  0.00    +0.006 A 
ATOM     14  C   UNL     1       2.311   0.004   1.755  0.00  0.00    -0.027 A 
ATOM     15  C   UNL     1       1.391   0.747   2.471  0.00  0.00    +0.006 A 
ATOM     16  C   UNL     1       1.227   0.526   3.826  0.00  0.00    +0.004 A 
BRANCH  11  18
ATOM     17  C   UNL     1       2.124   0.622   6.708  0.00  0.00    +0.012 C 
ATOM     18  C   UNL     1       1.817  -0.669   5.945  0.00  0.00    +0.013 C 
ATOM     19  C   UNL     1       0.376  -1.097   6.226  0.00  0.00    +0.012 C 
ENDBRANCH  11  18
ENDBRANCH   1  14
BRANCH   7  20
ATOM     20  C   UNL     1      -1.526   4.774   0.035  0.00  0.00    +0.185 A 
ATOM     21  N   UNL     1      -1.102   6.016   0.035  0.00  0.00    -0.127 NA
ATOM     22  N   UNL     1      -2.103   6.822   0.046  0.00  0.00    -0.122 NA
ATOM     23  C   UNL     1      -3.228   6.143   0.055  0.00  0.00    +0.189 A 
ATOM     24  N   UNL     1      -2.901   4.817   0.043  0.00  0.00    -0.301 N 
BRANCH  23  25
ATOM     25  S   UNL     1      -4.856   6.817   0.072  0.00  0.00    -0.103 S 
ATOM     26  H   UNL     1      -5.095   6.915  -1.314  0.00  0.00    +0.110 HD
ENDBRANCH  23  25
BRANCH  24  27
ATOM     27  C   UNL     1      -3.821   3.677   0.041  0.00  0.00    +0.124 C 
BRANCH  27  28
ATOM     28  C   UNL     1      -4.134   3.272   1.483  0.00  0.00    +0.003 C 
BRANCH  28  29
ATOM     29  C   UNL     1      -5.096   2.083   1.482  0.00  0.00    -0.078 C 
BRANCH  29  32
ATOM     30  C   UNL     1      -6.492   0.717   2.913  0.00  0.00    -0.097 C 
ATOM     31  C   UNL     1      -4.199   1.174   3.539  0.00  0.00    -0.097 C 
ATOM     32  N   UNL     1      -5.405   1.718   2.880  0.00  0.00    +0.376 N 
ATOM     33  H   UNL     1      -5.711   2.558   3.385  0.00  0.00    -0.083 HD
ENDBRANCH  29  32
ENDBRANCH  28  29
ENDBRANCH  27  28
ENDBRANCH  24  27
ENDBRANCH   7  20
BRANCH   3  34
ATOM     34  C   UNL     1      -1.090  -0.526  -0.933  0.00  0.00    +0.412 C 
ATOM     35  F   UNL     1      -0.862  -0.051  -2.229  0.00  0.00    -0.168 F 
ATOM     36  F   UNL     1      -1.070  -1.925  -0.939  0.00  0.00    -0.168 F 
ATOM     37  F   UNL     1      -2.339  -0.080  -0.487  0.00  0.00    -0.168 F 
ENDBRANCH   3  34
TORSDOF 9
