REMARK  Name = ZINC39684373
REMARK  10 active torsions:
REMARK  status: ('A' for Active; 'I' for Inactive)
REMARK    1  A    between atoms: C_1  and  C_2
REMARK    2  A    between atoms: C_2  and  C_4
REMARK    3  A    between atoms: C_2  and  N_8
REMARK    4  A    between atoms: C_4  and  C_5
REMARK    5  A    between atoms: C_4  and  C_6
REMARK    6  A    between atoms: C_4  and  C_7
REMARK    7  A    between atoms: C_9  and  C_11
REMARK    8  A    between atoms: C_22  and  C_24
REMARK    9  A    between atoms: C_24  and  C_25
REMARK   10  A    between atoms: C_25  and  C_26
REMARK                            x       y       z     vdW  Elec       q    Type
REMARK                         _______ _______ _______ _____ _____    ______ ____
ROOT
ATOM      1  C   UNL     1       2.736  -1.073  -2.455  0.00  0.00    +0.100 C 
ATOM      2  C   UNL     1       2.403  -0.160  -3.656  0.00  0.00    +0.121 C 
ATOM      3  N   UNL     1       3.518   0.815  -3.706  0.00  0.00    -0.300 N 
ATOM      4  C   UNL     1       4.723   0.013  -3.386  0.00  0.00    +0.115 C 
ATOM      5  C   UNL     1       4.260  -0.959  -2.283  0.00  0.00    -0.004 C 
ATOM      6  C   UNL     1       4.917  -2.324  -2.472  0.00  0.00    -0.010 C 
ATOM      7  C   UNL     1       6.425  -2.196  -2.239  0.00  0.00    -0.082 C 
ATOM      8  N   UNL     1       6.671  -1.696  -0.881  0.00  0.00    +0.379 N 
ATOM      9  C   UNL     1       6.117  -0.345  -0.737  0.00  0.00    -0.082 C 
ATOM     10  C   UNL     1       4.596  -0.394  -0.907  0.00  0.00    -0.010 C 
ATOM     11  C   UNL     1       3.451   2.133  -3.980  0.00  0.00    +0.216 C 
ATOM     12  O   UNL     1       4.462   2.804  -3.983  0.00  0.00    -0.276 OA
ATOM     13  H   UNL     1       6.232  -2.312  -0.213  0.00  0.00    -0.086 HD
ATOM     14  H   UNL     1       7.665  -1.671  -0.709  0.00  0.00    -0.086 HD
ENDROOT
BRANCH   1  16
ATOM     15  N   UNL     1       1.684  -1.462  -0.251  0.00  0.00    -0.312 N 
ATOM     16  C   UNL     1       2.031  -0.587  -1.215  0.00  0.00    +0.218 C 
ATOM     17  O   UNL     1       1.776   0.592  -1.085  0.00  0.00    -0.275 OA
ATOM     18  H   UNL     1       1.888  -2.405  -0.354  0.00  0.00    +0.149 HD
BRANCH  15  20
ATOM     19  C   UNL     1      -0.507  -0.911   0.688  0.00  0.00    +0.028 C 
ATOM     20  C   UNL     1       0.998  -0.990   0.955  0.00  0.00    +0.075 C 
BRANCH  20  21
ATOM     21  C   UNL     1       1.262  -1.962   2.106  0.00  0.00    -0.020 C 
ATOM     22  C   UNL     1       0.738  -3.350   1.732  0.00  0.00    +0.012 C 
ATOM     23  C   UNL     1       2.766  -2.040   2.373  0.00  0.00    +0.012 C 
ATOM     24  C   UNL     1       0.546  -1.469   3.365  0.00  0.00    +0.012 C 
ENDBRANCH  20  21
ENDBRANCH  15  20
ENDBRANCH   1  16
BRANCH  11  25
ATOM     25  C   UNL     1       2.121   2.773  -4.284  0.00  0.00    +0.096 C 
BRANCH  25  26
ATOM     26  C   UNL     1       2.324   4.264  -4.558  0.00  0.00    +0.013 C 
BRANCH  26  27
ATOM     27  C   UNL     1       0.973   4.914  -4.867  0.00  0.00    -0.011 C 
ATOM     28  C   UNL     1       0.431   4.392  -6.213  0.00  0.00    +0.003 C 
ATOM     29  C   UNL     1      -0.251   5.627  -6.852  0.00  0.00    +0.000 C 
ATOM     30  C   UNL     1       0.699   6.785  -6.457  0.00  0.00    +0.000 C 
ATOM     31  C   UNL     1       1.143   6.436  -5.021  0.00  0.00    +0.003 C 
ENDBRANCH  26  27
ENDBRANCH  25  26
ENDBRANCH  11  25
TORSDOF 6
