REMARK  Name = ZINC34992189
REMARK  9 active torsions:
REMARK  status: ('A' for Active; 'I' for Inactive)
REMARK    1  A    between atoms: C_1  and  C_2
REMARK    2  A    between atoms: C_2  and  O_3
REMARK    3  A    between atoms: O_3  and  C_4
REMARK    4  A    between atoms: C_6  and  C_11
REMARK    5  A    between atoms: C_9  and  O_10
REMARK    6  A    between atoms: C_11  and  N_12
REMARK    7  A    between atoms: N_12  and  C_13
REMARK    8  A    between atoms: C_13  and  C_15
REMARK    9  A    between atoms: C_13  and  C_16
REMARK                            x       y       z     vdW  Elec       q    Type
REMARK                         _______ _______ _______ _____ _____    ______ ____
ROOT
ATOM      1  C   UNL     1       0.654  -4.954  -0.018  0.00  0.00    -0.046 C 
ENDROOT
BRANCH   1   4
ATOM      2  C   UNL     1      -1.498  -1.849   0.006  0.00  0.00    +0.162 A 
ATOM      3  C   UNL     1      -0.389  -2.680  -0.003  0.00  0.00    +0.051 A 
ATOM      4  C   UNL     1      -0.553  -4.052  -0.008  0.00  0.00    -0.061 A 
ATOM      5  C   UNL     1      -1.823  -4.600  -0.005  0.00  0.00    +0.005 A 
ATOM      6  C   UNL     1      -2.934  -3.777   0.004  0.00  0.00    +0.049 A 
ATOM      7  C   UNL     1      -2.776  -2.400   0.016  0.00  0.00    +0.158 A 
BRANCH   7   8
ATOM      8  O   UNL     1      -3.868  -1.589   0.030  0.00  0.00    -0.503 OA
ATOM      9  H   UNL     1      -4.192  -1.350  -0.849  0.00  0.00    +0.292 HD
ENDBRANCH   7   8
BRANCH   2  10
ATOM     10  O   UNL     1      -1.339  -0.499   0.012  0.00  0.00    -0.489 OA
BRANCH  10  12
ATOM     11  C   UNL     1      -0.019   1.526   0.010  0.00  0.00    +0.048 C 
ATOM     12  C   UNL     1       0.002  -0.004   0.002  0.00  0.00    +0.226 C 
ENDBRANCH  10  12
ENDBRANCH   2  10
ENDBRANCH   1   4
BRANCH   1  13
ATOM     13  N   UNL     1       1.053  -5.253   1.363  0.00  0.00    +0.386 N 
ATOM     14  H   UNL     1       1.279  -4.394   1.842  0.00  0.00    -0.085 HD
ATOM     15  H   UNL     1       0.293  -5.714   1.841  0.00  0.00    -0.085 HD
BRANCH  13  16
ATOM     16  C   UNL     1       2.230  -6.132   1.354  0.00  0.00    -0.043 C 
ATOM     17  C   UNL     1       1.853  -7.482   0.740  0.00  0.00    -0.009 C 
BRANCH  16  18
ATOM     18  C   UNL     1       2.714  -6.340   2.766  0.00  0.00    -0.048 A 
ATOM     19  C   UNL     1       1.834  -6.209   3.824  0.00  0.00    +0.003 A 
ATOM     20  C   UNL     1       2.277  -6.400   5.119  0.00  0.00    +0.000 A 
ATOM     21  C   UNL     1       3.601  -6.722   5.357  0.00  0.00    +0.001 A 
ATOM     22  C   UNL     1       4.481  -6.853   4.300  0.00  0.00    +0.015 A 
ATOM     23  C   UNL     1       4.037  -6.667   3.003  0.00  0.00    +0.019 A 
ATOM     24 BR   UNL     1       5.239  -6.853   1.555  0.00  0.00    -0.050 Br
ENDBRANCH  16  18
ENDBRANCH  13  16
ENDBRANCH   1  13
TORSDOF 7
