REMARK  Name = ZINC50341055
REMARK  8 active torsions:
REMARK  status: ('A' for Active; 'I' for Inactive)
REMARK    1  A    between atoms: C_1  and  C_2
REMARK    2  A    between atoms: C_2  and  C_4
REMARK    3  A    between atoms: C_2  and  N_14
REMARK    4  A    between atoms: C_7  and  S_10
REMARK    5  A    between atoms: S_10  and  N_13
REMARK    6  A    between atoms: N_14  and  C_15
REMARK    7  A    between atoms: C_15  and  C_17
REMARK    8  A    between atoms: C_15  and  C_18
REMARK                            x       y       z     vdW  Elec       q    Type
REMARK                         _______ _______ _______ _____ _____    ______ ____
ROOT
ATOM      1  C   UNL     1      -0.241   1.413   0.004  0.00  0.00    -0.009 C 
ATOM      2  C   UNL     1      -0.044  -0.104  -0.003  0.00  0.00    -0.043 C 
ENDROOT
BRANCH   2   3
ATOM      3  C   UNL     1       0.610  -0.520  -1.295  0.00  0.00    -0.062 A 
ATOM      4  C   UNL     1       1.976  -0.382  -1.454  0.00  0.00    +0.004 A 
ATOM      5  C   UNL     1       2.576  -0.763  -2.640  0.00  0.00    +0.029 A 
ATOM      6  C   UNL     1       1.810  -1.283  -3.666  0.00  0.00    +0.105 A 
ATOM      7  C   UNL     1       0.444  -1.423  -3.506  0.00  0.00    +0.029 A 
ATOM      8  C   UNL     1      -0.155  -1.045  -2.319  0.00  0.00    +0.004 A 
BRANCH   6   9
ATOM      9  S   UNL     1       2.574  -1.768  -5.178  0.00  0.00    +0.056 S 
ATOM     10  O   UNL     1       1.566  -1.716  -6.178  0.00  0.00    -0.153 OA
ATOM     11  O   UNL     1       3.784  -1.030  -5.277  0.00  0.00    -0.153 OA
BRANCH   9  12
ATOM     12  N   UNL     1       3.003  -3.360  -5.021  0.00  0.00    -0.204 NA
ATOM     13  H   UNL     1       2.815  -3.834  -4.196  0.00  0.00    +0.144 HD
ATOM     14  H   UNL     1       3.443  -3.819  -5.754  0.00  0.00    +0.144 HD
ENDBRANCH   9  12
ENDBRANCH   6   9
ENDBRANCH   2   3
BRANCH   2  15
ATOM     15  N   UNL     1       0.813  -0.491   1.126  0.00  0.00    +0.388 N 
ATOM     16  H   UNL     1       1.027  -1.475   1.064  0.00  0.00    -0.084 HD
ATOM     17  H   UNL     1       1.669   0.042   1.097  0.00  0.00    -0.084 HD
BRANCH  15  18
ATOM     18  C   UNL     1       0.111  -0.222   2.389  0.00  0.00    -0.043 C 
ATOM     19  C   UNL     1       1.052  -0.495   3.563  0.00  0.00    -0.009 C 
BRANCH  18  20
ATOM     20  C   UNL     1      -1.096  -1.118   2.493  0.00  0.00    -0.055 A 
ATOM     21  C   UNL     1      -2.288  -0.633   2.996  0.00  0.00    +0.009 A 
ATOM     22  C   UNL     1      -3.355  -1.466   3.077  0.00  0.00    +0.045 A 
ATOM     23  S   UNL     1      -2.684  -2.988   2.430  0.00  0.00    -0.105 S 
ATOM     24  C   UNL     1      -1.030  -2.411   2.091  0.00  0.00    +0.047 A 
ENDBRANCH  18  20
ENDBRANCH  15  18
ENDBRANCH   2  15
TORSDOF 6
