REMARK  Name = ZINC22602837
REMARK  10 active torsions:
REMARK  status: ('A' for Active; 'I' for Inactive)
REMARK    1  A    between atoms: C_1  and  C_2
REMARK    2  A    between atoms: C_5  and  C_25
REMARK    3  A    between atoms: C_6  and  N_8
REMARK    4  A    between atoms: N_8  and  C_9
REMARK    5  A    between atoms: C_9  and  N_11
REMARK    6  A    between atoms: N_11  and  N_12
REMARK    7  A    between atoms: C_13  and  C_15
REMARK    8  A    between atoms: C_15  and  C_16
REMARK    9  A    between atoms: C_16  and  N_17
REMARK   10  A    between atoms: C_18  and  C_20
REMARK                            x       y       z     vdW  Elec       q    Type
REMARK                         _______ _______ _______ _____ _____    ______ ____
ROOT
ATOM      1  N   UNL     1       6.084   2.084  -0.021  0.00  0.00    -0.235 N 
ATOM      2  C   UNL     1       4.946   1.362  -0.009  0.00  0.00    +0.231 C 
ATOM      3  O   UNL     1       4.959   0.203  -0.366  0.00  0.00    -0.274 OA
ATOM      4  H   UNL     1       6.072   3.135   0.303  0.00  0.00    +0.173 HD
ENDROOT
BRANCH   1   5
ATOM      5  N   UNL     1       7.283   1.495  -0.444  0.00  0.00    -0.246 N 
ATOM      6  H   UNL     1       7.295   0.443  -0.768  0.00  0.00    +0.172 HD
BRANCH   5   7
ATOM      7  C   UNL     1       8.421   2.216  -0.456  0.00  0.00    +0.151 C 
ATOM      8  S   UNL     1       9.886   1.496  -0.973  0.00  0.00    -0.017 S 
BRANCH   7   9
ATOM      9  N   UNL     1       8.406   3.504  -0.059  0.00  0.00    -0.296 N 
ATOM     10  H   UNL     1       7.452   3.993   0.187  0.00  0.00    +0.154 HD
BRANCH   9  16
ATOM     11  C   UNL     1      13.109   3.708   1.359  0.00  0.00    +0.044 C 
ATOM     12  C   UNL     1      11.900   4.343   0.721  0.00  0.00    -0.049 A 
ATOM     13  C   UNL     1      11.975   5.634   0.232  0.00  0.00    +0.004 A 
ATOM     14  C   UNL     1      10.868   6.220  -0.353  0.00  0.00    +0.005 A 
ATOM     15  C   UNL     1       9.683   5.516  -0.451  0.00  0.00    -0.029 A 
ATOM     16  C   UNL     1       9.605   4.219   0.039  0.00  0.00    +0.036 A 
ATOM     17  C   UNL     1      10.717   3.636   0.631  0.00  0.00    +0.027 A 
ATOM     18  C   UNL     1       8.477   6.156  -1.089  0.00  0.00    +0.045 C 
ENDBRANCH   9  16
ENDBRANCH   7   9
ENDBRANCH   5   7
ENDBRANCH   1   5
BRANCH   2  19
ATOM     19  C   UNL     1       3.657   1.996   0.446  0.00  0.00    +0.116 C 
BRANCH  19  20
ATOM     20  C   UNL     1       2.526   0.969   0.363  0.00  0.00    +0.114 C 
BRANCH  20  21
ATOM     21  N   UNL     1       1.273   1.585   0.806  0.00  0.00    -0.311 N 
ATOM     22  C   UNL     1       0.135   0.863   0.817  0.00  0.00    +0.245 C 
ATOM     23  O   UNL     1       0.148  -0.299   0.459  0.00  0.00    -0.270 OA
ATOM     24  H   UNL     1       1.261   2.636   1.129  0.00  0.00    +0.149 HD
BRANCH  22  25
ATOM     25  C   UNL     1      -1.126   1.484   1.256  0.00  0.00    +0.044 A 
ATOM     26  C   UNL     1      -2.364   0.745   1.270  0.00  0.00    +0.020 A 
ATOM     27  C   UNL     1      -3.463   1.399   1.694  0.00  0.00    +0.046 A 
ATOM     28  S   UNL     1      -2.845   3.027   2.068  0.00  0.00    -0.104 S 
ATOM     29  C   UNL     1      -1.176   2.800   1.667  0.00  0.00    +0.058 A 
ENDBRANCH  22  25
ENDBRANCH  20  21
ENDBRANCH  19  20
ENDBRANCH   2  19
TORSDOF 8
