REMARK  Name = ZINC43252594
REMARK  8 active torsions:
REMARK  status: ('A' for Active; 'I' for Inactive)
REMARK    1  A    between atoms: C_1  and  C_2
REMARK    2  A    between atoms: C_2  and  C_4
REMARK    3  A    between atoms: C_2  and  N_21
REMARK    4  A    between atoms: C_4  and  C_6
REMARK    5  A    between atoms: C_4  and  N_12
REMARK    6  A    between atoms: N_12  and  C_13
REMARK    7  A    between atoms: N_12  and  C_14
REMARK    8  A    between atoms: C_14  and  C_15
REMARK                            x       y       z     vdW  Elec       q    Type
REMARK                         _______ _______ _______ _____ _____    ______ ____
ROOT
ATOM      1  C   UNL     1      -1.861  -0.485  -0.020  0.00  0.00    +0.079 C 
ENDROOT
BRANCH   1   2
ATOM      2  C   UNL     1      -1.798  -1.970   0.229  0.00  0.00    +0.007 A 
ATOM      3  C   UNL     1      -2.028  -2.653   1.377  0.00  0.00    +0.014 A 
ATOM      4  C   UNL     1      -1.911  -4.030   1.373  0.00  0.00    +0.028 A 
ATOM      5  C   UNL     1      -1.568  -4.657   0.220  0.00  0.00    +0.078 A 
ATOM      6  S   UNL     1      -1.408  -3.286  -0.912  0.00  0.00    -0.080 S 
ATOM      7 CL   UNL     1      -1.349  -6.353  -0.080  0.00  0.00    -0.076 Cl
ENDBRANCH   1   2
BRANCH   1   9
ATOM      8  C   UNL     1      -0.495   1.591  -0.280  0.00  0.00    -0.012 C 
ATOM      9  C   UNL     1      -0.443   0.064  -0.191  0.00  0.00    -0.056 C 
BRANCH   9  10
ATOM     10  N   UNL     1       0.147  -0.478  -1.421  0.00  0.00    +0.381 N 
ATOM     11  H   UNL     1       1.073  -0.097  -1.547  0.00  0.00    -0.090 HD
ATOM     12  H   UNL     1       0.205  -1.484  -1.352  0.00  0.00    -0.090 HD
ATOM     13  H   UNL     1      -0.429  -0.228  -2.210  0.00  0.00    -0.090 HD
ENDBRANCH   9  10
ENDBRANCH   1   9
BRANCH   1  14
ATOM     14  N   UNL     1      -2.636  -0.226  -1.241  0.00  0.00    -0.295 NA
ATOM     15  C   UNL     1      -3.104   1.166  -1.282  0.00  0.00    +0.105 C 
BRANCH  14  16
ATOM     16  C   UNL     1      -3.761  -1.164  -1.359  0.00  0.00    +0.120 C 
BRANCH  16  17
ATOM     17  C   UNL     1      -4.291  -1.138  -2.770  0.00  0.00    -0.030 A 
ATOM     18  C   UNL     1      -5.292  -0.252  -3.136  0.00  0.00    +0.024 A 
ATOM     19  C   UNL     1      -5.753  -0.257  -4.439  0.00  0.00    +0.111 A 
ATOM     20  N   UNL     1      -5.251  -1.092  -5.328  0.00  0.00    -0.263 NA
ATOM     21  C   UNL     1      -4.298  -1.948  -5.016  0.00  0.00    +0.111 A 
ATOM     22  C   UNL     1      -3.784  -1.996  -3.734  0.00  0.00    +0.024 A 
ENDBRANCH  16  17
ENDBRANCH  14  16
ENDBRANCH   1  14
TORSDOF 6
