REMARK  Name = ZINC66967156
REMARK  12 active torsions:
REMARK  status: ('A' for Active; 'I' for Inactive)
REMARK    1  A    between atoms: C_1  and  C_2
REMARK    2  A    between atoms: C_2  and  C_3
REMARK    3  A    between atoms: C_3  and  C_4
REMARK    4  A    between atoms: C_4  and  N_5
REMARK    5  A    between atoms: C_9  and  C_11
REMARK    6  A    between atoms: C_11  and  C_13
REMARK    7  A    between atoms: C_11  and  N_14
REMARK    8  A    between atoms: N_14  and  C_15
REMARK    9  A    between atoms: N_22  and  C_24
REMARK   10  A    between atoms: C_24  and  C_25
REMARK   11  A    between atoms: C_25  and  C_26
REMARK   12  A    between atoms: C_26  and  C_27
REMARK                            x       y       z     vdW  Elec       q    Type
REMARK                         _______ _______ _______ _____ _____    ______ ____
ROOT
ATOM      1  N   UNL     1      -5.902  -7.680   0.017  0.00  0.00    -0.333 N 
ATOM      2  H   UNL     1      -5.137  -8.153  -0.348  0.00  0.00    +0.147 HD
ENDROOT
BRANCH   1   3
ATOM      3  C   UNL     1      -6.984  -8.396   0.535  0.00  0.00    +0.029 A 
ATOM      4  C   UNL     1      -8.082  -7.720   1.053  0.00  0.00    +0.023 A 
ATOM      5  C   UNL     1      -9.150  -8.431   1.564  0.00  0.00    +0.002 A 
ATOM      6  C   UNL     1      -9.127  -9.814   1.561  0.00  0.00    +0.002 A 
ATOM      7  C   UNL     1      -8.037 -10.490   1.046  0.00  0.00    -0.061 A 
ATOM      8  C   UNL     1      -6.966  -9.784   0.528  0.00  0.00    -0.042 A 
ATOM      9  C   UNL     1      -5.937 -10.776   0.037  0.00  0.00    -0.040 C 
ATOM     10  N   UNL     1      -6.284 -12.064   0.679  0.00  0.00    +0.385 N 
ATOM     11  C   UNL     1      -7.739 -11.967   0.914  0.00  0.00    -0.042 C 
ATOM     12  H   UNL     1      -5.798 -12.164   1.558  0.00  0.00    -0.081 HD
BRANCH  10  13
ATOM     13  C   UNL     1      -5.973 -13.187  -0.216  0.00  0.00    -0.078 C 
BRANCH  13  14
ATOM     14  C   UNL     1      -6.224 -14.507   0.516  0.00  0.00    -0.019 C 
BRANCH  14  15
ATOM     15  C   UNL     1      -5.900 -15.676  -0.416  0.00  0.00    -0.005 C 
ATOM     16  C   UNL     1      -6.151 -16.996   0.316  0.00  0.00    +0.004 C 
ENDBRANCH  14  15
ENDBRANCH  13  14
ENDBRANCH  10  13
ENDBRANCH   1   3
BRANCH   1  17
ATOM     17  C   UNL     1      -5.922  -6.215   0.025  0.00  0.00    +0.154 C 
ATOM     18  C   UNL     1      -6.662  -5.708  -1.214  0.00  0.00    +0.038 C 
BRANCH  17  23
ATOM     19  N   UNL     1      -2.787  -2.571   0.015  0.00  0.00    -0.299 N 
ATOM     20  C   UNL     1      -3.015  -3.899   0.010  0.00  0.00    +0.306 C 
ATOM     21  O   UNL     1      -2.081  -4.676  -0.003  0.00  0.00    -0.252 OA
ATOM     22  N   UNL     1      -4.280  -4.365   0.019  0.00  0.00    -0.239 N 
ATOM     23  C   UNL     1      -4.508  -5.694   0.015  0.00  0.00    +0.240 C 
ATOM     24  O   UNL     1      -3.576  -6.469   0.002  0.00  0.00    -0.273 OA
ATOM     25  H   UNL     1      -3.533  -1.950   0.025  0.00  0.00    +0.150 HD
ATOM     26  H   UNL     1      -5.025  -3.745   0.030  0.00  0.00    +0.159 HD
BRANCH  19  27
ATOM     27  C   UNL     1      -1.413  -2.063   0.004  0.00  0.00    +0.106 C 
BRANCH  27  28
ATOM     28  C   UNL     1      -1.433  -0.534   0.013  0.00  0.00    +0.018 C 
BRANCH  28  30
ATOM     29  C   UNL     1      -0.019   1.526   0.010  0.00  0.00    +0.004 C 
ATOM     30  C   UNL     1       0.002  -0.004   0.002  0.00  0.00    -0.002 C 
ENDBRANCH  28  30
ENDBRANCH  27  28
ENDBRANCH  19  27
ENDBRANCH  17  23
ENDBRANCH   1  17
TORSDOF 9
