REMARK  Name = ZINC12042715
REMARK  10 active torsions:
REMARK  status: ('A' for Active; 'I' for Inactive)
REMARK    1  A    between atoms: C_1  and  C_2
REMARK    2  A    between atoms: C_3  and  C_31
REMARK    3  A    between atoms: C_5  and  N_23
REMARK    4  A    between atoms: C_6  and  C_7
REMARK    5  A    between atoms: C_7  and  C_9
REMARK    6  A    between atoms: C_7  and  N_61
REMARK    7  A    between atoms: C_12  and  S_15
REMARK    8  A    between atoms: S_15  and  C_16
REMARK    9  A    between atoms: C_19  and  C_22
REMARK   10  A    between atoms: C_24  and  C_26
REMARK                            x       y       z     vdW  Elec       q    Type
REMARK                         _______ _______ _______ _____ _____    ______ ____
ROOT
ATOM      1  C   UNL     1      -0.929  -5.226  -0.245  0.00  0.00    -0.004 C 
ENDROOT
BRANCH   1   8
ATOM      2  C   UNL     1       1.278  -5.504   0.708  0.00  0.00    -0.077 C 
ATOM      3  C   UNL     1       2.280  -4.904   1.698  0.00  0.00    -0.015 C 
ATOM      4  C   UNL     1       1.704  -4.992   3.115  0.00  0.00    -0.018 C 
ATOM      5  C   UNL     1       0.360  -4.260   3.158  0.00  0.00    -0.015 C 
ATOM      6  C   UNL     1      -0.585  -4.878   2.125  0.00  0.00    -0.077 C 
ATOM      7  C   UNL     1       2.674  -4.340   4.102  0.00  0.00    +0.007 C 
ATOM      8  N   UNL     1       0.015  -4.739   0.781  0.00  0.00    +0.387 N 
ATOM      9  H   UNL     1       0.215  -3.748   0.607  0.00  0.00    -0.080 HD
ENDBRANCH   1   8
BRANCH   1  15
ATOM     10  C   UNL     1      -3.488  -6.603  -0.459  0.00  0.00    +0.045 C 
ATOM     11  C   UNL     1      -3.438  -5.115  -0.224  0.00  0.00    -0.037 A 
ATOM     12  C   UNL     1      -4.582  -4.398  -0.114  0.00  0.00    -0.008 A 
ATOM     13  S   UNL     1      -3.962  -2.745   0.149  0.00  0.00    -0.078 S 
ATOM     14  C   UNL     1      -2.217  -3.118   0.097  0.00  0.00    +0.074 A 
ATOM     15  C   UNL     1      -2.223  -4.463  -0.122  0.00  0.00    -0.025 A 
ATOM     16  C   UNL     1      -6.010  -4.874  -0.194  0.00  0.00    +0.052 C 
BRANCH  14  17
ATOM     17  N   UNL     1      -1.128  -2.254   0.237  0.00  0.00    -0.273 N 
ATOM     18  C   UNL     1      -1.331  -0.925   0.334  0.00  0.00    +0.284 C 
ATOM     19  O   UNL     1      -2.462  -0.478   0.299  0.00  0.00    -0.266 OA
ATOM     20  H   UNL     1      -0.227  -2.611   0.264  0.00  0.00    +0.156 HD
BRANCH  18  21
ATOM     21  C   UNL     1      -0.188  -0.019   0.481  0.00  0.00    +0.189 A 
ATOM     22  C   UNL     1      -0.251   1.341   0.589  0.00  0.00    +0.054 A 
ATOM     23  C   UNL     1       1.071   1.798   0.710  0.00  0.00    +0.042 A 
ATOM     24  C   UNL     1       1.873   0.711   0.671  0.00  0.00    +0.196 A 
ATOM     25  O   UNL     1       1.111  -0.382   0.532  0.00  0.00    -0.458 OA
ENDBRANCH  18  21
ENDBRANCH  14  17
ENDBRANCH   1  15
BRANCH   1  26
ATOM     26  C   UNL     1      -0.333  -4.986  -1.609  0.00  0.00    -0.057 A 
ATOM     27  C   UNL     1       0.496  -3.899  -1.817  0.00  0.00    +0.003 A 
ATOM     28  C   UNL     1       1.048  -3.678  -3.063  0.00  0.00    +0.015 A 
ATOM     29  C   UNL     1       0.761  -4.545  -4.112  0.00  0.00    +0.008 A 
ATOM     30  C   UNL     1      -0.076  -5.633  -3.899  0.00  0.00    +0.015 A 
ATOM     31  C   UNL     1      -0.620  -5.850  -2.649  0.00  0.00    +0.003 A 
BRANCH  29  32
ATOM     32  S   UNL     1       1.458  -4.264  -5.705  0.00  0.00    -0.129 S 
ATOM     33  C   UNL     1       2.454  -2.763  -5.491  0.00  0.00    +0.090 C 
ENDBRANCH  29  32
ENDBRANCH   1  26
TORSDOF 6
