REMARK  Name = ZINC45791704
REMARK  4 active torsions:
REMARK  status: ('A' for Active; 'I' for Inactive)
REMARK    1  A    between atoms: C_1  and  C_2
REMARK    2  A    between atoms: C_7  and  N_8
REMARK    3  A    between atoms: C_9  and  C_11
REMARK    4  A    between atoms: C_16  and  C_19
REMARK                            x       y       z     vdW  Elec       q    Type
REMARK                         _______ _______ _______ _____ _____    ______ ____
ROOT
ATOM      1  N   UNL     1       0.025  -0.016   2.416  0.00  0.00    -0.278 N 
ATOM      2  C   UNL     1      -0.057  -0.695   3.577  0.00  0.00    +0.304 C 
ATOM      3  O   UNL     1      -0.040  -1.909   3.572  0.00  0.00    -0.265 OA
ATOM      4  H   UNL     1       0.077   0.953   2.424  0.00  0.00    +0.155 HD
ENDROOT
BRANCH   2   5
ATOM      5  C   UNL     1      -0.168   0.045   4.869  0.00  0.00    +0.305 C 
ATOM      6  O   UNL     1      -0.184   1.258   4.873  0.00  0.00    -0.265 OA
ATOM      7  N   UNL     1      -0.249  -0.635   6.030  0.00  0.00    -0.260 N 
ATOM      8  C   UNL     1      -0.353   0.056   7.236  0.00  0.00    +0.168 A 
ATOM      9  C   UNL     1      -0.389   1.460   7.390  0.00  0.00    +0.091 A 
ATOM     10  C   UNL     1      -0.493   1.733   8.702  0.00  0.00    +0.136 A 
ATOM     11  O   UNL     1      -0.523   0.570   9.371  0.00  0.00    -0.358 OA
ATOM     12  N   UNL     1      -0.439  -0.481   8.426  0.00  0.00    -0.063 NA
ATOM     13  C   UNL     1      -0.564   3.108   9.316  0.00  0.00    +0.089 C 
ATOM     14  H   UNL     1      -0.236  -1.605   6.026  0.00  0.00    +0.157 HD
ENDBRANCH   2   5
BRANCH   1  21
ATOM     15  C   UNL     1      -1.266   1.182   0.182  0.00  0.00    +0.046 C 
ATOM     16  C   UNL     1      -0.585  -0.158   0.085  0.00  0.00    -0.028 A 
ATOM     17  C   UNL     1      -0.570  -0.841  -1.116  0.00  0.00    +0.020 A 
ATOM     18  C   UNL     1       0.055  -2.072  -1.206  0.00  0.00    +0.018 A 
ATOM     19  C   UNL     1       0.668  -2.623  -0.094  0.00  0.00    +0.017 A 
ATOM     20  C   UNL     1       0.656  -1.945   1.109  0.00  0.00    +0.024 A 
ATOM     21  C   UNL     1       0.033  -0.706   1.201  0.00  0.00    +0.037 A 
ATOM     22 BR   UNL     1       0.073  -3.003  -2.852  0.00  0.00    -0.050 Br
ENDBRANCH   1  21
TORSDOF 2
