REMARK  Name = ZINC63573211
REMARK  4 active torsions:
REMARK  status: ('A' for Active; 'I' for Inactive)
REMARK    1  A    between atoms: C_1  and  O_2
REMARK    2  A    between atoms: O_2  and  C_3
REMARK    3  A    between atoms: C_10  and  C_28
REMARK    4  A    between atoms: N_20  and  C_21
REMARK                            x       y       z     vdW  Elec       q    Type
REMARK                         _______ _______ _______ _____ _____    ______ ____
ROOT
ATOM      1  C   UNL     1      -0.547  -0.251  -0.072  0.00  0.00    +0.121 A 
ATOM      2  C   UNL     1      -1.657   0.571  -0.332  0.00  0.00    +0.047 A 
ATOM      3  C   UNL     1      -2.881   0.071  -0.608  0.00  0.00    +0.029 A 
ATOM      4  C   UNL     1      -3.086  -1.379  -0.644  0.00  0.00    +0.043 A 
ATOM      5  N   UNL     1      -4.155  -2.108  -0.863  0.00  0.00    -0.375 N 
ATOM      6  C   UNL     1      -3.768  -3.516  -0.852  0.00  0.00    +0.131 C 
ATOM      7  C   UNL     1      -4.557  -4.318   0.189  0.00  0.00    +0.134 C 
ATOM      8  N   UNL     1      -3.846  -5.586   0.417  0.00  0.00    -0.276 N 
ATOM      9  C   UNL     1      -2.464  -5.589   0.909  0.00  0.00    +0.114 C 
ATOM     10  C   UNL     1      -1.573  -4.801  -0.070  0.00  0.00    +0.052 C 
ATOM     11  C   UNL     1      -2.308  -3.530  -0.431  0.00  0.00    -0.035 C 
ATOM     12  C   UNL     1      -1.916  -2.249  -0.363  0.00  0.00    +0.003 A 
ATOM     13  C   UNL     1      -0.629  -1.602  -0.083  0.00  0.00    +0.055 A 
ATOM     14  C   UNL     1      -4.470  -6.755   0.172  0.00  0.00    +0.307 C 
ATOM     15  O   UNL     1      -5.549  -6.763  -0.389  0.00  0.00    -0.252 OA
ATOM     16  N   UNL     1      -3.898  -7.916   0.548  0.00  0.00    -0.269 N 
ATOM     17  H   UNL     1      -3.087  -7.907   1.080  0.00  0.00    +0.156 HD
ATOM     18  H   UNL     1      -5.052  -1.768  -1.008  0.00  0.00    +0.160 HD
ENDROOT
BRANCH  16  19
ATOM     19  C   UNL     1      -4.474  -9.135   0.171  0.00  0.00    +0.035 A 
ATOM     20  C   UNL     1      -5.846  -9.226  -0.019  0.00  0.00    +0.024 A 
ATOM     21  C   UNL     1      -6.412 -10.430  -0.391  0.00  0.00    +0.017 A 
ATOM     22  C   UNL     1      -5.613 -11.544  -0.575  0.00  0.00    +0.018 A 
ATOM     23  C   UNL     1      -4.245 -11.456  -0.386  0.00  0.00    +0.017 A 
ATOM     24  C   UNL     1      -3.673 -10.253  -0.020  0.00  0.00    +0.024 A 
ATOM     25 BR   UNL     1      -6.391 -13.191  -1.084  0.00  0.00    -0.050 Br
ENDBRANCH  16  19
BRANCH   7  26
ATOM     26  C   UNL     1      -5.945  -4.597  -0.327  0.00  0.00    -0.025 A 
ATOM     27  C   UNL     1      -7.016  -4.616   0.547  0.00  0.00    +0.008 A 
ATOM     28  C   UNL     1      -8.290  -4.871   0.074  0.00  0.00    +0.038 A 
ATOM     29  C   UNL     1      -8.493  -5.107  -1.275  0.00  0.00    +0.123 A 
ATOM     30  C   UNL     1      -7.419  -5.088  -2.149  0.00  0.00    +0.038 A 
ATOM     31  C   UNL     1      -6.147  -4.828  -1.675  0.00  0.00    +0.008 A 
ATOM     32  F   UNL     1      -9.737  -5.357  -1.738  0.00  0.00    -0.205 F 
ENDBRANCH   7  26
BRANCH   1  34
ATOM     33  C   UNL     1       0.694   1.760   0.195  0.00  0.00    +0.277 C 
ATOM     34  O   UNL     1       0.652   0.331   0.194  0.00  0.00    -0.495 OA
ENDBRANCH   1  34
TORSDOF 3
