REMARK  Name = ZINC67010302
REMARK  8 active torsions:
REMARK  status: ('A' for Active; 'I' for Inactive)
REMARK    1  A    between atoms: C_1  and  C_2
REMARK    2  A    between atoms: C_2  and  C_4
REMARK    3  A    between atoms: C_2  and  N_15
REMARK    4  A    between atoms: C_8  and  S_10
REMARK    5  A    between atoms: S_10  and  N_13
REMARK    6  A    between atoms: N_13  and  C_14
REMARK    7  A    between atoms: N_15  and  C_16
REMARK    8  A    between atoms: C_16  and  C_17
REMARK                            x       y       z     vdW  Elec       q    Type
REMARK                         _______ _______ _______ _____ _____    ______ ____
ROOT
ATOM      1  N   UNL     1       0.690  -0.478  -1.207  0.00  0.00    +0.386 N 
ATOM      2  H   UNL     1       1.608  -0.063  -1.256  0.00  0.00    -0.085 HD
ATOM      3  H   UNL     1       0.776  -1.482  -1.172  0.00  0.00    -0.085 HD
ENDROOT
BRANCH   1   5
ATOM      4  C   UNL     1      -0.019   1.526   0.010  0.00  0.00    -0.009 C 
ATOM      5  C   UNL     1       0.002  -0.004   0.002  0.00  0.00    -0.044 C 
BRANCH   5   6
ATOM      6  C   UNL     1       0.731  -0.503   1.223  0.00  0.00    -0.060 A 
ATOM      7  C   UNL     1       2.113  -0.514   1.247  0.00  0.00    +0.002 A 
ATOM      8  C   UNL     1       2.782  -0.972   2.366  0.00  0.00    +0.002 A 
ATOM      9  C   UNL     1       2.068  -1.419   3.463  0.00  0.00    +0.028 A 
ATOM     10  C   UNL     1       0.686  -1.407   3.439  0.00  0.00    +0.105 A 
ATOM     11  C   UNL     1       0.018  -0.945   2.321  0.00  0.00    +0.030 A 
BRANCH  10  12
ATOM     12  S   UNL     1      -0.223  -1.978   4.837  0.00  0.00    +0.058 S 
ATOM     13  O   UNL     1      -1.500  -2.374   4.356  0.00  0.00    -0.153 OA
ATOM     14  O   UNL     1       0.633  -2.864   5.545  0.00  0.00    -0.153 OA
BRANCH  12  15
ATOM     15  N   UNL     1      -0.474  -0.672   5.824  0.00  0.00    -0.193 NA
ATOM     16  C   UNL     1      -1.305   0.444   5.365  0.00  0.00    +0.127 C 
ATOM     17  H   UNL     1      -0.071  -0.646   6.706  0.00  0.00    +0.148 HD
ENDBRANCH  12  15
ENDBRANCH  10  12
ENDBRANCH   5   6
ENDBRANCH   1   5
BRANCH   1  18
ATOM     18  C   UNL     1      -0.086  -0.093  -2.394  0.00  0.00    -0.047 C 
BRANCH  18  19
ATOM     19  C   UNL     1       0.620  -0.579  -3.634  0.00  0.00    -0.049 C 
ATOM     20  C   UNL     1       0.273  -1.740  -4.180  0.00  0.00    +0.012 C 
ATOM     21  C   UNL     1       1.013  -2.201  -5.374  0.00  0.00    +0.018 A 
ATOM     22  C   UNL     1       0.537  -3.242  -6.165  0.00  0.00    +0.031 A 
ATOM     23  C   UNL     1       1.254  -3.633  -7.281  0.00  0.00    +0.042 A 
ATOM     24  C   UNL     1       2.436  -2.991  -7.611  0.00  0.00    +0.023 A 
ATOM     25  C   UNL     1       2.919  -1.959  -6.827  0.00  0.00    +0.048 A 
ATOM     26  C   UNL     1       2.216  -1.563  -5.704  0.00  0.00    +0.128 A 
ATOM     27  O   UNL     1       2.680  -0.577  -4.893  0.00  0.00    -0.487 OA
ATOM     28  C   UNL     1       1.710   0.255  -4.252  0.00  0.00    +0.258 C 
ATOM     29 CL   UNL     1       0.669  -4.932  -8.272  0.00  0.00    -0.084 Cl
ENDBRANCH  18  19
ENDBRANCH   1  18
TORSDOF 6
