REMARK  Name = ZINC42360425
REMARK  7 active torsions:
REMARK  status: ('A' for Active; 'I' for Inactive)
REMARK    1  A    between atoms: C_1  and  N_2
REMARK    2  A    between atoms: N_2  and  C_3
REMARK    3  A    between atoms: N_2  and  C_10
REMARK    4  A    between atoms: C_3  and  C_4
REMARK    5  A    between atoms: C_10  and  C_11
REMARK    6  A    between atoms: N_13  and  C_14
REMARK    7  A    between atoms: C_16  and  N_21
REMARK                            x       y       z     vdW  Elec       q    Type
REMARK                         _______ _______ _______ _____ _____    ______ ____
ROOT
ATOM      1  C   UNL     1      -0.107  -0.086  -2.424  0.00  0.00    +0.201 C 
ATOM      2  O   UNL     1      -1.141   0.535  -2.297  0.00  0.00    -0.278 OA
ATOM      3  N   UNL     1       0.336  -0.414  -3.654  0.00  0.00    -0.286 N 
ATOM      4  H   UNL     1       1.201  -0.840  -3.760  0.00  0.00    +0.155 HD
ENDROOT
BRANCH   3   5
ATOM      5  C   UNL     1      -0.452  -0.141  -4.778  0.00  0.00    +0.054 A 
ATOM      6  C   UNL     1      -1.829  -0.029  -4.650  0.00  0.00    +0.047 A 
ATOM      7  C   UNL     1      -2.608   0.242  -5.766  0.00  0.00    +0.026 A 
ATOM      8  C   UNL     1      -2.006   0.401  -7.009  0.00  0.00    +0.024 A 
ATOM      9  C   UNL     1      -0.635   0.289  -7.134  0.00  0.00    +0.023 A 
ATOM     10  C   UNL     1       0.144   0.025  -6.022  0.00  0.00    +0.062 A 
ATOM     11 CL   UNL     1       1.867  -0.107  -6.183  0.00  0.00    -0.082 Cl
BRANCH   7  12
ATOM     12  N   UNL     1      -3.995   0.355  -5.641  0.00  0.00    -0.358 N 
ATOM     13  H   UNL     1      -4.414   0.243  -4.773  0.00  0.00    +0.142 HD
ATOM     14  H   UNL     1      -4.538   0.544  -6.422  0.00  0.00    +0.142 HD
ENDBRANCH   7  12
ENDBRANCH   3   5
BRANCH   1  15
ATOM     15  C   UNL     1       0.682  -0.491  -1.206  0.00  0.00    +0.019 C 
BRANCH  15  17
ATOM     16  C   UNL     1      -0.017   1.450   0.018  0.00  0.00    -0.095 C 
ATOM     17  N   UNL     1      -0.006  -0.019   0.003  0.00  0.00    +0.386 N 
ATOM     18  H   UNL     1      -0.955  -0.363   0.006  0.00  0.00    -0.081 HD
BRANCH  17  19
ATOM     19  C   UNL     1       0.698  -0.515   1.193  0.00  0.00    -0.042 C 
BRANCH  19  20
ATOM     20  C   UNL     1      -0.075  -0.135   2.429  0.00  0.00    -0.056 A 
ATOM     21  C   UNL     1       0.171   1.066   3.068  0.00  0.00    +0.024 A 
ATOM     22  C   UNL     1      -0.543   1.378   4.178  0.00  0.00    +0.055 A 
ATOM     23  S   UNL     1      -1.601  -0.051   4.350  0.00  0.00    -0.090 S 
ATOM     24  C   UNL     1      -1.024  -0.963   2.928  0.00  0.00    +0.048 A 
ATOM     25 BR   UNL     1      -0.444   2.923   5.264  0.00  0.00    -0.043 Br
ENDBRANCH  19  20
ENDBRANCH  17  19
ENDBRANCH  15  17
ENDBRANCH   1  15
TORSDOF 6
