REMARK  Name = ZINC03664565
REMARK  9 active torsions:
REMARK  status: ('A' for Active; 'I' for Inactive)
REMARK    1  A    between atoms: C_1  and  O_2
REMARK    2  A    between atoms: O_2  and  C_3
REMARK    3  A    between atoms: C_3  and  C_5
REMARK    4  A    between atoms: C_6  and  N_36
REMARK    5  A    between atoms: N_7  and  C_26
REMARK    6  A    between atoms: C_10  and  C_12
REMARK    7  A    between atoms: C_16  and  N_18
REMARK    8  A    between atoms: C_29  and  S_32
REMARK    9  A    between atoms: S_32  and  N_35
REMARK                            x       y       z     vdW  Elec       q    Type
REMARK                         _______ _______ _______ _____ _____    ______ ____
ROOT
ATOM      1  C   UNL     1      -1.125   5.408  -1.158  0.00  0.00    +0.084 C 
ATOM      2  C   UNL     1      -2.352   5.927  -0.879  0.00  0.00    +0.103 C 
ATOM      3  N   UNL     1      -2.638   6.378   0.387  0.00  0.00    -0.261 N 
ATOM      4  C   UNL     1      -1.629   6.687   1.262  0.00  0.00    +0.024 C 
ATOM      5  C   UNL     1      -0.382   6.208   1.070  0.00  0.00    +0.025 C 
ATOM      6  C   UNL     1      -0.068   5.308  -0.098  0.00  0.00    +0.094 C 
ATOM      7  C   UNL     1       0.663   6.534   1.953  0.00  0.00    +0.162 C 
ATOM      8  O   UNL     1       1.773   6.080   1.756  0.00  0.00    -0.292 OA
ATOM      9  C   UNL     1       0.434   7.435   3.135  0.00  0.00    +0.080 C 
ATOM     10  C   UNL     1      -0.715   8.396   2.815  0.00  0.00    +0.014 C 
ATOM     11  C   UNL     1      -1.949   7.571   2.442  0.00  0.00    +0.052 C 
ENDROOT
BRANCH   6  12
ATOM     12  C   UNL     1       0.015   3.883   0.384  0.00  0.00    -0.033 A 
ATOM     13  C   UNL     1      -1.091   3.280   0.952  0.00  0.00    +0.005 A 
ATOM     14  C   UNL     1      -1.016   1.971   1.391  0.00  0.00    +0.003 A 
ATOM     15  C   UNL     1       0.168   1.268   1.270  0.00  0.00    +0.033 A 
ATOM     16  C   UNL     1       1.274   1.871   0.702  0.00  0.00    +0.126 A 
ATOM     17  C   UNL     1       1.198   3.179   0.259  0.00  0.00    +0.037 A 
BRANCH  16  18
ATOM     18  N   UNL     1       2.541   1.117   0.568  0.00  0.00    +0.056 N 
ATOM     19  O   UNL     1       2.609  -0.034   0.958  0.00  0.00    -0.126 OA
ATOM     20  O   UNL     1       3.516   1.649   0.067  0.00  0.00    -0.126 OA
ENDBRANCH  16  18
ENDBRANCH   6  12
BRANCH   3  21
ATOM     21  C   UNL     1      -3.972   6.523   0.787  0.00  0.00    +0.040 A 
ATOM     22  C   UNL     1      -4.503   5.681   1.756  0.00  0.00    +0.026 A 
ATOM     23  C   UNL     1      -5.818   5.829   2.152  0.00  0.00    +0.030 A 
ATOM     24  C   UNL     1      -6.608   6.808   1.578  0.00  0.00    +0.105 A 
ATOM     25  C   UNL     1      -6.084   7.645   0.610  0.00  0.00    +0.030 A 
ATOM     26  C   UNL     1      -4.768   7.505   0.213  0.00  0.00    +0.026 A 
BRANCH  24  27
ATOM     27  S   UNL     1      -8.287   6.990   2.082  0.00  0.00    +0.056 S 
ATOM     28  O   UNL     1      -8.380   6.444   3.390  0.00  0.00    -0.153 OA
ATOM     29  O   UNL     1      -8.656   8.331   1.788  0.00  0.00    -0.153 OA
BRANCH  27  30
ATOM     30  N   UNL     1      -9.201   6.021   1.098  0.00  0.00    -0.204 NA
ATOM     31  H   UNL     1      -8.774   5.494   0.405  0.00  0.00    +0.144 HD
ATOM     32  H   UNL     1     -10.163   5.980   1.216  0.00  0.00    +0.144 HD
ENDBRANCH  27  30
ENDBRANCH  24  27
ENDBRANCH   3  21
BRANCH   2  33
ATOM     33  N   UNL     1      -3.304   6.002  -1.863  0.00  0.00    -0.346 N 
ATOM     34  H   UNL     1      -4.241   5.886  -1.642  0.00  0.00    +0.143 HD
ATOM     35  H   UNL     1      -3.040   6.170  -2.782  0.00  0.00    +0.143 HD
ENDBRANCH   2  33
BRANCH   1  36
ATOM     36  C   UNL     1      -0.845   4.959  -2.456  0.00  0.00    +0.339 C 
ATOM     37  O   UNL     1      -1.722   4.952  -3.301  0.00  0.00    -0.245 OA
BRANCH  36  39
ATOM     38  C   UNL     1       0.613   4.091  -4.112  0.00  0.00    +0.280 C 
ATOM     39  O   UNL     1       0.399   4.534  -2.771  0.00  0.00    -0.465 OA
ENDBRANCH  36  39
ENDBRANCH   1  36
TORSDOF 8
