REMARK  Name = ZINC37757413
REMARK  7 active torsions:
REMARK  status: ('A' for Active; 'I' for Inactive)
REMARK    1  A    between atoms: C_1  and  N_2
REMARK    2  A    between atoms: N_2  and  C_3
REMARK    3  A    between atoms: C_3  and  C_4
REMARK    4  A    between atoms: C_9  and  C_10
REMARK    5  A    between atoms: C_10  and  N_11
REMARK    6  A    between atoms: C_12  and  C_14
REMARK    7  A    between atoms: C_14  and  C_15
REMARK                            x       y       z     vdW  Elec       q    Type
REMARK                         _______ _______ _______ _____ _____    ______ ____
ROOT
ATOM      1  C   UNL     1       0.089   1.169  -0.226  0.00  0.00    +0.132 C 
ATOM      2  N   UNL     1       0.045  -0.290  -0.108  0.00  0.00    -0.300 N 
ATOM      3  C   UNL     1       0.113  -1.058  -1.214  0.00  0.00    +0.216 C 
ATOM      4  O   UNL     1      -0.015  -2.260  -1.127  0.00  0.00    -0.276 OA
ENDROOT
BRANCH   2   5
ATOM      5  C   UNL     1      -0.071  -0.916   1.211  0.00  0.00    +0.142 C 
BRANCH   5   6
ATOM      6  C   UNL     1      -1.524  -0.991   1.605  0.00  0.00    -0.029 A 
ATOM      7  C   UNL     1      -2.502  -0.584   0.718  0.00  0.00    +0.005 A 
ATOM      8  C   UNL     1      -3.835  -0.653   1.079  0.00  0.00    +0.000 A 
ATOM      9  C   UNL     1      -4.189  -1.128   2.328  0.00  0.00    +0.000 A 
ATOM     10  C   UNL     1      -3.210  -1.536   3.215  0.00  0.00    +0.002 A 
ATOM     11  C   UNL     1      -1.878  -1.471   2.852  0.00  0.00    -0.060 A 
BRANCH  11  12
ATOM     12  C   UNL     1      -0.811  -1.920   3.817  0.00  0.00    -0.050 C 
BRANCH  12  13
ATOM     13  N   UNL     1      -0.220  -0.747   4.475  0.00  0.00    +0.381 N 
ATOM     14  H   UNL     1       0.189  -0.142   3.779  0.00  0.00    -0.090 HD
ATOM     15  H   UNL     1      -0.938  -0.246   4.976  0.00  0.00    -0.090 HD
ATOM     16  H   UNL     1       0.494  -1.048   5.121  0.00  0.00    -0.090 HD
ENDBRANCH  12  13
ENDBRANCH  11  12
ENDBRANCH   5   6
ENDBRANCH   2   5
BRANCH   3  17
ATOM     17  C   UNL     1       0.347  -0.421  -2.560  0.00  0.00    +0.099 C 
BRANCH  17  18
ATOM     18  C   UNL     1       0.380  -1.506  -3.639  0.00  0.00    +0.001 C 
ATOM     19  C   UNL     1      -1.036  -2.081  -3.867  0.00  0.00    +0.007 C 
ATOM     20  C   UNL     1      -1.356  -1.761  -5.359  0.00  0.00    -0.010 C 
ATOM     21  C   UNL     1      -1.569  -0.217  -5.391  0.00  0.00    +0.004 C 
ATOM     22  C   UNL     1      -0.162   0.377  -5.156  0.00  0.00    +0.004 C 
ATOM     23  C   UNL     1       0.786  -0.892  -5.014  0.00  0.00    -0.007 C 
ATOM     24  C   UNL     1       0.073  -1.890  -5.996  0.00  0.00    +0.007 C 
ENDBRANCH  17  18
ENDBRANCH   3  17
TORSDOF 6
