REMARK  Name = ZINC64032437
REMARK  10 active torsions:
REMARK  status: ('A' for Active; 'I' for Inactive)
REMARK    1  A    between atoms: C_2  and  C_3
REMARK    2  A    between atoms: C_3  and  N_4
REMARK    3  A    between atoms: N_4  and  C_5
REMARK    4  A    between atoms: C_5  and  N_7
REMARK    5  A    between atoms: N_7  and  C_8
REMARK    6  A    between atoms: C_8  and  C_10
REMARK    7  A    between atoms: C_8  and  C_20
REMARK    8  A    between atoms: C_10  and  C_11
REMARK    9  A    between atoms: N_22  and  C_23
REMARK   10  A    between atoms: C_23  and  C_24
REMARK                            x       y       z     vdW  Elec       q    Type
REMARK                         _______ _______ _______ _____ _____    ______ ____
ROOT
ATOM      1  C   UNL     1       3.619  -4.083   2.431  0.00  0.00    +0.162 C 
ENDROOT
BRANCH   1   2
ATOM      2  C   UNL     1       3.633  -4.233   3.930  0.00  0.00    +0.234 C 
ATOM      3  O   UNL     1       2.767  -3.710   4.600  0.00  0.00    -0.274 OA
ATOM      4  N   UNL     1       4.607  -4.948   4.527  0.00  0.00    -0.307 N 
ATOM      5  H   UNL     1       5.299  -5.366   3.992  0.00  0.00    +0.149 HD
BRANCH   4   6
ATOM      6  C   UNL     1       4.620  -5.093   5.985  0.00  0.00    +0.178 C 
BRANCH   6   7
ATOM      7  C   UNL     1       5.803  -5.932   6.395  0.00  0.00    +0.122 A 
ATOM      8  C   UNL     1       7.029  -5.468   6.699  0.00  0.00    +0.046 A 
ATOM      9  C   UNL     1       7.823  -6.592   7.025  0.00  0.00    +0.041 A 
ATOM     10  C   UNL     1       7.035  -7.675   6.902  0.00  0.00    +0.195 A 
ATOM     11  O   UNL     1       5.811  -7.269   6.526  0.00  0.00    -0.466 OA
ENDBRANCH   6   7
ENDBRANCH   4   6
ENDBRANCH   1   2
BRANCH   1  12
ATOM     12  N   UNL     1       2.469  -3.268   2.032  0.00  0.00    -0.315 N 
ATOM     13  H   UNL     1       1.669  -3.257   2.580  0.00  0.00    +0.148 HD
BRANCH  12  14
ATOM     14  C   UNL     1       2.523  -2.533   0.904  0.00  0.00    +0.131 C 
ATOM     15  S   UNL     1       3.936  -2.551  -0.063  0.00  0.00    -0.019 S 
BRANCH  14  16
ATOM     16  N   UNL     1       1.466  -1.782   0.537  0.00  0.00    -0.323 N 
ATOM     17  H   UNL     1       0.665  -1.772   1.085  0.00  0.00    +0.148 HD
BRANCH  16  18
ATOM     18  C   UNL     1       1.524  -0.983  -0.689  0.00  0.00    +0.130 C 
BRANCH  18  20
ATOM     19  C   UNL     1       0.225   1.059  -1.014  0.00  0.00    +0.005 C 
ATOM     20  C   UNL     1       0.224  -0.243  -0.870  0.00  0.00    -0.016 C 
ENDBRANCH  18  20
ENDBRANCH  16  18
ENDBRANCH  14  16
ENDBRANCH  12  14
ENDBRANCH   1  12
BRANCH   1  21
ATOM     21  C   UNL     1       3.514  -5.465   1.782  0.00  0.00    +0.065 C 
BRANCH  21  22
ATOM     22  C   UNL     1       2.230  -6.125   2.210  0.00  0.00    -0.039 C 
ATOM     23  C   UNL     1       1.050  -6.117   1.548  0.00  0.00    -0.001 A 
ATOM     24  C   UNL     1       0.627  -5.512   0.279  0.00  0.00    +0.010 A 
ATOM     25  C   UNL     1      -0.650  -5.679  -0.133  0.00  0.00    +0.001 A 
ATOM     26  C   UNL     1      -1.577  -6.414   0.619  0.00  0.00    +0.002 A 
ATOM     27  C   UNL     1      -1.263  -6.999   1.794  0.00  0.00    +0.026 A 
ATOM     28  C   UNL     1       0.052  -6.888   2.323  0.00  0.00    +0.043 A 
ATOM     29  N   UNL     1       0.594  -7.355   3.422  0.00  0.00    -0.380 N 
ATOM     30  C   UNL     1       2.000  -6.938   3.465  0.00  0.00    +0.144 C 
ATOM     31  H   UNL     1       0.141  -7.891   4.092  0.00  0.00    +0.160 HD
ENDBRANCH  21  22
ENDBRANCH   1  21
TORSDOF 10
