REMARK  Name = ZINC05272208
REMARK  7 active torsions:
REMARK  status: ('A' for Active; 'I' for Inactive)
REMARK    1  A    between atoms: C_1  and  C_2
REMARK    2  A    between atoms: C_2  and  C_4
REMARK    3  A    between atoms: C_2  and  C_5
REMARK    4  A    between atoms: C_5  and  C_7
REMARK    5  A    between atoms: C_5  and  N_19
REMARK    6  A    between atoms: N_9  and  C_10
REMARK    7  A    between atoms: C_20  and  C_22
REMARK                            x       y       z     vdW  Elec       q    Type
REMARK                         _______ _______ _______ _____ _____    ______ ____
ROOT
ATOM      1  C   UNL     1      -6.081   3.304   0.648  0.00  0.00    +0.162 C 
ENDROOT
BRANCH   1   2
ATOM      2  C   UNL     1      -6.744   3.701   1.942  0.00  0.00    +0.238 C 
ATOM      3  O   UNL     1      -6.484   3.104   2.965  0.00  0.00    -0.273 OA
ATOM      4  N   UNL     1      -7.626   4.720   1.962  0.00  0.00    -0.284 N 
ATOM      5  H   UNL     1      -7.741   5.278   1.176  0.00  0.00    +0.155 HD
BRANCH   4   6
ATOM      6  C   UNL     1      -8.377   4.974   3.117  0.00  0.00    +0.037 A 
ATOM      7  C   UNL     1      -7.894   4.582   4.359  0.00  0.00    +0.027 A 
ATOM      8  C   UNL     1      -8.632   4.836   5.499  0.00  0.00    +0.051 A 
ATOM      9  C   UNL     1      -9.859   5.472   5.406  0.00  0.00    +0.166 A 
ATOM     10  C   UNL     1     -10.348   5.861   4.162  0.00  0.00    +0.168 A 
ATOM     11  C   UNL     1      -9.606   5.611   3.019  0.00  0.00    +0.072 A 
ATOM     12  O   UNL     1     -11.562   6.460   4.338  0.00  0.00    -0.453 OA
ATOM     13  C   UNL     1     -11.997   6.069   5.653  0.00  0.00    +0.466 C 
ATOM     14  O   UNL     1     -10.768   5.828   6.362  0.00  0.00    -0.453 OA
ENDBRANCH   4   6
ENDBRANCH   1   2
BRANCH   1  15
ATOM     15  N   UNL     1      -5.797   1.867   0.666  0.00  0.00    -0.305 N 
ATOM     16  C   UNL     1      -5.687   1.187  -0.492  0.00  0.00    +0.200 C 
ATOM     17  O   UNL     1      -5.824   1.764  -1.550  0.00  0.00    -0.278 OA
ATOM     18  H   UNL     1      -5.687   1.405   1.512  0.00  0.00    +0.149 HD
BRANCH  16  19
ATOM     19  C   UNL     1      -5.395  -0.291  -0.474  0.00  0.00    +0.021 C 
ATOM     20  C   UNL     1      -3.896  -0.516  -0.271  0.00  0.00    +0.028 C 
ATOM     21  C   UNL     1      -3.559  -1.968  -0.492  0.00  0.00    -0.047 A 
ATOM     22  C   UNL     1      -2.345  -2.445  -0.020  0.00  0.00    +0.004 A 
ATOM     23  C   UNL     1      -1.992  -3.766  -0.209  0.00  0.00    +0.000 A 
ATOM     24  C   UNL     1      -2.855  -4.619  -0.873  0.00  0.00    +0.000 A 
ATOM     25  C   UNL     1      -4.064  -4.146  -1.341  0.00  0.00    +0.002 A 
ATOM     26  C   UNL     1      -4.420  -2.819  -1.150  0.00  0.00    -0.061 A 
ATOM     27  C   UNL     1      -5.755  -2.353  -1.670  0.00  0.00    -0.045 C 
ATOM     28  N   UNL     1      -5.789  -0.887  -1.764  0.00  0.00    +0.389 N 
ATOM     29  H   UNL     1      -5.137  -0.577  -2.495  0.00  0.00    -0.084 HD
ATOM     30  H   UNL     1      -6.740  -0.583  -2.003  0.00  0.00    -0.084 HD
ENDBRANCH  16  19
ENDBRANCH   1  15
BRANCH   1  32
ATOM     31  C   UNL     1      -3.788   3.653   1.575  0.00  0.00    +0.009 C 
ATOM     32  C   UNL     1      -4.773   4.080   0.486  0.00  0.00    +0.012 C 
ATOM     33  C   UNL     1      -4.172   3.785  -0.890  0.00  0.00    +0.009 C 
ENDBRANCH   1  32
TORSDOF 5
