REMARK  Name = ZINC67636703
REMARK  11 active torsions:
REMARK  status: ('A' for Active; 'I' for Inactive)
REMARK    1  A    between atoms: C_1  and  C_2
REMARK    2  A    between atoms: C_4  and  C_8
REMARK    3  A    between atoms: C_5  and  C_7
REMARK    4  A    between atoms: C_8  and  C_10
REMARK    5  A    between atoms: C_8  and  N_11
REMARK    6  A    between atoms: N_14  and  C_15
REMARK    7  A    between atoms: C_15  and  C_16
REMARK    8  A    between atoms: C_16  and  C_18
REMARK    9  A    between atoms: C_16  and  O_26
REMARK   10  A    between atoms: C_18  and  N_19
REMARK   11  A    between atoms: C_22  and  C_25
REMARK                            x       y       z     vdW  Elec       q    Type
REMARK                         _______ _______ _______ _____ _____    ______ ____
ROOT
ATOM      1  N   UNL     1      -2.503  -3.000  -1.190  0.00  0.00    -0.293 N 
ATOM      2  C   UNL     1      -3.277  -4.009  -1.637  0.00  0.00    +0.300 C 
ATOM      3  O   UNL     1      -2.843  -5.145  -1.659  0.00  0.00    -0.253 OA
ATOM      4  N   UNL     1      -4.532  -3.759  -2.061  0.00  0.00    -0.297 N 
ATOM      5  H   UNL     1      -2.849  -2.094  -1.173  0.00  0.00    +0.151 HD
ATOM      6  H   UNL     1      -4.878  -2.853  -2.044  0.00  0.00    +0.150 HD
ENDROOT
BRANCH   1   7
ATOM      7  C   UNL     1      -1.139  -3.272  -0.730  0.00  0.00    +0.105 C 
ATOM      8  C   UNL     1      -1.173  -3.702   0.738  0.00  0.00    +0.033 C 
BRANCH   7  12
ATOM      9  C   UNL     1       0.284   1.607  -1.087  0.00  0.00    +0.086 C 
ATOM     10  C   UNL     1       0.301   0.101  -1.023  0.00  0.00    +0.103 A 
ATOM     11  C   UNL     1      -0.776  -0.692  -0.879  0.00  0.00    +0.050 A 
ATOM     12  C   UNL     1      -0.304  -2.025  -0.870  0.00  0.00    +0.013 A 
ATOM     13  C   UNL     1       1.032  -1.967  -1.008  0.00  0.00    +0.107 A 
ATOM     14  O   UNL     1       1.393  -0.677  -1.107  0.00  0.00    -0.465 OA
ATOM     15  C   UNL     1       1.966  -3.148  -1.051  0.00  0.00    +0.086 C 
ENDBRANCH   7  12
ENDBRANCH   1   7
BRANCH   4  16
ATOM     16  C   UNL     1      -5.373  -4.856  -2.547  0.00  0.00    +0.135 C 
BRANCH  16  17
ATOM     17  C   UNL     1      -6.738  -4.306  -2.963  0.00  0.00    +0.115 C 
BRANCH  17  18
ATOM     18  O   UNL     1      -6.578  -3.429  -4.080  0.00  0.00    -0.392 OA
ATOM     19  H   UNL     1      -6.191  -3.851  -4.859  0.00  0.00    +0.210 HD
ENDBRANCH  17  18
BRANCH  17  20
ATOM     20  C   UNL     1      -7.658  -5.465  -3.353  0.00  0.00    -0.046 C 
BRANCH  20  21
ATOM     21  N   UNL     1      -8.973  -4.937  -3.741  0.00  0.00    +0.381 N 
ATOM     22  C   UNL     1      -9.804  -6.030  -4.259  0.00  0.00    -0.078 C 
ATOM     23  C   UNL     1     -11.145  -5.473  -4.740  0.00  0.00    -0.016 C 
ATOM     24  C   UNL     1     -11.861  -4.799  -3.566  0.00  0.00    -0.018 C 
ATOM     25  C   UNL     1     -10.955  -3.709  -2.986  0.00  0.00    -0.016 C 
ATOM     26  C   UNL     1      -9.620  -4.332  -2.570  0.00  0.00    -0.078 C 
ATOM     27  C   UNL     1     -13.167  -4.170  -4.056  0.00  0.00    +0.007 C 
ATOM     28  H   UNL     1      -8.856  -4.237  -4.458  0.00  0.00    -0.082 HD
ENDBRANCH  20  21
ENDBRANCH  17  20
ENDBRANCH  16  17
ENDBRANCH   4  16
TORSDOF 7
