REMARK  Name = ZINC37216758
REMARK  8 active torsions:
REMARK  status: ('A' for Active; 'I' for Inactive)
REMARK    1  A    between atoms: C_1  and  C_2
REMARK    2  A    between atoms: C_2  and  C_4
REMARK    3  A    between atoms: C_2  and  N_14
REMARK    4  A    between atoms: C_8  and  S_10
REMARK    5  A    between atoms: S_10  and  N_13
REMARK    6  A    between atoms: N_14  and  C_15
REMARK    7  A    between atoms: C_15  and  C_16
REMARK    8  A    between atoms: C_16  and  C_17
REMARK                            x       y       z     vdW  Elec       q    Type
REMARK                         _______ _______ _______ _____ _____    ______ ____
ROOT
ATOM      1  C   UNL     1      -0.019   1.526   0.010  0.00  0.00    -0.009 C 
ATOM      2  C   UNL     1       0.002  -0.004   0.002  0.00  0.00    -0.044 C 
ENDROOT
BRANCH   2   3
ATOM      3  C   UNL     1       0.731  -0.503   1.223  0.00  0.00    -0.060 A 
ATOM      4  C   UNL     1       2.113  -0.514   1.247  0.00  0.00    +0.002 A 
ATOM      5  C   UNL     1       2.782  -0.972   2.366  0.00  0.00    +0.002 A 
ATOM      6  C   UNL     1       2.068  -1.419   3.463  0.00  0.00    +0.028 A 
ATOM      7  C   UNL     1       0.686  -1.407   3.439  0.00  0.00    +0.105 A 
ATOM      8  C   UNL     1       0.018  -0.945   2.321  0.00  0.00    +0.030 A 
BRANCH   7   9
ATOM      9  S   UNL     1      -0.223  -1.978   4.837  0.00  0.00    +0.056 S 
ATOM     10  O   UNL     1      -1.500  -2.374   4.356  0.00  0.00    -0.153 OA
ATOM     11  O   UNL     1       0.633  -2.864   5.545  0.00  0.00    -0.153 OA
BRANCH   9  12
ATOM     12  N   UNL     1      -0.474  -0.672   5.824  0.00  0.00    -0.204 NA
ATOM     13  H   UNL     1      -1.266  -0.631   6.382  0.00  0.00    +0.144 HD
ATOM     14  H   UNL     1       0.171   0.052   5.844  0.00  0.00    +0.144 HD
ENDBRANCH   9  12
ENDBRANCH   7   9
ENDBRANCH   2   3
BRANCH   2  15
ATOM     15  N   UNL     1       0.690  -0.478  -1.207  0.00  0.00    +0.384 N 
ATOM     16  H   UNL     1       1.608  -0.063  -1.256  0.00  0.00    -0.085 HD
ATOM     17  H   UNL     1       0.776  -1.482  -1.172  0.00  0.00    -0.085 HD
BRANCH  15  18
ATOM     18  C   UNL     1      -0.086  -0.093  -2.394  0.00  0.00    -0.077 C 
BRANCH  18  19
ATOM     19  C   UNL     1       0.630  -0.587  -3.652  0.00  0.00    +0.011 C 
BRANCH  19  20
ATOM     20  C   UNL     1      -0.165  -0.192  -4.870  0.00  0.00    -0.075 C 
ATOM     21  C   UNL     1       0.161   0.902  -5.480  0.00  0.00    -0.028 C 
ATOM     22  C   UNL     1      -0.542   1.429  -6.696  0.00  0.00    +0.027 C 
ATOM     23  C   UNL     1      -1.377   0.322  -7.343  0.00  0.00    +0.004 C 
ATOM     24  C   UNL     1      -2.223  -0.348  -6.253  0.00  0.00    +0.005 C 
ATOM     25  C   UNL     1      -1.282  -1.095  -5.304  0.00  0.00    +0.030 C 
ENDBRANCH  19  20
ENDBRANCH  18  19
ENDBRANCH  15  18
ENDBRANCH   2  15
TORSDOF 7
