REMARK  Name = ZINC63266695
REMARK  7 active torsions:
REMARK  status: ('A' for Active; 'I' for Inactive)
REMARK    1  A    between atoms: C_7  and  C_10
REMARK    2  A    between atoms: C_10  and  C_11
REMARK    3  A    between atoms: C_11  and  C_13
REMARK    4  A    between atoms: C_11  and  N_25
REMARK    5  A    between atoms: N_15  and  N_16
REMARK    6  A    between atoms: C_17  and  C_18
REMARK    7  A    between atoms: C_26  and  C_28
REMARK                            x       y       z     vdW  Elec       q    Type
REMARK                         _______ _______ _______ _____ _____    ______ ____
ROOT
ATOM      1  C   UNL     1       0.576  -3.621  -1.486  0.00  0.00    +0.165 C 
ENDROOT
BRANCH   1   2
ATOM      2  C   UNL     1      -0.522  -4.605  -1.796  0.00  0.00    +0.253 C 
ATOM      3  O   UNL     1      -0.258  -5.657  -2.340  0.00  0.00    -0.272 OA
ATOM      4  N   UNL     1      -1.798  -4.317  -1.469  0.00  0.00    -0.205 N 
ATOM      5  H   UNL     1      -2.009  -3.476  -1.034  0.00  0.00    +0.177 HD
BRANCH   4   6
ATOM      6  N   UNL     1      -2.819  -5.232  -1.757  0.00  0.00    -0.188 NA
ATOM      7  C   UNL     1      -4.047  -4.955  -1.442  0.00  0.00    +0.138 C 
BRANCH   7   8
ATOM      8  C   UNL     1      -5.121  -5.919  -1.746  0.00  0.00    -0.005 A 
ATOM      9  C   UNL     1      -4.820  -7.133  -2.366  0.00  0.00    +0.011 A 
ATOM     10  C   UNL     1      -5.829  -8.030  -2.647  0.00  0.00    +0.020 A 
ATOM     11  C   UNL     1      -7.139  -7.728  -2.315  0.00  0.00    +0.041 A 
ATOM     12  C   UNL     1      -7.445  -6.526  -1.700  0.00  0.00    +0.020 A 
ATOM     13  C   UNL     1      -6.444  -5.623  -1.408  0.00  0.00    +0.011 A 
ATOM     14 CL   UNL     1      -8.404  -8.863  -2.671  0.00  0.00    -0.084 Cl
ENDBRANCH   7   8
ENDBRANCH   4   6
ENDBRANCH   1   2
BRANCH   1  15
ATOM     15  N   UNL     1       1.860  -4.164  -1.937  0.00  0.00    -0.300 N 
ATOM     16  C   UNL     1       2.854  -3.329  -2.298  0.00  0.00    +0.245 C 
ATOM     17  O   UNL     1       2.686  -2.127  -2.251  0.00  0.00    -0.270 OA
ATOM     18  H   UNL     1       1.994  -5.124  -1.974  0.00  0.00    +0.150 HD
BRANCH  16  19
ATOM     19  C   UNL     1       4.150  -3.877  -2.752  0.00  0.00    +0.037 A 
ATOM     20  C   UNL     1       4.344  -5.258  -2.813  0.00  0.00    +0.014 A 
ATOM     21  C   UNL     1       5.554  -5.763  -3.239  0.00  0.00    +0.021 A 
ATOM     22  C   UNL     1       6.577  -4.904  -3.604  0.00  0.00    +0.041 A 
ATOM     23  C   UNL     1       6.390  -3.532  -3.546  0.00  0.00    +0.021 A 
ATOM     24  C   UNL     1       5.182  -3.015  -3.128  0.00  0.00    +0.014 A 
ATOM     25 CL   UNL     1       8.099  -5.547  -4.137  0.00  0.00    -0.084 Cl
ENDBRANCH  16  19
ENDBRANCH   1  15
BRANCH   1  26
ATOM     26  C   UNL     1       0.628  -3.373   0.023  0.00  0.00    +0.065 C 
BRANCH  26  33
ATOM     27  C   UNL     1       4.569  -5.201   1.500  0.00  0.00    +0.001 A 
ATOM     28  C   UNL     1       4.412  -6.447   2.122  0.00  0.00    +0.002 A 
ATOM     29  C   UNL     1       3.210  -7.043   2.268  0.00  0.00    +0.026 A 
ATOM     30  C   UNL     1       2.031  -6.412   1.783  0.00  0.00    +0.043 A 
ATOM     31  N   UNL     1       0.773  -6.780   1.802  0.00  0.00    -0.380 N 
ATOM     32  C   UNL     1      -0.030  -5.737   1.154  0.00  0.00    +0.144 C 
ATOM     33  C   UNL     1       0.949  -4.663   0.733  0.00  0.00    -0.039 C 
ATOM     34  C   UNL     1       2.170  -5.095   1.121  0.00  0.00    -0.001 A 
ATOM     35  C   UNL     1       3.513  -4.516   1.004  0.00  0.00    +0.010 A 
ATOM     36  H   UNL     1       0.430  -7.605   2.181  0.00  0.00    +0.160 HD
ENDBRANCH  26  33
ENDBRANCH   1  26
TORSDOF 7
