REMARK  Name = ZINC66132239
REMARK  9 active torsions:
REMARK  status: ('A' for Active; 'I' for Inactive)
REMARK    1  A    between atoms: C_1  and  C_2
REMARK    2  A    between atoms: C_2  and  C_3
REMARK    3  A    between atoms: C_3  and  C_4
REMARK    4  A    between atoms: C_4  and  C_5
REMARK    5  A    between atoms: C_5  and  O_6
REMARK    6  A    between atoms: O_6  and  C_7
REMARK    7  A    between atoms: C_16  and  C_17
REMARK    8  A    between atoms: N_28  and  C_29
REMARK    9  A    between atoms: C_29  and  C_30
REMARK                            x       y       z     vdW  Elec       q    Type
REMARK                         _______ _______ _______ _____ _____    ______ ____
ROOT
ATOM      1  C   UNL     1       1.001  -6.488  -2.554  0.00  0.00    +0.197 C 
ATOM      2  N   UNL     1      -0.413  -6.800  -2.793  0.00  0.00    -0.321 N 
ATOM      3  C   UNL     1      -1.366  -5.832  -2.496  0.00  0.00    +0.041 A 
ATOM      4  C   UNL     1      -2.561  -5.744  -3.187  0.00  0.00    +0.024 A 
ATOM      5  C   UNL     1      -3.473  -4.760  -2.854  0.00  0.00    +0.002 A 
ATOM      6  C   UNL     1      -3.199  -3.862  -1.835  0.00  0.00    +0.001 A 
ATOM      7  C   UNL     1      -2.013  -3.936  -1.135  0.00  0.00    +0.015 A 
ATOM      8  C   UNL     1      -1.086  -4.924  -1.459  0.00  0.00    +0.058 A 
ATOM      9  C   UNL     1       0.194  -5.054  -0.739  0.00  0.00    +0.250 C 
ATOM     10  O   UNL     1       0.371  -4.465   0.310  0.00  0.00    -0.270 OA
ATOM     11  N   UNL     1       1.161  -5.833  -1.256  0.00  0.00    -0.272 N 
ATOM     12  H   UNL     1      -0.677  -7.662  -3.150  0.00  0.00    +0.148 HD
ENDROOT
BRANCH   1  22
ATOM     13  C   UNL     1       1.524  -4.219  -3.441  0.00  0.00    +0.128 A 
ATOM     14  C   UNL     1       1.989  -3.355  -4.437  0.00  0.00    +0.046 A 
ATOM     15  C   UNL     1       2.424  -3.835  -5.633  0.00  0.00    +0.012 A 
ATOM     16  C   UNL     1       2.408  -5.220  -5.875  0.00  0.00    -0.017 A 
ATOM     17  C   UNL     1       2.851  -5.751  -7.098  0.00  0.00    +0.008 A 
ATOM     18  C   UNL     1       2.822  -7.097  -7.298  0.00  0.00    +0.001 A 
ATOM     19  C   UNL     1       2.360  -7.960  -6.307  0.00  0.00    +0.001 A 
ATOM     20  C   UNL     1       1.923  -7.483  -5.110  0.00  0.00    +0.009 A 
ATOM     21  C   UNL     1       1.938  -6.098  -4.866  0.00  0.00    -0.008 A 
ATOM     22  C   UNL     1       1.500  -5.570  -3.641  0.00  0.00    +0.040 A 
BRANCH  13  23
ATOM     23  O   UNL     1       1.096  -3.709  -2.257  0.00  0.00    -0.492 OA
BRANCH  23  24
ATOM     24  C   UNL     1       1.258  -2.303  -2.060  0.00  0.00    +0.229 C 
BRANCH  24  25
ATOM     25  C   UNL     1       0.854  -1.938  -0.630  0.00  0.00    +0.041 C 
BRANCH  25  26
ATOM     26  C   UNL     1       0.916  -0.419  -0.454  0.00  0.00    +0.003 C 
BRANCH  26  28
ATOM     27  C   UNL     1       0.457   1.473   1.111  0.00  0.00    +0.004 C 
ATOM     28  C   UNL     1       0.396  -0.045   0.935  0.00  0.00    -0.003 C 
ENDBRANCH  26  28
ENDBRANCH  25  26
ENDBRANCH  24  25
ENDBRANCH  23  24
ENDBRANCH  13  23
ENDBRANCH   1  22
BRANCH  11  29
ATOM     29  C   UNL     1       2.402  -6.027  -0.501  0.00  0.00    +0.141 C 
BRANCH  29  30
ATOM     30  C   UNL     1       3.364  -4.875  -0.797  0.00  0.00    +0.136 C 
ATOM     31  C   UNL     1       4.655  -5.022   0.048  0.00  0.00    +0.035 C 
ATOM     32  C   UNL     1       5.669  -4.230  -0.822  0.00  0.00    +0.031 C 
ATOM     33  C   UNL     1       5.175  -4.529  -2.254  0.00  0.00    +0.160 C 
ATOM     34  O   UNL     1       3.801  -4.929  -2.164  0.00  0.00    -0.375 OA
ENDBRANCH  29  30
ENDBRANCH  11  29
TORSDOF 8
