REMARK  Name = ZINC37250129
REMARK  16 active torsions:
REMARK  status: ('A' for Active; 'I' for Inactive)
REMARK    1  A    between atoms: C_2  and  C_36
REMARK    2  A    between atoms: C_4  and  O_16
REMARK    3  A    between atoms: C_6  and  O_11
REMARK    4  A    between atoms: C_8  and  O_10
REMARK    5  A    between atoms: O_11  and  S_12
REMARK    6  A    between atoms: O_16  and  C_17
REMARK    7  A    between atoms: C_17  and  C_19
REMARK    8  A    between atoms: C_17  and  C_24
REMARK    9  A    between atoms: C_19  and  C_21
REMARK   10  A    between atoms: C_19  and  O_23
REMARK   11  A    between atoms: C_21  and  O_22
REMARK   12  A    between atoms: C_24  and  C_26
REMARK   13  A    between atoms: C_24  and  O_35
REMARK   14  A    between atoms: C_26  and  C_28
REMARK   15  A    between atoms: C_26  and  N_30
REMARK   16  A    between atoms: N_30  and  S_31
REMARK                            x       y       z     vdW  Elec       q    Type
REMARK                         _______ _______ _______ _____ _____    ______ ____
ROOT
ATOM      1  C   UNL     1       4.865   0.260  -0.837  0.00  0.00    +0.183 C 
ENDROOT
BRANCH   1   2
ATOM      2  C   UNL     1       5.960  -0.787  -1.049  0.00  0.00    +0.171 C 
BRANCH   2   3
ATOM      3  O   UNL     1       6.923  -0.288  -1.979  0.00  0.00    -0.387 OA
ATOM      4  H   UNL     1       6.557  -0.077  -2.849  0.00  0.00    +0.210 HD
ENDBRANCH   2   3
BRANCH   2   5
ATOM      5  C   UNL     1       5.338  -2.072  -1.599  0.00  0.00    +0.172 C 
BRANCH   5   6
ATOM      6  N   UNL     1       6.364  -3.115  -1.681  0.00  0.00    -0.155 NA
ATOM      7  H   UNL     1       7.277  -2.881  -1.907  0.00  0.00    +0.151 HD
BRANCH   6   8
ATOM      8  S   UNL     1       5.963  -4.695  -1.386  0.00  0.00    +0.180 S 
ATOM      9  O   UNL     1       7.201  -5.459  -1.425  0.00  0.00    -0.128 OA
ATOM     10  O   UNL     1       5.340  -4.735  -0.072  0.00  0.00    -0.128 OA
ATOM     11  O   UNL     1       5.042  -5.100  -2.437  0.00  0.00    -0.032 OA
ENDBRANCH   6   8
ENDBRANCH   5   6
BRANCH   5  12
ATOM     12  C   UNL     1       4.778  -1.810  -2.974  0.00  0.00    +0.246 C 
ATOM     13  O   UNL     1       5.193  -2.431  -3.923  0.00  0.00    -0.299 OA
ENDBRANCH   5  12
ENDBRANCH   2   5
ENDBRANCH   1   2
BRANCH   1  14
ATOM     14  C   UNL     1       5.499   1.579  -0.391  0.00  0.00    +0.171 C 
BRANCH  14  15
ATOM     15  O   UNL     1       6.278   1.359   0.786  0.00  0.00    -0.387 OA
ATOM     16  H   UNL     1       5.771   1.018   1.536  0.00  0.00    +0.210 HD
ENDBRANCH  14  15
BRANCH  14  17
ATOM     17  C   UNL     1       4.398   2.598  -0.091  0.00  0.00    +0.189 C 
BRANCH  17  18
ATOM     18  O   UNL     1       4.990   3.866   0.199  0.00  0.00    -0.392 OA
ATOM     19  H   UNL     1       4.349   4.562   0.399  0.00  0.00    +0.210 HD
ENDBRANCH  17  18
ENDBRANCH  14  17
ENDBRANCH   1  14
BRANCH   1  20
ATOM     20  O   UNL     1       3.958  -0.197   0.169  0.00  0.00    -0.331 OA
BRANCH  20  24
ATOM     21  C   UNL     1      -0.001  -0.966  -0.709  0.00  0.00    +0.060 C 
ATOM     22  C   UNL     1       0.644   0.099  -1.168  0.00  0.00    +0.210 C 
ATOM     23  O   UNL     1       1.940   0.360  -0.873  0.00  0.00    -0.454 OA
ATOM     24  C   UNL     1       2.729  -0.711  -0.347  0.00  0.00    +0.343 C 
ATOM     25  C   UNL     1       1.935  -1.386   0.780  0.00  0.00    +0.252 C 
ATOM     26  C   UNL     1       0.660  -1.984   0.179  0.00  0.00    +0.178 C 
BRANCH  22  27
ATOM     27  C   UNL     1      -0.081   1.038  -2.038  0.00  0.00    +0.420 C 
ATOM     28  O   UNL     1      -1.253   0.828  -2.323  0.00  0.00    -0.237 OA
ATOM     29  O   UNL     1       0.487   2.028  -2.477  0.00  0.00    -0.237 OA
ENDBRANCH  22  27
BRANCH  26  30
ATOM     30  O   UNL     1       0.994  -3.142  -0.591  0.00  0.00    -0.385 OA
ATOM     31  H   UNL     1       0.233  -3.573  -1.002  0.00  0.00    +0.210 HD
ENDBRANCH  26  30
BRANCH  25  32
ATOM     32  O   UNL     1       1.592  -0.417   1.774  0.00  0.00    -0.201 OA
BRANCH  32  33
ATOM     33  S   UNL     1       1.597  -0.961   3.196  0.00  0.00    +0.239 S 
ATOM     34  O   UNL     1       0.895   0.010   4.021  0.00  0.00    -0.116 OA
ATOM     35  O   UNL     1       0.909  -2.242   3.160  0.00  0.00    -0.116 OA
ATOM     36  O   UNL     1       2.990  -1.103   3.589  0.00  0.00    -0.022 OA
ENDBRANCH  32  33
ENDBRANCH  25  32
ENDBRANCH  20  24
ENDBRANCH   1  20
TORSDOF 16
