REMARK  Name = ZINC41326546
REMARK  7 active torsions:
REMARK  status: ('A' for Active; 'I' for Inactive)
REMARK    1  A    between atoms: C_4  and  S_21
REMARK    2  A    between atoms: C_5  and  N_7
REMARK    3  A    between atoms: C_8  and  C_10
REMARK    4  A    between atoms: N_12  and  C_13
REMARK    5  A    between atoms: C_13  and  C_14
REMARK    6  A    between atoms: C_17  and  O_20
REMARK    7  A    between atoms: S_21  and  C_22
REMARK                            x       y       z     vdW  Elec       q    Type
REMARK                         _______ _______ _______ _____ _____    ______ ____
ROOT
ATOM      1  N   UNL     1       1.234  -2.080  -0.021  0.00  0.00    -0.277 N 
ATOM      2  C   UNL     1       0.083  -2.772   0.088  0.00  0.00    +0.303 C 
ATOM      3  O   UNL     1      -0.979  -2.185   0.102  0.00  0.00    -0.265 OA
ATOM      4  H   UNL     1       2.077  -2.551  -0.113  0.00  0.00    +0.155 HD
ENDROOT
BRANCH   1   9
ATOM      5  C   UNL     1       0.153   1.373   0.636  0.00  0.00    +0.002 A 
ATOM      6  C   UNL     1       1.172   2.090   0.036  0.00  0.00    +0.001 A 
ATOM      7  C   UNL     1       2.215   1.430  -0.586  0.00  0.00    +0.017 A 
ATOM      8  C   UNL     1       2.242   0.042  -0.609  0.00  0.00    +0.034 A 
ATOM      9  C   UNL     1       1.214  -0.681  -0.002  0.00  0.00    +0.047 A 
ATOM     10  C   UNL     1       0.171  -0.009   0.619  0.00  0.00    +0.024 A 
BRANCH   8  11
ATOM     11  S   UNL     1       3.570  -0.803  -1.401  0.00  0.00    -0.054 S 
BRANCH  11  12
ATOM     12  C   UNL     1       4.630   0.531  -2.023  0.00  0.00    +0.404 C 
ATOM     13  F   UNL     1       3.903   1.326  -2.917  0.00  0.00    -0.197 F 
ATOM     14  F   UNL     1       5.069   1.317  -0.952  0.00  0.00    -0.197 F 
ENDBRANCH  11  12
ENDBRANCH   8  11
ENDBRANCH   1   9
BRANCH   2  15
ATOM     15  C   UNL     1       0.115  -4.261   0.191  0.00  0.00    +0.300 C 
ATOM     16  O   UNL     1       1.177  -4.848   0.177  0.00  0.00    -0.265 OA
ATOM     17  N   UNL     1      -1.037  -4.954   0.300  0.00  0.00    -0.303 N 
ATOM     18  H   UNL     1      -1.886  -4.485   0.311  0.00  0.00    +0.149 HD
BRANCH  17  19
ATOM     19  C   UNL     1      -1.006  -6.415   0.402  0.00  0.00    +0.140 C 
BRANCH  19  20
ATOM     20  C   UNL     1      -2.414  -6.941   0.513  0.00  0.00    -0.030 A 
ATOM     21  C   UNL     1      -2.998  -7.091   1.756  0.00  0.00    +0.009 A 
ATOM     22  C   UNL     1      -4.289  -7.574   1.861  0.00  0.00    +0.046 A 
ATOM     23  C   UNL     1      -4.998  -7.906   0.716  0.00  0.00    +0.117 A 
ATOM     24  C   UNL     1      -4.410  -7.753  -0.531  0.00  0.00    +0.046 A 
ATOM     25  C   UNL     1      -3.121  -7.266  -0.630  0.00  0.00    +0.009 A 
BRANCH  23  26
ATOM     26  O   UNL     1      -6.268  -8.381   0.816  0.00  0.00    -0.507 OA
ATOM     27  H   UNL     1      -6.947  -7.693   0.798  0.00  0.00    +0.292 HD
ENDBRANCH  23  26
ENDBRANCH  19  20
ENDBRANCH  17  19
ENDBRANCH   2  15
TORSDOF 7
