REMARK  Name = ZINC20190181
REMARK  14 active torsions:
REMARK  status: ('A' for Active; 'I' for Inactive)
REMARK    1  A    between atoms: C_1  and  C_2
REMARK    2  A    between atoms: C_2  and  O_3
REMARK    3  A    between atoms: O_3  and  C_4
REMARK    4  A    between atoms: C_9  and  N_10
REMARK    5  A    between atoms: N_13  and  C_16
REMARK    6  A    between atoms: C_16  and  C_17
REMARK    7  A    between atoms: N_19  and  C_20
REMARK    8  A    between atoms: C_21  and  C_29
REMARK    9  A    between atoms: C_22  and  C_28
REMARK   10  A    between atoms: C_23  and  C_25
REMARK   11  A    between atoms: C_29  and  O_31
REMARK   12  A    between atoms: O_31  and  C_32
REMARK   13  A    between atoms: C_32  and  C_33
REMARK   14  A    between atoms: C_32  and  C_34
REMARK                            x       y       z     vdW  Elec       q    Type
REMARK                         _______ _______ _______ _____ _____    ______ ____
ROOT
ATOM      1  C   UNL     1      -0.718   1.572   1.248  0.00  0.00    +0.201 C 
ATOM      2  O   UNL     1      -1.714   2.256   1.150  0.00  0.00    -0.278 OA
ATOM      3  N   UNL     1      -0.242   1.246   2.466  0.00  0.00    -0.281 N 
ATOM      4  H   UNL     1       0.662   0.625   2.555  0.00  0.00    +0.155 HD
ENDROOT
BRANCH   3   5
ATOM      5  C   UNL     1      -0.888   1.691   3.602  0.00  0.00    +0.087 A 
ATOM      6  C   UNL     1      -0.554   1.463   4.941  0.00  0.00    +0.091 A 
ATOM      7  C   UNL     1      -1.368   2.025   5.914  0.00  0.00    -0.015 A 
ATOM      8  C   UNL     1      -2.441   2.762   5.496  0.00  0.00    +0.079 A 
ATOM      9  S   UNL     1      -2.309   2.677   3.720  0.00  0.00    -0.068 S 
ATOM     10  C   UNL     1      -1.080   1.828   7.380  0.00  0.00    +0.046 C 
BRANCH   8  11
ATOM     11  C   UNL     1      -3.446   3.455   6.306  0.00  0.00    +0.248 C 
ATOM     12  O   UNL     1      -3.383   3.413   7.521  0.00  0.00    -0.270 OA
ATOM     13  N   UNL     1      -4.441   4.138   5.706  0.00  0.00    -0.325 N 
ATOM     14  H   UNL     1      -5.196   4.658   6.314  0.00  0.00    +0.145 HD
ATOM     15  H   UNL     1      -4.498   4.176   4.608  0.00  0.00    +0.145 HD
ENDBRANCH   8  11
BRANCH   6  16
ATOM     16  C   UNL     1       0.617   0.658   5.304  0.00  0.00    +0.342 C 
ATOM     17  O   UNL     1       1.700   1.191   5.454  0.00  0.00    -0.245 OA
BRANCH  16  18
ATOM     18  O   UNL     1       0.494  -0.674   5.472  0.00  0.00    -0.458 OA
BRANCH  18  19
ATOM     19  C   UNL     1       1.694  -1.408   5.831  0.00  0.00    +0.171 C 
ATOM     20  C   UNL     1       1.823  -1.462   7.354  0.00  0.00    +0.052 C 
ATOM     21  C   UNL     1       1.608  -2.831   5.275  0.00  0.00    +0.052 C 
ENDBRANCH  18  19
ENDBRANCH  16  18
ENDBRANCH   6  16
ENDBRANCH   3   5
BRANCH   1  22
ATOM     22  C   UNL     1      -0.013   1.086   0.008  0.00  0.00    +0.019 C 
BRANCH  22  26
ATOM     23  N   UNL     1      -2.012   1.308  -3.707  0.00  0.00    -0.331 N 
ATOM     24  C   UNL     1      -0.677   1.914  -3.606  0.00  0.00    +0.086 C 
ATOM     25  C   UNL     1       0.059   1.323  -2.401  0.00  0.00    -0.059 C 
ATOM     26  N   UNL     1      -0.723   1.572  -1.182  0.00  0.00    +0.387 N 
ATOM     27  C   UNL     1      -2.058   0.966  -1.283  0.00  0.00    -0.059 C 
ATOM     28  C   UNL     1      -2.794   1.557  -2.488  0.00  0.00    +0.086 C 
ATOM     29  H   UNL     1      -0.851   2.660  -1.077  0.00  0.00    -0.081 HD
BRANCH  23  35
ATOM     30  C   UNL     1      -3.102   0.874  -5.823  0.00  0.00    +0.141 A 
ATOM     31  C   UNL     1      -3.772   1.339  -6.943  0.00  0.00    +0.047 A 
ATOM     32  C   UNL     1      -4.029   2.690  -7.084  0.00  0.00    +0.004 A 
ATOM     33  C   UNL     1      -3.619   3.581  -6.110  0.00  0.00    +0.002 A 
ATOM     34  C   UNL     1      -2.955   3.125  -4.987  0.00  0.00    +0.027 A 
ATOM     35  C   UNL     1      -2.689   1.772  -4.841  0.00  0.00    +0.072 A 
BRANCH  30  36
ATOM     36  O   UNL     1      -2.850  -0.455  -5.682  0.00  0.00    -0.490 OA
BRANCH  36  38
ATOM     37  C   UNL     1      -2.930  -2.762  -6.396  0.00  0.00    +0.048 C 
ATOM     38  C   UNL     1      -3.303  -1.316  -6.729  0.00  0.00    +0.226 C 
ENDBRANCH  36  38
ENDBRANCH  30  36
ENDBRANCH  23  35
ENDBRANCH  22  26
ENDBRANCH   1  22
TORSDOF 10
