REMARK  Name = ZINC01785773
REMARK  6 active torsions:
REMARK  status: ('A' for Active; 'I' for Inactive)
REMARK    1  A    between atoms: C_4  and  C_7
REMARK    2  A    between atoms: C_7  and  N_8
REMARK    3  A    between atoms: C_11  and  N_16
REMARK    4  A    between atoms: N_16  and  C_17
REMARK    5  A    between atoms: C_21  and  C_23
REMARK    6  A    between atoms: N_25  and  C_26
REMARK                            x       y       z     vdW  Elec       q    Type
REMARK                         _______ _______ _______ _____ _____    ______ ____
ROOT
ATOM      1  C   UNL     1      -4.102   5.833  -5.590  0.00  0.00    +0.032 A 
ATOM      2  C   UNL     1      -4.671   4.575  -5.759  0.00  0.00    +0.023 A 
ATOM      3  C   UNL     1      -5.098   4.168  -7.008  0.00  0.00    +0.003 A 
ATOM      4  C   UNL     1      -4.954   5.002  -8.099  0.00  0.00    +0.013 A 
ATOM      5  C   UNL     1      -4.379   6.264  -7.941  0.00  0.00    +0.039 A 
ATOM      6  C   UNL     1      -3.952   6.678  -6.679  0.00  0.00    +0.036 A 
ENDROOT
BRANCH   5   7
ATOM      7  C   UNL     1      -4.223   7.159  -9.107  0.00  0.00    +0.248 C 
ATOM      8  O   UNL     1      -3.721   8.258  -8.967  0.00  0.00    -0.270 OA
ATOM      9  N   UNL     1      -4.636   6.757 -10.325  0.00  0.00    -0.281 N 
ATOM     10  H   UNL     1      -5.098   5.910 -10.425  0.00  0.00    +0.155 HD
BRANCH   9  11
ATOM     11  C   UNL     1      -4.397   7.561 -11.445  0.00  0.00    +0.035 A 
ATOM     12  C   UNL     1      -5.306   7.578 -12.495  0.00  0.00    +0.025 A 
ATOM     13  C   UNL     1      -5.072   8.377 -13.597  0.00  0.00    +0.023 A 
ATOM     14  C   UNL     1      -3.927   9.151 -13.662  0.00  0.00    +0.059 A 
ATOM     15  C   UNL     1      -3.016   9.132 -12.619  0.00  0.00    +0.061 A 
ATOM     16  C   UNL     1      -3.249   8.338 -11.511  0.00  0.00    +0.044 A 
ATOM     17 CL   UNL     1      -1.580  10.104 -12.703  0.00  0.00    -0.082 Cl
ATOM     18 CL   UNL     1      -3.633  10.148 -15.052  0.00  0.00    -0.082 Cl
ENDBRANCH   9  11
ENDBRANCH   5   7
BRANCH   1  19
ATOM     19  N   UNL     1      -3.676   6.242  -4.324  0.00  0.00    -0.309 N 
ATOM     20  H   UNL     1      -3.369   7.151  -4.187  0.00  0.00    +0.152 HD
BRANCH  19  24
ATOM     21  N   UNL     1      -3.266   3.486  -2.005  0.00  0.00    -0.228 N 
ATOM     22  C   UNL     1      -2.990   4.044  -3.198  0.00  0.00    +0.269 C 
ATOM     23  O   UNL     1      -2.291   3.562  -4.065  0.00  0.00    -0.268 OA
ATOM     24  C   UNL     1      -3.692   5.352  -3.270  0.00  0.00    +0.118 C 
ATOM     25  C   UNL     1      -4.350   5.499  -2.091  0.00  0.00    +0.129 C 
ATOM     26  C   UNL     1      -4.067   4.299  -1.295  0.00  0.00    +0.267 C 
ATOM     27  O   UNL     1      -4.489   4.077  -0.177  0.00  0.00    -0.269 OA
ATOM     28 CL   UNL     1      -5.335   6.848  -1.617  0.00  0.00    -0.076 Cl
BRANCH  21  29
ATOM     29  C   UNL     1      -2.764   2.189  -1.546  0.00  0.00    +0.152 C 
BRANCH  29  33
ATOM     30  C   UNL     1      -5.508  -0.882  -2.678  0.00  0.00    +0.000 A 
ATOM     31  C   UNL     1      -5.648  -0.245  -1.459  0.00  0.00    +0.000 A 
ATOM     32  C   UNL     1      -4.763   0.753  -1.095  0.00  0.00    +0.005 A 
ATOM     33  C   UNL     1      -3.732   1.105  -1.945  0.00  0.00    -0.030 A 
ATOM     34  C   UNL     1      -3.592   0.468  -3.164  0.00  0.00    +0.005 A 
ATOM     35  C   UNL     1      -4.480  -0.526  -3.530  0.00  0.00    +0.000 A 
ENDBRANCH  29  33
ENDBRANCH  21  29
ENDBRANCH  19  24
ENDBRANCH   1  19
TORSDOF 6
