REMARK  Name = ZINC67406476
REMARK  9 active torsions:
REMARK  status: ('A' for Active; 'I' for Inactive)
REMARK    1  A    between atoms: C_1  and  C_2
REMARK    2  A    between atoms: C_7  and  C_11
REMARK    3  A    between atoms: C_11  and  N_12
REMARK    4  A    between atoms: N_15  and  C_16
REMARK    5  A    between atoms: C_16  and  C_17
REMARK    6  A    between atoms: C_21  and  C_23
REMARK    7  A    between atoms: N_25  and  C_26
REMARK    8  A    between atoms: C_26  and  C_27
REMARK    9  A    between atoms: C_26  and  C_28
REMARK                            x       y       z     vdW  Elec       q    Type
REMARK                         _______ _______ _______ _____ _____    ______ ____
ROOT
ATOM      1  N   UNL     1       1.471  -5.968   2.492  0.00  0.00    -0.294 N 
ATOM      2  C   UNL     1       1.735  -7.130   3.123  0.00  0.00    +0.300 C 
ATOM      3  O   UNL     1       0.825  -7.792   3.584  0.00  0.00    -0.253 OA
ATOM      4  N   UNL     1       3.007  -7.559   3.241  0.00  0.00    -0.295 N 
ATOM      5  H   UNL     1       2.197  -5.441   2.124  0.00  0.00    +0.151 HD
ATOM      6  H   UNL     1       3.733  -7.031   2.873  0.00  0.00    +0.151 HD
ENDROOT
BRANCH   1   7
ATOM      7  C   UNL     1       0.088  -5.503   2.364  0.00  0.00    +0.160 C 
BRANCH   7  14
ATOM      8  C   UNL     1      -0.018   1.503   0.010  0.00  0.00    +0.045 C 
ATOM      9  C   UNL     1       0.002  -0.004   0.002  0.00  0.00    -0.034 A 
ATOM     10  C   UNL     1       0.006  -0.697  -1.220  0.00  0.00    +0.008 A 
ATOM     11  C   UNL     1       0.025  -2.057  -1.224  0.00  0.00    +0.045 A 
ATOM     12  C   UNL     1       0.040  -2.750   0.003  0.00  0.00    +0.115 A 
ATOM     13  N   UNL     1       0.059  -4.043   0.297  0.00  0.00    -0.342 N 
ATOM     14  C   UNL     1       0.067  -4.189   1.625  0.00  0.00    +0.051 A 
ATOM     15  C   UNL     1       0.053  -2.964   2.194  0.00  0.00    +0.115 A 
ATOM     16  N   UNL     1       0.036  -2.047   1.179  0.00  0.00    -0.308 N 
ATOM     17  C   UNL     1       0.022  -0.682   1.169  0.00  0.00    +0.096 A 
ATOM     18  H   UNL     1       0.066  -4.766  -0.348  0.00  0.00    +0.167 HD
ENDBRANCH   7  14
ENDBRANCH   1   7
BRANCH   4  19
ATOM     19  C   UNL     1       3.294  -8.822   3.926  0.00  0.00    +0.141 C 
BRANCH  19  20
ATOM     20  C   UNL     1       4.780  -9.069   3.921  0.00  0.00    -0.030 A 
ATOM     21  C   UNL     1       5.362  -9.765   2.876  0.00  0.00    +0.005 A 
ATOM     22  C   UNL     1       6.725  -9.996   2.864  0.00  0.00    +0.001 A 
ATOM     23  C   UNL     1       7.516  -9.534   3.896  0.00  0.00    +0.013 A 
ATOM     24  C   UNL     1       6.936  -8.831   4.954  0.00  0.00    +0.037 A 
ATOM     25  C   UNL     1       5.560  -8.597   4.957  0.00  0.00    +0.018 A 
BRANCH  24  26
ATOM     26  C   UNL     1       7.777  -8.334   6.064  0.00  0.00    +0.244 C 
ATOM     27  O   UNL     1       7.269  -7.722   6.983  0.00  0.00    -0.270 OA
ATOM     28  N   UNL     1       9.105  -8.558   6.055  0.00  0.00    -0.309 N 
ATOM     29  H   UNL     1       9.510  -9.046   5.321  0.00  0.00    +0.149 HD
BRANCH  28  30
ATOM     30  C   UNL     1       9.938  -8.065   7.155  0.00  0.00    +0.067 C 
ATOM     31  C   UNL     1       9.923  -9.078   8.301  0.00  0.00    +0.027 C 
ATOM     32  C   UNL     1      11.374  -7.875   6.662  0.00  0.00    +0.027 C 
ENDBRANCH  28  30
ENDBRANCH  24  26
ENDBRANCH  19  20
ENDBRANCH   4  19
TORSDOF 6
