REMARK  Name = ZINC36500666
REMARK  10 active torsions:
REMARK  status: ('A' for Active; 'I' for Inactive)
REMARK    1  A    between atoms: C_1  and  C_2
REMARK    2  A    between atoms: C_5  and  C_8
REMARK    3  A    between atoms: C_8  and  C_10
REMARK    4  A    between atoms: C_8  and  N_19
REMARK    5  A    between atoms: N_12  and  C_13
REMARK    6  A    between atoms: N_19  and  C_20
REMARK    7  A    between atoms: C_20  and  C_21
REMARK    8  A    between atoms: C_26  and  C_28
REMARK    9  A    between atoms: C_29  and  O_35
REMARK   10  A    between atoms: C_33  and  O_34
REMARK                            x       y       z     vdW  Elec       q    Type
REMARK                         _______ _______ _______ _____ _____    ______ ____
ROOT
ATOM      1  N   UNL     1      -0.756  -4.763   1.052  0.00  0.00    -0.274 N 
ATOM      2  C   UNL     1      -2.095  -4.795   0.899  0.00  0.00    +0.255 C 
ATOM      3  O   UNL     1      -2.613  -4.226  -0.042  0.00  0.00    -0.270 OA
ENDROOT
BRANCH   2   4
ATOM      4  C   UNL     1      -2.929  -5.519   1.872  0.00  0.00    +0.119 A 
ATOM      5  C   UNL     1      -3.435  -4.857   3.000  0.00  0.00    +0.133 A 
ATOM      6  C   UNL     1      -4.220  -5.548   3.909  0.00  0.00    +0.046 A 
ATOM      7  C   UNL     1      -4.506  -6.886   3.707  0.00  0.00    +0.007 A 
ATOM      8  C   UNL     1      -4.012  -7.548   2.598  0.00  0.00    +0.046 A 
ATOM      9  C   UNL     1      -3.230  -6.875   1.674  0.00  0.00    +0.133 A 
BRANCH   9  10
ATOM     10  O   UNL     1      -2.752  -7.526   0.584  0.00  0.00    -0.506 OA
ATOM     11  H   UNL     1      -1.889  -7.941   0.720  0.00  0.00    +0.292 HD
ENDBRANCH   9  10
BRANCH   5  12
ATOM     12  O   UNL     1      -3.156  -3.545   3.202  0.00  0.00    -0.506 OA
ATOM     13  H   UNL     1      -3.798  -2.941   2.805  0.00  0.00    +0.292 HD
ENDBRANCH   5  12
ENDBRANCH   2   4
BRANCH   1  14
ATOM     14  C   UNL     1       0.075  -4.042   0.085  0.00  0.00    +0.193 C 
BRANCH  14  19
ATOM     15  C   UNL     1      -1.265   1.578   0.207  0.00  0.00    +0.044 C 
ATOM     16  C   UNL     1      -0.915   0.112   0.175  0.00  0.00    -0.050 A 
ATOM     17  C   UNL     1      -0.561  -0.488  -1.019  0.00  0.00    +0.004 A 
ATOM     18  C   UNL     1      -0.240  -1.833  -1.048  0.00  0.00    +0.006 A 
ATOM     19  C   UNL     1      -0.274  -2.576   0.117  0.00  0.00    -0.018 A 
ATOM     20  C   UNL     1      -0.627  -1.976   1.311  0.00  0.00    +0.006 A 
ATOM     21  C   UNL     1      -0.944  -0.631   1.340  0.00  0.00    +0.004 A 
ENDBRANCH  14  19
BRANCH  14  22
ATOM     22  C   UNL     1       1.529  -4.221   0.440  0.00  0.00    +0.238 C 
ATOM     23  O   UNL     1       1.844  -4.945   1.360  0.00  0.00    -0.273 OA
ATOM     24  N   UNL     1       2.479  -3.576  -0.266  0.00  0.00    -0.311 N 
ATOM     25  H   UNL     1       2.227  -2.997  -1.003  0.00  0.00    +0.149 HD
BRANCH  24  26
ATOM     26  C   UNL     1       3.892  -3.749   0.079  0.00  0.00    +0.073 C 
ATOM     27  C   UNL     1       4.268  -2.774   1.196  0.00  0.00    +0.022 C 
ATOM     28  C   UNL     1       5.744  -2.955   1.556  0.00  0.00    +0.002 C 
ATOM     29  C   UNL     1       6.607  -2.677   0.324  0.00  0.00    +0.000 C 
ATOM     30  C   UNL     1       6.231  -3.652  -0.793  0.00  0.00    +0.002 C 
ATOM     31  C   UNL     1       4.755  -3.470  -1.153  0.00  0.00    +0.022 C 
ENDBRANCH  24  26
ENDBRANCH  14  22
ENDBRANCH   1  14
BRANCH   1  32
ATOM     32  C   UNL     1      -0.132  -5.449   2.187  0.00  0.00    +0.183 C 
BRANCH  32  33
ATOM     33  C   UNL     1       0.335  -4.430   3.195  0.00  0.00    +0.122 A 
ATOM     34  C   UNL     1      -0.349  -4.028   4.281  0.00  0.00    +0.046 A 
ATOM     35  C   UNL     1       0.455  -3.070   4.940  0.00  0.00    +0.041 A 
ATOM     36  C   UNL     1       1.582  -2.944   4.217  0.00  0.00    +0.195 A 
ATOM     37  O   UNL     1       1.506  -3.775   3.164  0.00  0.00    -0.466 OA
ENDBRANCH  32  33
ENDBRANCH   1  32
TORSDOF 9
