REMARK  Name = ZINC20213784
REMARK  11 active torsions:
REMARK  status: ('A' for Active; 'I' for Inactive)
REMARK    1  A    between atoms: C_1  and  C_2
REMARK    2  A    between atoms: C_2  and  O_3
REMARK    3  A    between atoms: O_3  and  C_4
REMARK    4  A    between atoms: C_4  and  C_6
REMARK    5  A    between atoms: C_7  and  C_21
REMARK    6  A    between atoms: C_12  and  C_14
REMARK    7  A    between atoms: C_17  and  C_20
REMARK    8  A    between atoms: C_21  and  N_22
REMARK    9  A    between atoms: N_22  and  C_23
REMARK   10  A    between atoms: C_23  and  C_24
REMARK   11  A    between atoms: C_24  and  C_25
REMARK                            x       y       z     vdW  Elec       q    Type
REMARK                         _______ _______ _______ _____ _____    ______ ____
ROOT
ATOM      1  C   UNL     1       2.971   4.491   1.455  0.00  0.00    +0.076 C 
ATOM      2  C   UNL     1       2.871   5.831   1.596  0.00  0.00    +0.007 C 
ATOM      3  N   UNL     1       2.519   6.626   0.543  0.00  0.00    -0.274 N 
ATOM      4  C   UNL     1       2.251   6.159  -0.683  0.00  0.00    +0.304 C 
ATOM      5  O   UNL     1       1.946   6.946  -1.558  0.00  0.00    -0.252 OA
ATOM      6  N   UNL     1       2.309   4.846  -0.979  0.00  0.00    -0.288 N 
ATOM      7  C   UNL     1       2.680   3.902   0.089  0.00  0.00    +0.143 C 
ATOM      8  H   UNL     1       2.443   7.715   0.678  0.00  0.00    +0.156 HD
ATOM      9  H   UNL     1       2.087   4.473  -1.990  0.00  0.00    +0.151 HD
ENDROOT
BRANCH   7  10
ATOM     10  C   UNL     1       1.557   2.909   0.242  0.00  0.00    -0.022 A 
ATOM     11  C   UNL     1       1.835   1.556   0.310  0.00  0.00    +0.006 A 
ATOM     12  C   UNL     1       0.806   0.645   0.450  0.00  0.00    +0.004 A 
ATOM     13  C   UNL     1      -0.503   1.085   0.516  0.00  0.00    -0.050 A 
ATOM     14  C   UNL     1      -0.781   2.438   0.454  0.00  0.00    +0.004 A 
ATOM     15  C   UNL     1       0.249   3.349   0.314  0.00  0.00    +0.006 A 
ATOM     16  C   UNL     1      -1.626   0.091   0.662  0.00  0.00    +0.044 C 
ENDBRANCH   7  10
BRANCH   1  17
ATOM     17  C   UNL     1       3.335   3.666   2.544  0.00  0.00    +0.339 C 
ATOM     18  O   UNL     1       3.674   4.167   3.600  0.00  0.00    -0.245 OA
BRANCH  17  19
ATOM     19  O   UNL     1       3.306   2.324   2.413  0.00  0.00    -0.462 OA
BRANCH  19  21
ATOM     20  C   UNL     1       3.591   0.062   3.217  0.00  0.00    +0.048 C 
ATOM     21  C   UNL     1       3.686   1.552   3.554  0.00  0.00    +0.229 C 
ENDBRANCH  19  21
ENDBRANCH  17  19
ENDBRANCH   1  17
BRANCH   2  22
ATOM     22  C   UNL     1       3.152   6.458   2.937  0.00  0.00    -0.030 C 
BRANCH  22  23
ATOM     23  N   UNL     1       4.596   6.696   3.073  0.00  0.00    +0.383 N 
ATOM     24  H   UNL     1       5.134   5.739   2.995  0.00  0.00    -0.085 HD
ATOM     25  H   UNL     1       4.933   7.372   2.274  0.00  0.00    -0.085 HD
BRANCH  23  26
ATOM     26  C   UNL     1       4.908   7.308   4.371  0.00  0.00    -0.077 C 
BRANCH  26  27
ATOM     27  C   UNL     1       6.417   7.539   4.476  0.00  0.00    +0.016 C 
BRANCH  27  28
ATOM     28  C   UNL     1       6.738   8.167   5.807  0.00  0.00    -0.049 A 
ATOM     29  C   UNL     1       6.757   9.543   5.936  0.00  0.00    +0.003 A 
ATOM     30  C   UNL     1       7.046  10.119   7.159  0.00  0.00    +0.000 A 
ATOM     31  C   UNL     1       7.327   9.319   8.251  0.00  0.00    +0.000 A 
ATOM     32  C   UNL     1       7.314   7.943   8.121  0.00  0.00    +0.000 A 
ATOM     33  C   UNL     1       7.019   7.367   6.899  0.00  0.00    +0.003 A 
ENDBRANCH  27  28
ENDBRANCH  26  27
ENDBRANCH  23  26
ENDBRANCH  22  23
ENDBRANCH   2  22
TORSDOF 9
