REMARK  Name = ZINC39030305
REMARK  10 active torsions:
REMARK  status: ('A' for Active; 'I' for Inactive)
REMARK    1  A    between atoms: C_1  and  C_2
REMARK    2  A    between atoms: C_2  and  C_3
REMARK    3  A    between atoms: C_5  and  C_16
REMARK    4  A    between atoms: C_6  and  O_15
REMARK    5  A    between atoms: C_8  and  O_9
REMARK    6  A    between atoms: O_9  and  C_10
REMARK    7  A    between atoms: C_10  and  C_11
REMARK    8  A    between atoms: N_13  and  N_14
REMARK    9  A    between atoms: C_18  and  C_23
REMARK   10  A    between atoms: C_19  and  C_22
REMARK                            x       y       z     vdW  Elec       q    Type
REMARK                         _______ _______ _______ _____ _____    ______ ____
ROOT
ATOM      1  C   UNL     1      -1.412  -0.526   0.013  0.00  0.00    -0.005 A 
ATOM      2  C   UNL     1      -2.014  -0.864   1.210  0.00  0.00    +0.016 A 
ATOM      3  C   UNL     1      -3.310  -1.342   1.223  0.00  0.00    +0.023 A 
ATOM      4  C   UNL     1      -4.010  -1.484   0.033  0.00  0.00    +0.126 A 
ATOM      5  C   UNL     1      -3.409  -1.146  -1.169  0.00  0.00    +0.091 A 
ATOM      6  C   UNL     1      -2.110  -0.661  -1.179  0.00  0.00    +0.128 A 
ENDROOT
BRANCH   3   7
ATOM      7  C   UNL     1      -3.963  -1.710   2.530  0.00  0.00    +0.164 C 
ATOM      8  C   UNL     1      -3.760  -3.184   2.837  0.00  0.00    +0.011 C 
ATOM      9  C   UNL     1      -3.057  -3.174   3.995  0.00  0.00    +0.064 C 
ATOM     10  N   UNL     1      -2.829  -1.918   4.396  0.00  0.00    -0.182 NA
ATOM     11  N   UNL     1      -3.290  -1.041   3.656  0.00  0.00    -0.297 N 
ATOM     12  C   UNL     1      -2.597  -4.407   4.730  0.00  0.00    +0.068 C 
ATOM     13  H   UNL     1      -3.221  -0.083   3.792  0.00  0.00    +0.183 HD
BRANCH   8  14
ATOM     14  C   UNL     1      -4.218  -4.346   2.061  0.00  0.00    -0.014 A 
ATOM     15  C   UNL     1      -3.707  -4.580   0.779  0.00  0.00    +0.012 A 
ATOM     16  C   UNL     1      -4.139  -5.668   0.055  0.00  0.00    +0.050 A 
ATOM     17  C   UNL     1      -5.082  -6.538   0.591  0.00  0.00    +0.162 A 
ATOM     18  C   UNL     1      -5.593  -6.313   1.867  0.00  0.00    +0.163 A 
ATOM     19  C   UNL     1      -5.161  -5.225   2.603  0.00  0.00    +0.057 A 
ATOM     20  O   UNL     1      -6.511  -7.160   2.409  0.00  0.00    -0.485 OA
ATOM     21  C   UNL     1      -7.194  -8.034   1.503  0.00  0.00    +0.270 C 
ATOM     22  C   UNL     1      -6.154  -8.660   0.564  0.00  0.00    +0.270 C 
ATOM     23  O   UNL     1      -5.497  -7.604  -0.145  0.00  0.00    -0.485 OA
ENDBRANCH   8  14
ENDBRANCH   3   7
BRANCH   1  25
ATOM     24  C   UNL     1      -0.019   1.526   0.010  0.00  0.00    +0.009 C 
ATOM     25  C   UNL     1       0.002  -0.004   0.002  0.00  0.00    +0.035 C 
ENDBRANCH   1  25
BRANCH   4  26
ATOM     26  O   UNL     1      -5.285  -1.956   0.047  0.00  0.00    -0.506 OA
ATOM     27  H   UNL     1      -5.958  -1.266   0.131  0.00  0.00    +0.292 HD
ENDBRANCH   4  26
BRANCH   6  28
ATOM     28  O   UNL     1      -1.519  -0.323  -2.355  0.00  0.00    -0.482 OA
BRANCH  28  29
ATOM     29  C   UNL     1      -2.297  -0.488  -3.542  0.00  0.00    +0.325 C 
BRANCH  29  30
ATOM     30  C   UNL     1      -1.483  -0.065  -4.739  0.00  0.00    +0.264 C 
ATOM     31  O   UNL     1      -0.349   0.337  -4.589  0.00  0.00    -0.271 OA
ATOM     32  N   UNL     1      -2.016  -0.135  -5.975  0.00  0.00    -0.251 N 
ATOM     33  H   UNL     1      -2.923  -0.457  -6.094  0.00  0.00    +0.169 HD
BRANCH  32  34
ATOM     34  N   UNL     1      -1.278   0.248  -7.059  0.00  0.00    -0.254 NA
ATOM     35  H   UNL     1      -1.807   0.140  -7.912  0.00  0.00    +0.140 HD
ATOM     36  H   UNL     1      -0.948   1.195  -6.955  0.00  0.00    +0.140 HD
ENDBRANCH  32  34
ENDBRANCH  29  30
ENDBRANCH  28  29
ENDBRANCH   6  28
TORSDOF 8
