REMARK  Name = ZINC63196565
REMARK  4 active torsions:
REMARK  status: ('A' for Active; 'I' for Inactive)
REMARK    1  A    between atoms: C_1  and  C_2
REMARK    2  A    between atoms: C_2  and  C_4
REMARK    3  A    between atoms: C_2  and  N_22
REMARK    4  A    between atoms: C_12  and  C_20
REMARK                            x       y       z     vdW  Elec       q    Type
REMARK                         _______ _______ _______ _____ _____    ______ ____
ROOT
ATOM      1  C   UNL     1      -1.443  -0.710  -0.211  0.00  0.00    +0.060 C 
ATOM      2  C   UNL     1      -0.834  -2.114  -0.150  0.00  0.00    +0.021 C 
ATOM      3  C   UNL     1      -1.873  -3.138  -0.611  0.00  0.00    +0.003 C 
ATOM      4  C   UNL     1      -2.271  -2.847  -2.060  0.00  0.00    +0.019 C 
ATOM      5  C   UNL     1      -2.897  -1.451  -2.143  0.00  0.00    +0.107 C 
ATOM      6  N   UNL     1      -1.962  -0.475  -1.566  0.00  0.00    -0.313 N 
ATOM      7  C   UNL     1      -1.574   0.641  -2.286  0.00  0.00    +0.139 A 
ATOM      8  C   UNL     1      -2.219   1.872  -2.068  0.00  0.00    +0.092 A 
ATOM      9  C   UNL     1      -1.806   2.983  -2.809  0.00  0.00    +0.027 A 
ATOM     10  C   UNL     1      -0.780   2.824  -3.727  0.00  0.00    -0.025 A 
ATOM     11  C   UNL     1      -0.192   1.583  -3.888  0.00  0.00    +0.047 A 
ATOM     12  N   UNL     1      -0.597   0.546  -3.170  0.00  0.00    -0.235 NA
ATOM     13  C   UNL     1       0.895   1.669  -4.940  0.00  0.00    +0.056 C 
ATOM     14  C   UNL     1       0.611   2.976  -5.709  0.00  0.00    +0.011 C 
ATOM     15  C   UNL     1      -0.132   3.826  -4.657  0.00  0.00    +0.037 C 
ENDROOT
BRANCH   1  17
ATOM     16  C   UNL     1       0.019   0.217   1.590  0.00  0.00    -0.012 C 
ATOM     17  C   UNL     1      -0.369   0.330   0.114  0.00  0.00    -0.058 C 
BRANCH  17  18
ATOM     18  N   UNL     1       0.814   0.090  -0.723  0.00  0.00    +0.381 N 
ATOM     19  H   UNL     1       1.102  -0.872  -0.631  0.00  0.00    -0.090 HD
ATOM     20  H   UNL     1       0.588   0.283  -1.688  0.00  0.00    -0.090 HD
ATOM     21  H   UNL     1       1.564   0.696  -0.426  0.00  0.00    -0.090 HD
ENDBRANCH  17  18
ENDBRANCH   1  17
BRANCH   8  22
ATOM     22  C   UNL     1      -3.275   1.984  -1.108  0.00  0.00    +0.103 C 
ATOM     23  N   UNL     1      -4.113   2.073  -0.346  0.00  0.00    -0.191 NA
ENDBRANCH   8  22
TORSDOF 3
