REMARK  Name = ZINC55155065
REMARK  14 active torsions:
REMARK  status: ('A' for Active; 'I' for Inactive)
REMARK    1  A    between atoms: C_1  and  C_2
REMARK    2  A    between atoms: C_2  and  N_3
REMARK    3  A    between atoms: C_7  and  C_8
REMARK    4  A    between atoms: C_8  and  N_9
REMARK    5  A    between atoms: N_9  and  C_10
REMARK    6  A    between atoms: C_10  and  C_11
REMARK    7  A    between atoms: C_14  and  O_19
REMARK    8  A    between atoms: C_15  and  O_17
REMARK    9  A    between atoms: O_17  and  C_18
REMARK   10  A    between atoms: O_19  and  C_20
REMARK   11  A    between atoms: C_20  and  C_21
REMARK   12  A    between atoms: C_21  and  C_23
REMARK   13  A    between atoms: C_21  and  O_30
REMARK   14  A    between atoms: C_23  and  N_24
REMARK                            x       y       z     vdW  Elec       q    Type
REMARK                         _______ _______ _______ _____ _____    ______ ____
ROOT
ATOM      1  C   UNL     1      -3.149   2.696   3.930  0.00  0.00    -0.030 A 
ATOM      2  C   UNL     1      -2.867   3.124   5.214  0.00  0.00    +0.009 A 
ATOM      3  C   UNL     1      -2.983   4.462   5.542  0.00  0.00    +0.050 A 
ATOM      4  C   UNL     1      -3.383   5.378   4.582  0.00  0.00    +0.162 A 
ATOM      5  C   UNL     1      -3.667   4.948   3.290  0.00  0.00    +0.162 A 
ATOM      6  C   UNL     1      -3.544   3.606   2.966  0.00  0.00    +0.054 A 
ENDROOT
BRANCH   5   7
ATOM      7  O   UNL     1      -4.061   5.843   2.344  0.00  0.00    -0.491 OA
ATOM      8  C   UNL     1      -4.335   5.330   1.039  0.00  0.00    +0.277 C 
ENDBRANCH   5   7
BRANCH   1   9
ATOM      9  C   UNL     1      -3.021   1.237   3.578  0.00  0.00    +0.116 C 
BRANCH   9  10
ATOM     10  N   UNL     1      -1.655   0.964   3.111  0.00  0.00    -0.305 NA
ATOM     11  H   UNL     1      -0.974   1.245   3.801  0.00  0.00    +0.123 HD
BRANCH  10  12
ATOM     12  C   UNL     1      -1.492  -0.453   2.758  0.00  0.00    +0.154 C 
BRANCH  12  17
ATOM     13  N   UNL     1       0.369  -0.507   1.026  0.00  0.00    -0.335 N 
ATOM     14  C   UNL     1       1.698  -0.833   1.019  0.00  0.00    +0.104 A 
ATOM     15  C   UNL     1       2.013  -1.212   2.272  0.00  0.00    +0.101 A 
ATOM     16  N   UNL     1       0.906  -1.121   3.024  0.00  0.00    -0.349 N 
ATOM     17  C   UNL     1      -0.082  -0.694   2.285  0.00  0.00    +0.101 A 
ATOM     18  H   UNL     1       0.849  -1.334   3.968  0.00  0.00    +0.166 HD
BRANCH  13  20
ATOM     19  C   UNL     1      -0.451   1.493  -0.119  0.00  0.00    +0.027 C 
ATOM     20  C   UNL     1      -0.417  -0.036  -0.118  0.00  0.00    +0.119 C 
ENDBRANCH  13  20
ENDBRANCH  12  17
ENDBRANCH  10  12
ENDBRANCH   9  10
ENDBRANCH   1   9
BRANCH   4  21
ATOM     21  O   UNL     1      -3.499   6.694   4.903  0.00  0.00    -0.486 OA
BRANCH  21  22
ATOM     22  C   UNL     1      -3.192   7.063   6.249  0.00  0.00    +0.258 C 
BRANCH  22  23
ATOM     23  C   UNL     1      -3.377   8.572   6.419  0.00  0.00    +0.135 C 
BRANCH  23  24
ATOM     24  O   UNL     1      -2.424   9.264   5.611  0.00  0.00    -0.390 OA
ATOM     25  H   UNL     1      -1.503   9.063   5.829  0.00  0.00    +0.210 HD
ENDBRANCH  23  24
BRANCH  23  26
ATOM     26  C   UNL     1      -3.170   8.950   7.888  0.00  0.00    -0.044 C 
BRANCH  26  27
ATOM     27  N   UNL     1      -3.346  10.399   8.050  0.00  0.00    +0.382 N 
ATOM     28  C   UNL     1      -2.958  10.779   9.410  0.00  0.00    -0.068 C 
ATOM     29  C   UNL     1      -2.775  12.299   9.493  0.00  0.00    +0.050 C 
ATOM     30  S   UNL     1      -4.372  13.088   9.119  0.00  0.00    -0.164 S 
ATOM     31  C   UNL     1      -4.873  12.260   7.577  0.00  0.00    +0.050 C 
ATOM     32  C   UNL     1      -4.743  10.746   7.781  0.00  0.00    -0.068 C 
ATOM     33  H   UNL     1      -2.752  10.880   7.391  0.00  0.00    -0.082 HD
ENDBRANCH  26  27
ENDBRANCH  23  26
ENDBRANCH  22  23
ENDBRANCH  21  22
ENDBRANCH   4  21
TORSDOF 12
