REMARK  Name = ZINC67128698
REMARK  8 active torsions:
REMARK  status: ('A' for Active; 'I' for Inactive)
REMARK    1  A    between atoms: C_1  and  C_2
REMARK    2  A    between atoms: C_2  and  C_3
REMARK    3  A    between atoms: C_2  and  C_4
REMARK    4  A    between atoms: C_2  and  N_5
REMARK    5  A    between atoms: C_6  and  C_8
REMARK    6  A    between atoms: C_8  and  N_9
REMARK    7  A    between atoms: C_11  and  O_19
REMARK    8  A    between atoms: C_14  and  C_16
REMARK                            x       y       z     vdW  Elec       q    Type
REMARK                         _______ _______ _______ _____ _____    ______ ____
ROOT
ATOM      1  N   UNL     1       4.055  -0.110  -2.677  0.00  0.00    +0.395 N 
ATOM      2  C   UNL     1       4.847  -0.755  -1.599  0.00  0.00    -0.045 C 
ATOM      3  C   UNL     1       6.310  -0.576  -2.078  0.00  0.00    +0.097 C 
ATOM      4  C   UNL     1       6.199  -0.769  -3.608  0.00  0.00    +0.023 C 
ATOM      5  C   UNL     1       4.724  -0.477  -3.944  0.00  0.00    +0.022 C 
ATOM      6  H   UNL     1       4.058   0.892  -2.560  0.00  0.00    -0.080 HD
ENDROOT
BRANCH   5   7
ATOM      7  C   UNL     1       4.638   0.667  -4.921  0.00  0.00    +0.197 C 
ATOM      8  O   UNL     1       4.075   1.694  -4.604  0.00  0.00    -0.278 OA
ATOM      9  N   UNL     1       5.185   0.550  -6.147  0.00  0.00    -0.331 N 
ATOM     10  H   UNL     1       5.635  -0.272  -6.400  0.00  0.00    +0.145 HD
ATOM     11  H   UNL     1       5.130   1.286  -6.776  0.00  0.00    +0.145 HD
ENDBRANCH   5   7
BRANCH   3  12
ATOM     12  O   UNL     1       7.157  -1.571  -1.499  0.00  0.00    -0.394 OA
ATOM     13  H   UNL     1       8.083  -1.503  -1.767  0.00  0.00    +0.210 HD
ENDBRANCH   3  12
BRANCH   1  14
ATOM     14  C   UNL     1       2.677  -0.618  -2.667  0.00  0.00    +0.020 C 
BRANCH  14  16
ATOM     15  N   UNL     1       0.688  -0.476  -1.203  0.00  0.00    -0.312 N 
ATOM     16  C   UNL     1       1.972  -0.132  -1.427  0.00  0.00    +0.197 C 
ATOM     17  O   UNL     1       2.559   0.569  -0.630  0.00  0.00    -0.278 OA
ATOM     18  H   UNL     1       0.218  -1.037  -1.840  0.00  0.00    +0.149 HD
BRANCH  15  20
ATOM     19  C   UNL     1      -0.019   1.526   0.010  0.00  0.00    +0.031 C 
ATOM     20  C   UNL     1       0.002  -0.004   0.002  0.00  0.00    +0.026 C 
ATOM     21  C   UNL     1       0.742  -0.511   1.242  0.00  0.00    +0.031 C 
ATOM     22  C   UNL     1      -1.433  -0.534   0.013  0.00  0.00    +0.031 C 
ENDBRANCH  15  20
ENDBRANCH  14  16
ENDBRANCH   1  14
TORSDOF 5
