REMARK  Name = ZINC12535125
REMARK  7 active torsions:
REMARK  status: ('A' for Active; 'I' for Inactive)
REMARK    1  A    between atoms: C_1  and  C_2
REMARK    2  A    between atoms: C_2  and  C_3
REMARK    3  A    between atoms: C_3  and  O_4
REMARK    4  A    between atoms: O_4  and  C_5
REMARK    5  A    between atoms: C_6  and  O_27
REMARK    6  A    between atoms: C_8  and  C_12
REMARK    7  A    between atoms: O_27  and  C_28
REMARK                            x       y       z     vdW  Elec       q    Type
REMARK                         _______ _______ _______ _____ _____    ______ ____
ROOT
ATOM      1  C   UNL     1      -6.401  -4.590   0.035  0.00  0.00    +0.209 C 
ATOM      2  N   UNL     1      -6.440  -5.596  -1.042  0.00  0.00    -0.294 N 
ATOM      3  C   UNL     1      -6.713  -5.158  -2.330  0.00  0.00    +0.159 C 
ATOM      4  N   UNL     1      -7.854  -4.369  -2.487  0.00  0.00    -0.259 N 
ATOM      5  C   UNL     1      -8.143  -3.527  -1.417  0.00  0.00    +0.205 A 
ATOM      6  N   UNL     1      -7.474  -3.621  -0.216  0.00  0.00    -0.288 N 
ATOM      7  C   UNL     1      -8.000  -2.674   0.616  0.00  0.00    +0.072 A 
ATOM      8  C   UNL     1      -7.729  -2.315   1.931  0.00  0.00    +0.028 A 
ATOM      9  C   UNL     1      -8.476  -1.280   2.469  0.00  0.00    +0.002 A 
ATOM     10  C   UNL     1      -9.453  -0.623   1.740  0.00  0.00    +0.002 A 
ATOM     11  C   UNL     1      -9.742  -0.961   0.430  0.00  0.00    +0.030 A 
ATOM     12  C   UNL     1      -9.000  -2.005  -0.134  0.00  0.00    +0.091 A 
ATOM     13  N   UNL     1      -9.031  -2.572  -1.361  0.00  0.00    -0.214 NA
ATOM     14  N   UNL     1      -5.947  -5.466  -3.337  0.00  0.00    -0.375 N 
ATOM     15  H   UNL     1      -6.279  -6.535  -0.856  0.00  0.00    +0.151 HD
ATOM     16  H   UNL     1      -5.161  -6.017  -3.198  0.00  0.00    +0.158 HD
ATOM     17  H   UNL     1      -8.404  -4.404  -3.285  0.00  0.00    +0.158 HD
ATOM     18  H   UNL     1      -6.163  -5.146  -4.227  0.00  0.00    +0.158 HD
ENDROOT
BRANCH   1  22
ATOM     19  C   UNL     1      -2.617  -2.596   0.013  0.00  0.00    +0.176 A 
ATOM     20  C   UNL     1      -3.225  -2.923   1.222  0.00  0.00    +0.163 A 
ATOM     21  C   UNL     1      -4.451  -3.569   1.225  0.00  0.00    +0.056 A 
ATOM     22  C   UNL     1      -5.068  -3.888   0.029  0.00  0.00    -0.002 A 
ATOM     23  C   UNL     1      -4.464  -3.564  -1.172  0.00  0.00    +0.026 A 
ATOM     24  C   UNL     1      -3.243  -2.914  -1.182  0.00  0.00    +0.063 A 
ATOM     25 BR   UNL     1      -2.425  -2.465  -2.827  0.00  0.00    -0.046 Br
BRANCH  20  26
ATOM     26  O   UNL     1      -2.618  -2.609   2.397  0.00  0.00    -0.491 OA
ATOM     27  C   UNL     1      -3.300  -2.974   3.598  0.00  0.00    +0.277 C 
ENDBRANCH  20  26
BRANCH  19  28
ATOM     28  O   UNL     1      -1.414  -1.962   0.005  0.00  0.00    -0.487 OA
BRANCH  28  29
ATOM     29  C   UNL     1      -1.433  -0.534   0.013  0.00  0.00    +0.229 C 
BRANCH  29  31
ATOM     30  C   UNL     1      -0.019   1.526   0.010  0.00  0.00    +0.007 C 
ATOM     31  C   UNL     1       0.002  -0.004   0.002  0.00  0.00    +0.038 C 
ENDBRANCH  29  31
ENDBRANCH  28  29
ENDBRANCH  19  28
ENDBRANCH   1  22
TORSDOF 5
