REMARK  Name = ZINC37399855
REMARK  5 active torsions:
REMARK  status: ('A' for Active; 'I' for Inactive)
REMARK    1  A    between atoms: C_1  and  C_2
REMARK    2  A    between atoms: C_2  and  C_4
REMARK    3  A    between atoms: C_2  and  N_11
REMARK    4  A    between atoms: C_12  and  C_14
REMARK    5  A    between atoms: C_14  and  N_15
REMARK                            x       y       z     vdW  Elec       q    Type
REMARK                         _______ _______ _______ _____ _____    ______ ____
ROOT
ATOM      1  N   UNL     1       0.711  -0.489   1.189  0.00  0.00    -0.310 N 
ATOM      2  C   UNL     1       2.054  -0.600   1.174  0.00  0.00    +0.197 C 
ATOM      3  O   UNL     1       2.676  -0.297   0.177  0.00  0.00    -0.278 OA
ATOM      4  H   UNL     1       0.213  -0.731   1.986  0.00  0.00    +0.149 HD
ENDROOT
BRANCH   1   6
ATOM      5  C   UNL     1      -0.019   1.526   0.010  0.00  0.00    +0.033 C 
ATOM      6  C   UNL     1       0.002  -0.004   0.002  0.00  0.00    +0.100 C 
BRANCH   6   7
ATOM      7  C   UNL     1      -1.412  -0.526   0.013  0.00  0.00    -0.027 A 
ATOM      8  C   UNL     1      -2.123  -0.571   1.198  0.00  0.00    +0.006 A 
ATOM      9  C   UNL     1      -3.420  -1.049   1.208  0.00  0.00    +0.015 A 
ATOM     10  C   UNL     1      -4.006  -1.482   0.032  0.00  0.00    +0.018 A 
ATOM     11  C   UNL     1      -3.294  -1.437  -1.153  0.00  0.00    +0.015 A 
ATOM     12  C   UNL     1      -1.999  -0.954  -1.163  0.00  0.00    +0.006 A 
ATOM     13 BR   UNL     1      -5.780  -2.136   0.046  0.00  0.00    -0.050 Br
ENDBRANCH   6   7
ENDBRANCH   1   6
BRANCH   2  14
ATOM     14  C   UNL     1       2.783  -1.099   2.395  0.00  0.00    +0.019 C 
BRANCH  14  15
ATOM     15  N   UNL     1       4.226  -1.127   2.125  0.00  0.00    +0.386 N 
ATOM     16  C   UNL     1       4.909  -1.800   3.251  0.00  0.00    -0.077 C 
ATOM     17  C   UNL     1       6.250  -2.301   2.777  0.00  0.00    -0.003 C 
ATOM     18  C   UNL     1       7.373  -1.286   3.051  0.00  0.00    +0.079 C 
ATOM     19  N   UNL     1       6.954   0.106   2.767  0.00  0.00    -0.318 NA
ATOM     20  C   UNL     1       6.170   0.240   1.560  0.00  0.00    +0.062 C 
ATOM     21  C   UNL     1       4.675   0.182   1.928  0.00  0.00    -0.063 C 
ATOM     22  H   UNL     1       6.472   0.507   3.558  0.00  0.00    +0.122 HD
ATOM     23  H   UNL     1       4.390  -1.658   1.283  0.00  0.00    -0.081 HD
ENDBRANCH  14  15
ENDBRANCH   2  14
TORSDOF 4
