REMARK  Name = ZINC20283167
REMARK  11 active torsions:
REMARK  status: ('A' for Active; 'I' for Inactive)
REMARK    1  A    between atoms: C_1  and  C_2
REMARK    2  A    between atoms: C_2  and  O_3
REMARK    3  A    between atoms: O_3  and  C_4
REMARK    4  A    between atoms: C_4  and  C_6
REMARK    5  A    between atoms: C_7  and  C_20
REMARK    6  A    between atoms: C_12  and  C_14
REMARK    7  A    between atoms: C_20  and  N_21
REMARK    8  A    between atoms: N_21  and  C_22
REMARK    9  A    between atoms: C_22  and  C_23
REMARK   10  A    between atoms: C_27  and  O_29
REMARK   11  A    between atoms: O_29  and  C_30
REMARK                            x       y       z     vdW  Elec       q    Type
REMARK                         _______ _______ _______ _____ _____    ______ ____
ROOT
ATOM      1  C   UNL     1      -0.694   1.693   3.586  0.00  0.00    +0.076 C 
ATOM      2  C   UNL     1      -0.314   1.176   4.774  0.00  0.00    +0.007 C 
ATOM      3  N   UNL     1      -0.975   1.495   5.925  0.00  0.00    -0.274 N 
ATOM      4  C   UNL     1      -2.026   2.323   5.973  0.00  0.00    +0.304 C 
ATOM      5  O   UNL     1      -2.551   2.546   7.047  0.00  0.00    -0.252 OA
ATOM      6  N   UNL     1      -2.522   2.917   4.869  0.00  0.00    -0.288 N 
ATOM      7  C   UNL     1      -1.874   2.644   3.575  0.00  0.00    +0.143 C 
ATOM      8  H   UNL     1      -0.650   1.063   6.884  0.00  0.00    +0.156 HD
ATOM      9  H   UNL     1      -3.388   3.593   4.919  0.00  0.00    +0.151 HD
ENDROOT
BRANCH   7  10
ATOM     10  C   UNL     1      -1.409   3.955   2.996  0.00  0.00    -0.023 A 
ATOM     11  C   UNL     1      -0.719   4.854   3.788  0.00  0.00    +0.006 A 
ATOM     12  C   UNL     1      -0.289   6.055   3.255  0.00  0.00    +0.000 A 
ATOM     13  C   UNL     1      -0.557   6.361   1.934  0.00  0.00    +0.000 A 
ATOM     14  C   UNL     1      -1.252   5.464   1.144  0.00  0.00    +0.000 A 
ATOM     15  C   UNL     1      -1.679   4.261   1.676  0.00  0.00    +0.006 A 
ENDBRANCH   7  10
BRANCH   1  16
ATOM     16  C   UNL     1      -0.009   1.364   2.393  0.00  0.00    +0.339 C 
ATOM     17  O   UNL     1      -0.482   0.545   1.627  0.00  0.00    -0.245 OA
BRANCH  16  18
ATOM     18  O   UNL     1       1.167   1.958   2.103  0.00  0.00    -0.462 OA
BRANCH  18  20
ATOM     19  C   UNL     1       3.115   2.351   0.727  0.00  0.00    +0.048 C 
ATOM     20  C   UNL     1       1.803   1.578   0.882  0.00  0.00    +0.229 C 
ENDBRANCH  18  20
ENDBRANCH  16  18
ENDBRANCH   1  16
BRANCH   2  21
ATOM     21  C   UNL     1       0.860   0.232   4.830  0.00  0.00    -0.030 C 
BRANCH  21  22
ATOM     22  N   UNL     1       1.951   0.852   5.594  0.00  0.00    +0.385 N 
ATOM     23  H   UNL     1       2.256   1.788   5.103  0.00  0.00    -0.085 HD
ATOM     24  H   UNL     1       1.606   1.070   6.615  0.00  0.00    -0.085 HD
BRANCH  22  25
ATOM     25  C   UNL     1       3.114  -0.042   5.670  0.00  0.00    -0.046 C 
BRANCH  25  26
ATOM     26  C   UNL     1       4.211   0.627   6.458  0.00  0.00    -0.061 A 
ATOM     27  C   UNL     1       4.279   0.454   7.829  0.00  0.00    +0.002 A 
ATOM     28  C   UNL     1       5.284   1.066   8.555  0.00  0.00    +0.004 A 
ATOM     29  C   UNL     1       6.222   1.851   7.913  0.00  0.00    +0.045 A 
ATOM     30  C   UNL     1       6.156   2.025   6.539  0.00  0.00    +0.120 A 
ATOM     31  C   UNL     1       5.149   1.407   5.811  0.00  0.00    +0.047 A 
BRANCH  30  32
ATOM     32  O   UNL     1       7.078   2.797   5.905  0.00  0.00    -0.495 OA
ATOM     33  C   UNL     1       8.089   3.398   6.716  0.00  0.00    +0.277 C 
ENDBRANCH  30  32
ENDBRANCH  25  26
ENDBRANCH  22  25
ENDBRANCH  21  22
ENDBRANCH   2  21
TORSDOF 9
