REMARK  Name = ZINC63384339
REMARK  11 active torsions:
REMARK  status: ('A' for Active; 'I' for Inactive)
REMARK    1  A    between atoms: C_1  and  C_2
REMARK    2  A    between atoms: C_2  and  C_3
REMARK    3  A    between atoms: C_3  and  C_5
REMARK    4  A    between atoms: C_3  and  N_6
REMARK    5  A    between atoms: C_7  and  C_9
REMARK    6  A    between atoms: C_9  and  C_11
REMARK    7  A    between atoms: C_9  and  N_15
REMARK    8  A    between atoms: C_11  and  C_12
REMARK    9  A    between atoms: C_12  and  S_13
REMARK   10  A    between atoms: S_13  and  C_14
REMARK   11  A    between atoms: C_16  and  C_18
REMARK                            x       y       z     vdW  Elec       q    Type
REMARK                         _______ _______ _______ _____ _____    ______ ____
ROOT
ATOM      1  C   UNL     1      -7.795   1.201   3.039  0.00  0.00    +0.167 C 
ATOM      2  C   UNL     1      -8.111   1.727   1.626  0.00  0.00    +0.065 C 
ATOM      3  C   UNL     1      -7.907   3.221   1.650  0.00  0.00    -0.034 C 
ATOM      4  C   UNL     1      -7.179   4.011   0.868  0.00  0.00    -0.001 A 
ATOM      5  C   UNL     1      -6.395   3.732  -0.347  0.00  0.00    +0.010 A 
ATOM      6  C   UNL     1      -5.744   4.791  -0.896  0.00  0.00    +0.001 A 
ATOM      7  C   UNL     1      -5.793   6.084  -0.366  0.00  0.00    +0.002 A 
ATOM      8  C   UNL     1      -6.495   6.433   0.741  0.00  0.00    +0.026 A 
ATOM      9  C   UNL     1      -7.228   5.405   1.404  0.00  0.00    +0.043 A 
ATOM     10  N   UNL     1      -7.989   5.460   2.456  0.00  0.00    -0.375 N 
ATOM     11  C   UNL     1      -8.557   4.131   2.687  0.00  0.00    +0.131 C 
ATOM     12  C   UNL     1      -8.159   3.577   4.059  0.00  0.00    +0.134 C 
ATOM     13  N   UNL     1      -8.393   2.113   4.024  0.00  0.00    -0.276 N 
ATOM     14  C   UNL     1      -9.240   1.781   5.016  0.00  0.00    +0.248 C 
ATOM     15  O   UNL     1      -9.571   0.646   5.298  0.00  0.00    -0.270 OA
ATOM     16  C   UNL     1      -9.704   2.986   5.707  0.00  0.00    +0.042 A 
ATOM     17  C   UNL     1      -9.048   4.120   5.131  0.00  0.00    -0.013 A 
ATOM     18  C   UNL     1      -9.278   5.405   5.568  0.00  0.00    +0.006 A 
ATOM     19  C   UNL     1     -10.184   5.564   6.613  0.00  0.00    +0.000 A 
ATOM     20  C   UNL     1     -10.825   4.487   7.190  0.00  0.00    +0.001 A 
ATOM     21  C   UNL     1     -10.614   3.144   6.755  0.00  0.00    +0.013 A 
ATOM     22  H   UNL     1      -8.153   6.249   2.997  0.00  0.00    +0.160 HD
ENDROOT
BRANCH   1  24
ATOM     23  N   UNL     1      -5.542   0.379   2.437  0.00  0.00    -0.302 N 
ATOM     24  C   UNL     1      -6.302   1.150   3.239  0.00  0.00    +0.235 C 
ATOM     25  O   UNL     1      -5.785   1.803   4.120  0.00  0.00    -0.274 OA
ATOM     26  H   UNL     1      -5.955  -0.143   1.732  0.00  0.00    +0.150 HD
BRANCH  23  27
ATOM     27  C   UNL     1      -4.090   0.329   2.630  0.00  0.00    +0.160 C 
BRANCH  27  29
ATOM     28  N   UNL     1      -2.082  -0.162   1.273  0.00  0.00    -0.311 N 
ATOM     29  C   UNL     1      -3.424  -0.053   1.334  0.00  0.00    +0.234 C 
ATOM     30  O   UNL     1      -4.095  -0.264   0.346  0.00  0.00    -0.274 OA
ATOM     31  H   UNL     1      -1.545   0.006   2.063  0.00  0.00    +0.149 HD
BRANCH  28  32
ATOM     32  C   UNL     1      -1.433  -0.534   0.013  0.00  0.00    +0.070 C 
ATOM     33  C   UNL     1      -1.416  -2.058  -0.121  0.00  0.00    +0.028 C 
BRANCH  32  35
ATOM     34  C   UNL     1      -0.019   1.526   0.010  0.00  0.00    +0.005 C 
ATOM     35  C   UNL     1       0.002  -0.004   0.002  0.00  0.00    +0.018 C 
ENDBRANCH  32  35
ENDBRANCH  28  32
ENDBRANCH  27  29
BRANCH  27  36
ATOM     36  C   UNL     1      -3.754  -0.709   3.703  0.00  0.00    +0.042 C 
BRANCH  36  37
ATOM     37  C   UNL     1      -4.326  -0.257   5.048  0.00  0.00    +0.071 C 
BRANCH  37  38
ATOM     38  S   UNL     1      -3.928  -1.488   6.319  0.00  0.00    -0.164 S 
ATOM     39  C   UNL     1      -4.666  -0.812   7.832  0.00  0.00    +0.084 C 
ENDBRANCH  37  38
ENDBRANCH  36  37
ENDBRANCH  27  36
ENDBRANCH  23  27
ENDBRANCH   1  24
TORSDOF 8
