REMARK  Name = ZINC27367880
REMARK  12 active torsions:
REMARK  status: ('A' for Active; 'I' for Inactive)
REMARK    1  A    between atoms: C_1  and  C_2
REMARK    2  A    between atoms: C_2  and  C_3
REMARK    3  A    between atoms: C_3  and  C_4
REMARK    4  A    between atoms: C_7  and  C_10
REMARK    5  A    between atoms: C_10  and  C_12
REMARK    6  A    between atoms: C_10  and  N_15
REMARK    7  A    between atoms: C_12  and  C_13
REMARK    8  A    between atoms: C_12  and  C_14
REMARK    9  A    between atoms: N_15  and  C_16
REMARK   10  A    between atoms: C_16  and  C_17
REMARK   11  A    between atoms: C_26  and  S_28
REMARK   12  A    between atoms: S_28  and  N_31
REMARK                            x       y       z     vdW  Elec       q    Type
REMARK                         _______ _______ _______ _____ _____    ______ ____
ROOT
ATOM      1  C   UNL     1       4.216   5.437  -0.008  0.00  0.00    +0.016 C 
ENDROOT
BRANCH   1   2
ATOM      2  C   UNL     1       2.773   5.000   0.003  0.00  0.00    +0.203 C 
ATOM      3  O   UNL     1       1.888   5.829   0.016  0.00  0.00    -0.277 OA
ATOM      4  N   UNL     1       2.467   3.688  -0.001  0.00  0.00    -0.272 N 
ATOM      5  C   UNL     1       3.446   2.597  -0.016  0.00  0.00    +0.118 C 
ATOM      6  C   UNL     1       2.611   1.306  -0.015  0.00  0.00    +0.056 C 
ATOM      7  C   UNL     1       1.175   1.781   0.000  0.00  0.00    -0.023 A 
ATOM      8  C   UNL     1       1.169   3.167   0.008  0.00  0.00    +0.040 A 
ATOM      9  C   UNL     1      -0.053   3.840   0.023  0.00  0.00    +0.026 A 
ATOM     10  C   UNL     1      -1.236   3.132   0.031  0.00  0.00    +0.030 A 
ATOM     11  C   UNL     1      -1.220   1.749   0.017  0.00  0.00    +0.105 A 
ATOM     12  C   UNL     1      -0.013   1.076   0.008  0.00  0.00    +0.034 A 
BRANCH  11  13
ATOM     13  S   UNL     1      -2.734   0.848   0.019  0.00  0.00    +0.056 S 
ATOM     14  O   UNL     1      -3.723   1.713  -0.522  0.00  0.00    -0.153 OA
ATOM     15  O   UNL     1      -2.449  -0.427  -0.540  0.00  0.00    -0.153 OA
BRANCH  13  16
ATOM     16  N   UNL     1      -3.148   0.588   1.601  0.00  0.00    -0.204 NA
ATOM     17  H   UNL     1      -4.092   0.026   1.646  0.00  0.00    +0.144 HD
ATOM     18  H   UNL     1      -3.272   1.555   2.111  0.00  0.00    +0.144 HD
ENDBRANCH  13  16
ENDBRANCH  11  13
ENDBRANCH   1   2
BRANCH   1  19
ATOM     19  N   UNL     1       4.282   6.905   0.000  0.00  0.00    +0.389 N 
ATOM     20  H   UNL     1       3.779   7.276   0.905  0.00  0.00    -0.084 HD
ATOM     21  H   UNL     1       3.762   7.286  -0.891  0.00  0.00    -0.084 HD
BRANCH  19  22
ATOM     22  C   UNL     1       5.676   7.369  -0.010  0.00  0.00    -0.038 C 
BRANCH  22  26
ATOM     23  C   UNL     1       5.859  11.291  -1.692  0.00  0.00    -0.047 A 
ATOM     24  C   UNL     1       6.835  10.361  -1.999  0.00  0.00    +0.004 A 
ATOM     25  C   UNL     1       6.776   9.092  -1.455  0.00  0.00    +0.002 A 
ATOM     26  C   UNL     1       5.741   8.752  -0.603  0.00  0.00    -0.061 A 
ATOM     27  C   UNL     1       4.762   9.681  -0.301  0.00  0.00    +0.002 A 
ATOM     28  C   UNL     1       4.824  10.951  -0.841  0.00  0.00    +0.004 A 
BRANCH  23  29
ATOM     29  C   UNL     1       5.923  12.674  -2.286  0.00  0.00    +0.035 C 
BRANCH  29  31
ATOM     30  C   UNL     1       5.229  14.100  -4.217  0.00  0.00    +0.004 C 
ATOM     31  C   UNL     1       5.164  12.695  -3.614  0.00  0.00    +0.001 C 
ENDBRANCH  29  31
ENDBRANCH  23  29
ENDBRANCH  22  26
BRANCH  22  32
ATOM     32  C   UNL     1       6.213   7.402   1.422  0.00  0.00    -0.027 C 
ATOM     33  C   UNL     1       7.665   7.885   1.411  0.00  0.00    +0.006 C 
ATOM     34  C   UNL     1       5.364   8.357   2.263  0.00  0.00    +0.006 C 
ENDBRANCH  22  32
ENDBRANCH  19  22
ENDBRANCH   1  19
TORSDOF 9
