REMARK  Name = ZINC41513725
REMARK  14 active torsions:
REMARK  status: ('A' for Active; 'I' for Inactive)
REMARK    1  A    between atoms: C_1  and  C_2
REMARK    2  A    between atoms: C_2  and  C_3
REMARK    3  A    between atoms: C_2  and  C_4
REMARK    4  A    between atoms: C_4  and  N_5
REMARK    5  A    between atoms: N_5  and  C_6
REMARK    6  A    between atoms: N_5  and  C_29
REMARK    7  A    between atoms: C_6  and  C_7
REMARK    8  A    between atoms: C_8  and  O_28
REMARK    9  A    between atoms: C_15  and  C_16
REMARK   10  A    between atoms: C_21  and  O_22
REMARK   11  A    between atoms: O_22  and  C_23
REMARK   12  A    between atoms: C_29  and  C_30
REMARK   13  A    between atoms: C_30  and  C_31
REMARK   14  A    between atoms: C_30  and  C_32
REMARK                            x       y       z     vdW  Elec       q    Type
REMARK                         _______ _______ _______ _____ _____    ______ ____
ROOT
ATOM      1  C   UNL     1      -0.560   0.185   4.284  0.00  0.00    +0.020 A 
ATOM      2  C   UNL     1      -0.656   1.559   4.438  0.00  0.00    +0.122 A 
ATOM      3  C   UNL     1      -1.731   2.122   5.119  0.00  0.00    +0.046 A 
ATOM      4  C   UNL     1      -2.706   1.321   5.644  0.00  0.00    +0.019 A 
ATOM      5  C   UNL     1      -2.623  -0.063   5.496  0.00  0.00    +0.068 A 
ATOM      6  C   UNL     1      -1.546  -0.642   4.806  0.00  0.00    +0.144 A 
ATOM      7  O   UNL     1      -1.686  -1.986   4.788  0.00  0.00    -0.451 OA
ATOM      8  C   UNL     1      -2.812  -2.383   5.426  0.00  0.00    +0.176 C 
ATOM      9  C   UNL     1      -3.237  -3.663   5.581  0.00  0.00    +0.061 C 
ATOM     10  C   UNL     1      -3.485  -1.178   5.932  0.00  0.00    +0.231 C 
ATOM     11  O   UNL     1      -4.528  -1.113   6.559  0.00  0.00    -0.283 OA
ENDROOT
BRANCH   9  12
ATOM     12  C   UNL     1      -4.389  -3.955   6.442  0.00  0.00    +0.020 A 
ATOM     13  C   UNL     1      -4.527  -3.309   7.677  0.00  0.00    +0.011 A 
ATOM     14  C   UNL     1      -5.612  -3.588   8.479  0.00  0.00    +0.001 A 
ATOM     15  C   UNL     1      -6.567  -4.505   8.070  0.00  0.00    +0.004 A 
ATOM     16  C   UNL     1      -6.444  -5.150   6.854  0.00  0.00    +0.046 A 
ATOM     17  C   UNL     1      -5.364  -4.879   6.030  0.00  0.00    +0.134 A 
BRANCH  17  18
ATOM     18  O   UNL     1      -5.245  -5.507   4.833  0.00  0.00    -0.434 OA
BRANCH  18  19
ATOM     19  C   UNL     1      -6.275  -6.433   4.481  0.00  0.00    +0.541 C 
ATOM     20  F   UNL     1      -6.331  -7.453   5.437  0.00  0.00    -0.166 F 
ATOM     21  F   UNL     1      -7.505  -5.768   4.437  0.00  0.00    -0.166 F 
ENDBRANCH  18  19
ENDBRANCH  17  18
ENDBRANCH   9  12
BRANCH   2  22
ATOM     22  O   UNL     1       0.308   2.363   3.921  0.00  0.00    -0.506 OA
ATOM     23  H   UNL     1       0.136   2.650   3.013  0.00  0.00    +0.292 HD
ENDBRANCH   2  22
BRANCH   1  24
ATOM     24  C   UNL     1       0.610  -0.410   3.543  0.00  0.00    -0.036 C 
BRANCH  24  25
ATOM     25  N   UNL     1       0.284  -0.513   2.115  0.00  0.00    +0.383 N 
ATOM     26  H   UNL     1      -0.572  -1.036   2.002  0.00  0.00    -0.081 HD
BRANCH  25  27
ATOM     27  C   UNL     1       1.375  -1.202   1.413  0.00  0.00    -0.075 C 
BRANCH  27  29
ATOM     28  C   UNL     1       0.178  -3.393   1.504  0.00  0.00    +0.005 C 
ATOM     29  C   UNL     1       1.457  -2.652   1.895  0.00  0.00    -0.034 C 
ATOM     30  C   UNL     1       2.662  -3.337   1.248  0.00  0.00    +0.005 C 
ENDBRANCH  27  29
ENDBRANCH  25  27
BRANCH  25  31
ATOM     31  C   UNL     1       0.113   0.833   1.553  0.00  0.00    -0.075 C 
BRANCH  31  32
ATOM     32  C   UNL     1      -0.334   0.724   0.094  0.00  0.00    -0.034 C 
ATOM     33  C   UNL     1      -1.710   0.059   0.030  0.00  0.00    +0.005 C 
ATOM     34  C   UNL     1      -0.414   2.123  -0.521  0.00  0.00    +0.005 C 
ENDBRANCH  31  32
ENDBRANCH  25  31
ENDBRANCH  24  25
ENDBRANCH   1  24
TORSDOF 10
