REMARK  Name = ZINC10023588
REMARK  8 active torsions:
REMARK  status: ('A' for Active; 'I' for Inactive)
REMARK    1  A    between atoms: C_1  and  N_49
REMARK    2  A    between atoms: C_7  and  N_12
REMARK    3  A    between atoms: C_8  and  C_9
REMARK    4  A    between atoms: C_13  and  C_15
REMARK    5  A    between atoms: C_15  and  S_16
REMARK    6  A    between atoms: S_16  and  C_19
REMARK    7  A    between atoms: C_22  and  O_25
REMARK    8  A    between atoms: O_25  and  C_26
REMARK                            x       y       z     vdW  Elec       q    Type
REMARK                         _______ _______ _______ _____ _____    ______ ____
ROOT
ATOM      1  C   UNL     1       1.094 -12.708  -3.363  0.00  0.00    -0.096 C 
ATOM      2  C   UNL     1       1.722 -10.915  -4.865  0.00  0.00    -0.074 C 
ATOM      3  C   UNL     1       1.262  -9.558  -5.404  0.00  0.00    +0.018 C 
ATOM      4  C   UNL     1       1.260  -8.564  -4.248  0.00  0.00    -0.027 A 
ATOM      5  C   UNL     1       1.276  -9.009  -2.971  0.00  0.00    -0.021 A 
ATOM      6  S   UNL     1       1.268  -7.543  -1.982  0.00  0.00    -0.079 S 
ATOM      7  C   UNL     1       1.243  -6.355  -3.244  0.00  0.00    +0.084 A 
ATOM      8  C   UNL     1       1.235  -7.122  -4.401  0.00  0.00    +0.068 A 
ATOM      9  C   UNL     1       1.295 -10.439  -2.528  0.00  0.00    -0.036 C 
ATOM     10  N   UNL     1       0.906 -11.278  -3.688  0.00  0.00    +0.381 N 
ATOM     11  H   UNL     1      -0.084 -11.111  -3.903  0.00  0.00    -0.082 HD
ENDROOT
BRANCH   8  12
ATOM     12  C   UNL     1       1.207  -6.498  -5.728  0.00  0.00    +0.244 C 
ATOM     13  O   UNL     1       2.250  -6.226  -6.294  0.00  0.00    -0.270 OA
ATOM     14  N   UNL     1       0.028  -6.225  -6.320  0.00  0.00    -0.325 N 
ATOM     15  H   UNL     1      -0.803  -6.442  -5.868  0.00  0.00    +0.145 HD
ATOM     16  H   UNL     1       0.009  -5.812  -7.197  0.00  0.00    +0.145 HD
ENDBRANCH   8  12
BRANCH   7  17
ATOM     17  N   UNL     1       1.228  -4.973  -3.126  0.00  0.00    -0.278 N 
ATOM     18  C   UNL     1       1.233  -4.401  -1.906  0.00  0.00    +0.239 C 
ATOM     19  O   UNL     1       1.251  -5.094  -0.911  0.00  0.00    -0.274 OA
ATOM     20  H   UNL     1       1.214  -4.419  -3.922  0.00  0.00    +0.155 HD
BRANCH  18  21
ATOM     21  C   UNL     1       1.217  -2.899  -1.778  0.00  0.00    +0.267 C 
BRANCH  21  22
ATOM     22  S   UNL     1       1.228  -2.442  -0.022  0.00  0.00    +0.005 S 
ATOM     23  O   UNL     1       2.473  -2.793   0.567  0.00  0.00    -0.169 OA
ATOM     24  O   UNL     1       0.004  -2.822   0.591  0.00  0.00    -0.169 OA
BRANCH  22  25
ATOM     25  C   UNL     1       1.208  -0.680  -0.013  0.00  0.00    +0.089 A 
ATOM     26  C   UNL     1       0.002  -0.004   0.002  0.00  0.00    +0.030 A 
ATOM     27  C   UNL     1      -0.017   1.377   0.010  0.00  0.00    +0.047 A 
ATOM     28  C   UNL     1       1.176   2.086   0.002  0.00  0.00    +0.120 A 
ATOM     29  C   UNL     1       2.385   1.405  -0.013  0.00  0.00    +0.047 A 
ATOM     30  C   UNL     1       2.398   0.024  -0.021  0.00  0.00    +0.030 A 
BRANCH  28  31
ATOM     31  O   UNL     1       1.160   3.445   0.009  0.00  0.00    -0.495 OA
ATOM     32  C   UNL     1       2.426   4.108   0.001  0.00  0.00    +0.277 C 
ENDBRANCH  28  31
ENDBRANCH  22  25
ENDBRANCH  21  22
ENDBRANCH  18  21
ENDBRANCH   7  17
TORSDOF 6
