REMARK  Name = ZINC02394778
REMARK  7 active torsions:
REMARK  status: ('A' for Active; 'I' for Inactive)
REMARK    1  A    between atoms: C_1  and  C_2
REMARK    2  A    between atoms: C_8  and  C_27
REMARK    3  A    between atoms: N_15  and  C_16
REMARK    4  A    between atoms: C_16  and  N_18
REMARK    5  A    between atoms: N_18  and  C_19
REMARK    6  A    between atoms: C_23  and  O_25
REMARK    7  A    between atoms: O_25  and  C_26
REMARK                            x       y       z     vdW  Elec       q    Type
REMARK                         _______ _______ _______ _____ _____    ______ ____
ROOT
ATOM      1  C   UNL     1      -6.014   9.079   1.490  0.00  0.00    +0.044 C 
ATOM      2  C   UNL     1      -4.541   8.828   1.292  0.00  0.00    -0.050 A 
ATOM      3  C   UNL     1      -4.077   7.519   1.180  0.00  0.00    +0.005 A 
ATOM      4  C   UNL     1      -2.752   7.256   1.001  0.00  0.00    +0.029 A 
ATOM      5  C   UNL     1      -1.839   8.318   0.927  0.00  0.00    +0.077 A 
ATOM      6  C   UNL     1      -2.313   9.650   1.041  0.00  0.00    +0.022 A 
ATOM      7  C   UNL     1      -3.683   9.884   1.225  0.00  0.00    +0.015 A 
ATOM      8  C   UNL     1      -1.380  10.700   0.964  0.00  0.00    +0.051 A 
ATOM      9  N   UNL     1      -0.109  10.400   0.796  0.00  0.00    -0.217 NA
ATOM     10  C   UNL     1       0.300   9.138   0.688  0.00  0.00    +0.231 A 
ATOM     11  N   UNL     1      -0.527   8.114   0.752  0.00  0.00    -0.212 NA
ATOM     12  N   UNL     1       1.653   8.890   0.506  0.00  0.00    -0.298 N 
ATOM     13  C   UNL     1       2.091   7.606   0.261  0.00  0.00    +0.172 C 
ATOM     14  H   UNL     1       4.086   8.008   0.278  0.00  0.00    +0.158 HD
ATOM     15  N   UNL     1       1.178   6.592   0.061  0.00  0.00    -0.269 N 
ATOM     16  C   UNL     1      -1.824  12.136   1.078  0.00  0.00    +0.066 C 
ATOM     17  H   UNL     1       2.290   9.620   0.551  0.00  0.00    +0.171 HD
ATOM     18  H   UNL     1       0.232   6.797  -0.009  0.00  0.00    +0.157 HD
ATOM     19  N   UNL     1       3.373   7.282   0.211  0.00  0.00    -0.373 N 
ATOM     20  H   UNL     1       3.650   6.298   0.104  0.00  0.00    +0.158 HD
ENDROOT
BRANCH  15  21
ATOM     21  C   UNL     1       1.599   5.315  -0.036  0.00  0.00    +0.141 C 
ATOM     22  S   UNL     1       3.268   4.953   0.088  0.00  0.00    -0.018 S 
BRANCH  21  23
ATOM     23  N   UNL     1       0.707   4.324  -0.232  0.00  0.00    -0.296 N 
ATOM     24  H   UNL     1      -0.228   4.535  -0.382  0.00  0.00    +0.154 HD
BRANCH  23  25
ATOM     25  C   UNL     1       1.129   2.990  -0.218  0.00  0.00    +0.036 A 
ATOM     26  C   UNL     1       2.055   2.564   0.726  0.00  0.00    +0.023 A 
ATOM     27  C   UNL     1       2.471   1.247   0.740  0.00  0.00    +0.005 A 
ATOM     28  C   UNL     1       1.968   0.350  -0.183  0.00  0.00    +0.046 A 
ATOM     29  C   UNL     1       1.046   0.772  -1.132  0.00  0.00    +0.122 A 
ATOM     30  C   UNL     1       0.622   2.092  -1.146  0.00  0.00    +0.069 A 
BRANCH  29  31
ATOM     31  O   UNL     1       0.557  -0.109  -2.043  0.00  0.00    -0.495 OA
ATOM     32  C   UNL     1       1.034  -1.454  -1.966  0.00  0.00    +0.277 C 
ENDBRANCH  29  31
ENDBRANCH  23  25
ENDBRANCH  21  23
ENDBRANCH  15  21
TORSDOF 4
