REMARK  Name = ZINC38798884
REMARK  10 active torsions:
REMARK  status: ('A' for Active; 'I' for Inactive)
REMARK    1  A    between atoms: C_1  and  C_2
REMARK    2  A    between atoms: C_2  and  C_3
REMARK    3  A    between atoms: C_6  and  C_9
REMARK    4  A    between atoms: C_11  and  C_15
REMARK    5  A    between atoms: C_15  and  C_16
REMARK    6  A    between atoms: C_16  and  C_17
REMARK    7  A    between atoms: C_22  and  C_25
REMARK    8  A    between atoms: C_25  and  C_26
REMARK    9  A    between atoms: N_32  and  C_33
REMARK   10  A    between atoms: C_33  and  C_34
REMARK                            x       y       z     vdW  Elec       q    Type
REMARK                         _______ _______ _______ _____ _____    ______ ____
ROOT
ATOM      1  C   UNL     1     -10.606  -2.451  -2.356  0.00  0.00    +0.219 C 
ATOM      2  O   UNL     1     -10.168  -1.799  -3.280  0.00  0.00    -0.275 OA
ATOM      3  N   UNL     1     -11.926  -2.712  -2.281  0.00  0.00    -0.265 N 
ATOM      4  C   UNL     1     -12.785  -2.235  -3.264  0.00  0.00    +0.165 A 
ATOM      5  N   UNL     1     -14.089  -2.384  -3.353  0.00  0.00    -0.229 NA
ATOM      6  C   UNL     1     -14.769  -1.865  -4.359  0.00  0.00    +0.058 A 
ATOM      7  C   UNL     1     -14.063  -1.175  -5.288  0.00  0.00    +0.072 A 
ATOM      8  S   UNL     1     -12.411  -1.319  -4.626  0.00  0.00    -0.060 S 
ATOM      9  H   UNL     1     -12.277  -3.233  -1.542  0.00  0.00    +0.157 HD
ENDROOT
BRANCH   1  10
ATOM     10  C   UNL     1      -9.674  -2.968  -1.290  0.00  0.00    +0.100 C 
BRANCH  10  11
ATOM     11  C   UNL     1      -8.242  -2.534  -1.610  0.00  0.00    +0.066 C 
BRANCH  11  14
ATOM     12  C   UNL     1      -5.399  -1.997   0.043  0.00  0.00    +0.134 C 
ATOM     13  N   UNL     1      -5.904  -2.756  -0.879  0.00  0.00    -0.343 N 
ATOM     14  C   UNL     1      -7.296  -3.060  -0.528  0.00  0.00    +0.243 C 
ATOM     15  O   UNL     1      -7.534  -2.381   0.714  0.00  0.00    -0.248 OA
ATOM     16  N   UNL     1      -6.312  -1.734   1.033  0.00  0.00    -0.247 N 
ATOM     17  H   UNL     1      -6.150  -1.193   1.821  0.00  0.00    +0.196 HD
ATOM     18  H   UNL     1      -5.439  -3.070  -1.671  0.00  0.00    +0.164 HD
BRANCH  12  22
ATOM     19  C   UNL     1      -1.412  -0.526   0.013  0.00  0.00    -0.048 A 
ATOM     20  C   UNL     1      -2.049  -0.765   1.217  0.00  0.00    +0.004 A 
ATOM     21  C   UNL     1      -3.343  -1.243   1.234  0.00  0.00    +0.012 A 
ATOM     22  C   UNL     1      -4.009  -1.484   0.032  0.00  0.00    +0.017 A 
ATOM     23  C   UNL     1      -3.362  -1.241  -1.179  0.00  0.00    +0.012 A 
ATOM     24  C   UNL     1      -2.070  -0.758  -1.182  0.00  0.00    +0.004 A 
BRANCH  19  26
ATOM     25  C   UNL     1      -0.019   1.526   0.010  0.00  0.00    +0.009 C 
ATOM     26  C   UNL     1       0.002  -0.004   0.002  0.00  0.00    +0.032 C 
ENDBRANCH  19  26
ENDBRANCH  12  22
ENDBRANCH  11  14
ENDBRANCH  10  11
ENDBRANCH   1  10
BRANCH   6  27
ATOM     27  C   UNL     1     -16.262  -2.032  -4.469  0.00  0.00    +0.132 C 
BRANCH  27  28
ATOM     28  C   UNL     1     -16.609  -3.498  -4.424  0.00  0.00    +0.138 A 
ATOM     29  H   UNL     1     -16.101  -6.565  -4.224  0.00  0.00    +0.191 HD
ATOM     30  N   UNL     1     -15.761  -4.468  -4.303  0.00  0.00    -0.158 NA
ATOM     31  N   UNL     1     -16.476  -5.674  -4.301  0.00  0.00    -0.254 N 
ATOM     32  C   UNL     1     -17.784  -5.365  -4.427  0.00  0.00    +0.176 A 
ATOM     33  S   UNL     1     -19.087  -6.474  -4.479  0.00  0.00    -0.011 S 
ATOM     34  N   UNL     1     -17.876  -4.022  -4.498  0.00  0.00    -0.303 N 
BRANCH  34  35
ATOM     35  C   UNL     1     -19.115  -3.253  -4.635  0.00  0.00    +0.152 C 
BRANCH  35  36
ATOM     36  C   UNL     1     -19.428  -3.060  -6.096  0.00  0.00    -0.013 C 
ATOM     37  C   UNL     1     -20.590  -3.433  -6.572  0.00  0.00    +0.005 C 
ENDBRANCH  35  36
ENDBRANCH  34  35
ENDBRANCH  27  28
ENDBRANCH   6  27
TORSDOF 9
