REMARK  Name = ZINC43213854
REMARK  10 active torsions:
REMARK  status: ('A' for Active; 'I' for Inactive)
REMARK    1  A    between atoms: C_1  and  C_2
REMARK    2  A    between atoms: C_2  and  C_3
REMARK    3  A    between atoms: C_3  and  C_5
REMARK    4  A    between atoms: C_3  and  C_6
REMARK    5  A    between atoms: C_6  and  C_8
REMARK    6  A    between atoms: C_6  and  N_26
REMARK    7  A    between atoms: C_10  and  C_13
REMARK    8  A    between atoms: N_15  and  C_16
REMARK    9  A    between atoms: C_16  and  C_18
REMARK   10  A    between atoms: C_16  and  C_19
REMARK                            x       y       z     vdW  Elec       q    Type
REMARK                         _______ _______ _______ _____ _____    ______ ____
ROOT
ATOM      1  C   UNL     1      -2.827  -2.581   0.141  0.00  0.00    +0.182 A 
ATOM      2  N   UNL     1      -3.461  -3.014   1.189  0.00  0.00    -0.210 NA
ATOM      3  C   UNL     1      -4.710  -3.400   0.809  0.00  0.00    +0.163 A 
ATOM      4  C   UNL     1      -4.806  -3.178  -0.530  0.00  0.00    +0.230 A 
ATOM      5  O   UNL     1      -3.631  -2.665  -0.928  0.00  0.00    -0.449 OA
ENDROOT
BRANCH   3   6
ATOM      6  C   UNL     1      -5.759  -3.953   1.683  0.00  0.00    +0.266 C 
ATOM      7  O   UNL     1      -6.840  -4.260   1.217  0.00  0.00    -0.268 OA
ATOM      8  N   UNL     1      -5.522  -4.119   3.000  0.00  0.00    -0.303 N 
ATOM      9  H   UNL     1      -4.660  -3.874   3.372  0.00  0.00    +0.150 HD
BRANCH   8  10
ATOM     10  C   UNL     1      -6.565  -4.669   3.869  0.00  0.00    +0.100 C 
ATOM     11  C   UNL     1      -6.518  -6.198   3.817  0.00  0.00    +0.033 C 
BRANCH  10  12
ATOM     12  C   UNL     1      -6.335  -4.207   5.285  0.00  0.00    -0.027 A 
ATOM     13  C   UNL     1      -5.050  -4.145   5.791  0.00  0.00    +0.006 A 
ATOM     14  C   UNL     1      -4.838  -3.721   7.089  0.00  0.00    +0.015 A 
ATOM     15  C   UNL     1      -5.912  -3.358   7.882  0.00  0.00    +0.018 A 
ATOM     16  C   UNL     1      -7.198  -3.420   7.375  0.00  0.00    +0.015 A 
ATOM     17  C   UNL     1      -7.408  -3.840   6.075  0.00  0.00    +0.006 A 
ATOM     18 BR   UNL     1      -5.623  -2.778   9.658  0.00  0.00    -0.050 Br
ENDBRANCH  10  12
ENDBRANCH   8  10
ENDBRANCH   3   6
BRANCH   1  19
ATOM     19  C   UNL     1      -1.413  -2.059   0.130  0.00  0.00    +0.016 C 
BRANCH  19  20
ATOM     20  N   UNL     1      -0.690  -2.629  -1.014  0.00  0.00    +0.386 N 
ATOM     21  H   UNL     1      -0.677  -3.635  -0.937  0.00  0.00    -0.089 HD
ATOM     22  H   UNL     1      -1.153  -2.363  -1.871  0.00  0.00    -0.089 HD
ATOM     23  H   UNL     1       0.257  -2.280  -1.022  0.00  0.00    -0.089 HD
ENDBRANCH  19  20
BRANCH  19  24
ATOM     24  C   UNL     1      -1.433  -0.534   0.013  0.00  0.00    -0.020 C 
ATOM     25  C   UNL     1      -2.135  -0.131  -1.286  0.00  0.00    +0.006 C 
BRANCH  24  27
ATOM     26  C   UNL     1      -0.019   1.526   0.010  0.00  0.00    +0.004 C 
ATOM     27  C   UNL     1       0.002  -0.004   0.002  0.00  0.00    -0.001 C 
ENDBRANCH  24  27
ENDBRANCH  19  24
ENDBRANCH   1  19
TORSDOF 7
