REMARK  Name = ZINC04337487
REMARK  10 active torsions:
REMARK  status: ('A' for Active; 'I' for Inactive)
REMARK    1  A    between atoms: C_1  and  O_2
REMARK    2  A    between atoms: O_2  and  C_3
REMARK    3  A    between atoms: C_3  and  C_5
REMARK    4  A    between atoms: C_5  and  C_6
REMARK    5  A    between atoms: C_5  and  N_10
REMARK    6  A    between atoms: C_5  and  N_23
REMARK    7  A    between atoms: N_10  and  C_11
REMARK    8  A    between atoms: C_12  and  C_20
REMARK    9  A    between atoms: C_24  and  O_26
REMARK   10  A    between atoms: O_26  and  C_27
REMARK                            x       y       z     vdW  Elec       q    Type
REMARK                         _______ _______ _______ _____ _____    ______ ____
ROOT
ATOM      1  N   UNL     1       0.051   1.574   2.430  0.00  0.00    -0.301 N 
ATOM      2  H   UNL     1       0.456   2.111   3.129  0.00  0.00    +0.149 HD
ENDROOT
BRANCH   1   3
ATOM      3  C   UNL     1       0.176   0.198   2.455  0.00  0.00    +0.080 A 
ATOM      4  C   UNL     1       0.928  -0.585   3.322  0.00  0.00    +0.068 A 
ATOM      5  C   UNL     1       0.881  -2.026   3.136  0.00  0.00    -0.023 A 
ATOM      6  C   UNL     1       0.106  -2.450   2.115  0.00  0.00    -0.005 A 
ATOM      7  S   UNL     1      -0.563  -0.970   1.410  0.00  0.00    -0.078 S 
ATOM      8  C   UNL     1      -0.126  -3.865   1.684  0.00  0.00    +0.043 C 
ATOM      9  C   UNL     1       0.942  -4.752   2.339  0.00  0.00    +0.005 C 
ATOM     10  C   UNL     1       1.025  -4.406   3.828  0.00  0.00    +0.005 C 
ATOM     11  C   UNL     1       1.644  -3.018   4.006  0.00  0.00    +0.037 C 
BRANCH   4  12
ATOM     12  C   UNL     1       1.734   0.018   4.386  0.00  0.00    +0.244 C 
ATOM     13  O   UNL     1       1.247   0.207   5.486  0.00  0.00    -0.270 OA
ATOM     14  N   UNL     1       3.014   0.364   4.147  0.00  0.00    -0.325 N 
ATOM     15  H   UNL     1       3.402   0.214   3.271  0.00  0.00    +0.145 HD
ATOM     16  H   UNL     1       3.548   0.764   4.852  0.00  0.00    +0.145 HD
ENDBRANCH   4  12
ENDBRANCH   1   3
BRANCH   1  17
ATOM     17  C   UNL     1      -0.692   2.222   1.346  0.00  0.00    +0.298 C 
BRANCH  17  18
ATOM     18  C   UNL     1       0.021   1.968   0.016  0.00  0.00    +0.438 C 
ATOM     19  F   UNL     1       0.218   0.593  -0.152  0.00  0.00    -0.166 F 
ATOM     20  F   UNL     1       1.258   2.620   0.018  0.00  0.00    -0.166 F 
ATOM     21  F   UNL     1      -0.763   2.458  -1.034  0.00  0.00    -0.166 F 
ENDBRANCH  17  18
BRANCH  17  22
ATOM     22  N   UNL     1      -0.760   3.664   1.595  0.00  0.00    -0.244 N 
ATOM     23  C   UNL     1      -1.362   4.474   0.702  0.00  0.00    +0.402 C 
ATOM     24  O   UNL     1      -1.932   4.001  -0.261  0.00  0.00    -0.226 OA
ATOM     25  H   UNL     1      -0.372   4.036   2.403  0.00  0.00    +0.155 HD
BRANCH  23  26
ATOM     26  O   UNL     1      -1.332   5.809   0.877  0.00  0.00    -0.454 OA
ATOM     27  C   UNL     1      -2.001   6.620  -0.124  0.00  0.00    +0.282 C 
ENDBRANCH  23  26
ENDBRANCH  17  22
BRANCH  17  28
ATOM     28  C   UNL     1      -2.087   1.656   1.285  0.00  0.00    +0.359 C 
ATOM     29  O   UNL     1      -2.349   0.630   1.867  0.00  0.00    -0.246 OA
BRANCH  28  31
ATOM     30  C   UNL     1      -4.360   1.689   0.570  0.00  0.00    +0.280 C 
ATOM     31  O   UNL     1      -3.039   2.292   0.584  0.00  0.00    -0.465 OA
ENDBRANCH  28  31
ENDBRANCH  17  28
ENDBRANCH   1  17
TORSDOF 8
