REMARK  Name = ZINC63552627
REMARK  12 active torsions:
REMARK  status: ('A' for Active; 'I' for Inactive)
REMARK    1  A    between atoms: C_1  and  C_2
REMARK    2  A    between atoms: C_2  and  C_3
REMARK    3  A    between atoms: C_2  and  C_4
REMARK    4  A    between atoms: C_4  and  C_5
REMARK    5  A    between atoms: C_5  and  N_6
REMARK    6  A    between atoms: C_11  and  C_21
REMARK    7  A    between atoms: C_21  and  C_22
REMARK    8  A    between atoms: C_22  and  C_23
REMARK    9  A    between atoms: C_23  and  C_24
REMARK   10  A    between atoms: N_26  and  C_27
REMARK   11  A    between atoms: C_27  and  C_28
REMARK   12  A    between atoms: C_28  and  C_29
REMARK                            x       y       z     vdW  Elec       q    Type
REMARK                         _______ _______ _______ _____ _____    ______ ____
ROOT
ATOM      1  N   UNL     1      -2.791  -2.551  -0.231  0.00  0.00    -0.265 N 
ATOM      2  C   UNL     1      -3.542  -2.865   0.980  0.00  0.00    +0.253 C 
ATOM      3  N   UNL     1      -3.147  -2.028   2.128  0.00  0.00    -0.219 NA
ATOM      4  N   UNL     1      -4.372  -1.989   2.952  0.00  0.00    -0.234 NA
ATOM      5  C   UNL     1      -5.462  -1.863   1.946  0.00  0.00    +0.158 C 
ATOM      6  N   UNL     1      -4.977  -2.572   0.769  0.00  0.00    -0.280 N 
ATOM      7  C   UNL     1      -5.601  -2.893  -0.436  0.00  0.00    +0.053 A 
ATOM      8  C   UNL     1      -6.912  -3.167  -0.742  0.00  0.00    +0.031 A 
ATOM      9  C   UNL     1      -7.252  -3.453  -2.025  0.00  0.00    +0.048 A 
ATOM     10  S   UNL     1      -5.802  -3.365  -2.876  0.00  0.00    -0.090 S 
ATOM     11  C   UNL     1      -4.726  -2.949  -1.546  0.00  0.00    +0.095 A 
ATOM     12  C   UNL     1      -3.354  -2.705  -1.460  0.00  0.00    +0.257 C 
ATOM     13  O   UNL     1      -2.673  -2.636  -2.468  0.00  0.00    -0.269 OA
ATOM     14  H   UNL     1      -2.884  -1.101   1.827  0.00  0.00    +0.144 HD
ATOM     15  H   UNL     1      -4.472  -2.837   3.490  0.00  0.00    +0.143 HD
ENDROOT
BRANCH   1  16
ATOM     16  C   UNL     1      -1.416  -2.058  -0.121  0.00  0.00    +0.111 C 
BRANCH  16  17
ATOM     17  C   UNL     1      -0.449  -3.243  -0.097  0.00  0.00    +0.022 C 
BRANCH  17  19
ATOM     18  C   UNL     1       1.922  -3.928   0.294  0.00  0.00    +0.007 C 
ATOM     19  C   UNL     1       0.974  -2.736   0.146  0.00  0.00    -0.016 C 
ATOM     20  C   UNL     1       1.418  -1.876  -1.039  0.00  0.00    +0.007 C 
ENDBRANCH  17  19
ENDBRANCH  16  17
ENDBRANCH   1  16
BRANCH   5  21
ATOM     21  C   UNL     1      -6.745  -2.513   2.469  0.00  0.00    +0.040 C 
BRANCH  21  22
ATOM     22  C   UNL     1      -7.265  -1.721   3.670  0.00  0.00    +0.012 C 
BRANCH  22  23
ATOM     23  C   UNL     1      -8.548  -2.370   4.193  0.00  0.00    +0.096 C 
BRANCH  23  24
ATOM     24  C   UNL     1      -9.060  -1.590   5.376  0.00  0.00    +0.213 C 
ATOM     25  O   UNL     1      -8.459  -0.610   5.762  0.00  0.00    -0.276 OA
ATOM     26  N   UNL     1     -10.187  -1.980   6.004  0.00  0.00    -0.315 N 
ATOM     27  H   UNL     1     -10.668  -2.764   5.695  0.00  0.00    +0.149 HD
BRANCH  26  28
ATOM     28  C   UNL     1     -10.685  -1.221   7.154  0.00  0.00    +0.108 C 
BRANCH  28  29
ATOM     29  C   UNL     1     -11.967  -1.871   7.677  0.00  0.00    +0.052 C 
BRANCH  29  30
ATOM     30  C   UNL     1     -12.480  -1.090   8.860  0.00  0.00    -0.040 C 
ATOM     31  C   UNL     1     -13.415  -0.113   8.846  0.00  0.00    -0.001 A 
ATOM     32  C   UNL     1     -14.205   0.492   7.767  0.00  0.00    +0.010 A 
ATOM     33  C   UNL     1     -15.084   1.474   8.068  0.00  0.00    +0.001 A 
ATOM     34  C   UNL     1     -15.258   1.929   9.383  0.00  0.00    +0.002 A 
ATOM     35  C   UNL     1     -14.569   1.422  10.427  0.00  0.00    +0.026 A 
ATOM     36  C   UNL     1     -13.619   0.384  10.225  0.00  0.00    +0.043 A 
ATOM     37  N   UNL     1     -12.839  -0.260  11.059  0.00  0.00    -0.380 N 
ATOM     38  C   UNL     1     -12.056  -1.244  10.303  0.00  0.00    +0.144 C 
ATOM     39  H   UNL     1     -12.791  -0.114  12.017  0.00  0.00    +0.160 HD
ENDBRANCH  29  30
ENDBRANCH  28  29
ENDBRANCH  26  28
ENDBRANCH  23  24
ENDBRANCH  22  23
ENDBRANCH  21  22
ENDBRANCH   5  21
TORSDOF 10
