REMARK  Name = ZINC20477992
REMARK  3 active torsions:
REMARK  status: ('A' for Active; 'I' for Inactive)
REMARK    1  A    between atoms: C_6  and  N_7
REMARK    2  A    between atoms: C_8  and  C_10
REMARK    3  A    between atoms: C_13  and  O_17
REMARK                            x       y       z     vdW  Elec       q    Type
REMARK                         _______ _______ _______ _____ _____    ______ ____
ROOT
ATOM      1  N   UNL     1      -2.680   4.202   2.631  0.00  0.00    -0.287 N 
ATOM      2  C   UNL     1      -2.765   3.311   1.624  0.00  0.00    +0.203 C 
ATOM      3  O   UNL     1      -3.814   2.742   1.405  0.00  0.00    -0.277 OA
ATOM      4  H   UNL     1      -1.710   4.653   2.886  0.00  0.00    +0.155 HD
ENDROOT
BRANCH   1  10
ATOM      5  C   UNL     1      -5.061   4.602   2.718  0.00  0.00    +0.024 A 
ATOM      6  C   UNL     1      -6.191   4.945   3.434  0.00  0.00    +0.016 A 
ATOM      7  C   UNL     1      -6.092   5.251   4.780  0.00  0.00    +0.013 A 
ATOM      8  C   UNL     1      -4.863   5.210   5.413  0.00  0.00    +0.016 A 
ATOM      9  C   UNL     1      -3.731   4.862   4.704  0.00  0.00    +0.024 A 
ATOM     10  C   UNL     1      -3.826   4.554   3.353  0.00  0.00    +0.033 A 
ATOM     11  I   UNL     1      -7.808   5.779   5.860  0.00  0.00    -0.044 I 
ENDBRANCH   1  10
BRANCH   2  12
ATOM     12  C   UNL     1      -1.558   3.020   0.771  0.00  0.00    +0.019 C 
ATOM     13  C   UNL     1      -0.658   1.946   1.436  0.00  0.00    +0.023 C 
ATOM     14  C   UNL     1       0.103   1.343   0.233  0.00  0.00    +0.097 C 
ATOM     15  C   UNL     1      -0.763   1.667  -0.998  0.00  0.00    -0.050 C 
ATOM     16  N   UNL     1      -1.961   2.383  -0.509  0.00  0.00    +0.388 N 
ATOM     17  H   UNL     1      -2.794   1.688  -0.326  0.00  0.00    -0.085 HD
ATOM     18  H   UNL     1      -2.280   3.159  -1.220  0.00  0.00    -0.085 HD
BRANCH  14  19
ATOM     19  O   UNL     1       0.236  -0.072   0.388  0.00  0.00    -0.394 OA
ATOM     20  H   UNL     1       0.754  -0.663  -0.381  0.00  0.00    +0.210 HD
ENDBRANCH  14  19
ENDBRANCH   2  12
TORSDOF 3
