REMARK  Name = ZINC37819279
REMARK  10 active torsions:
REMARK  status: ('A' for Active; 'I' for Inactive)
REMARK    1  A    between atoms: C_1  and  C_2
REMARK    2  A    between atoms: C_2  and  C_3
REMARK    3  A    between atoms: C_3  and  C_5
REMARK    4  A    between atoms: C_3  and  C_6
REMARK    5  A    between atoms: C_6  and  C_8
REMARK    6  A    between atoms: C_6  and  N_23
REMARK    7  A    between atoms: N_14  and  C_17
REMARK    8  A    between atoms: C_17  and  C_18
REMARK    9  A    between atoms: N_20  and  C_21
REMARK   10  A    between atoms: N_20  and  C_22
REMARK                            x       y       z     vdW  Elec       q    Type
REMARK                         _______ _______ _______ _____ _____    ______ ____
ROOT
ATOM      1  C   UNL     1       1.636  -2.525  -2.664  0.00  0.00    +0.201 C 
ATOM      2  O   UNL     1       1.198  -3.017  -3.682  0.00  0.00    -0.277 OA
ATOM      3  N   UNL     1       2.964  -2.344  -2.519  0.00  0.00    -0.305 N 
ATOM      4  C   UNL     1       3.479  -1.853  -1.225  0.00  0.00    +0.106 C 
ATOM      5  C   UNL     1       4.765  -2.598  -0.823  0.00  0.00    +0.000 C 
ATOM      6  C   UNL     1       4.629  -4.063  -1.173  0.00  0.00    -0.077 C 
ATOM      7  N   UNL     1       5.195  -4.297  -2.499  0.00  0.00    +0.386 N 
ATOM      8  C   UNL     1       4.294  -4.114  -3.572  0.00  0.00    -0.059 C 
ATOM      9  C   UNL     1       3.835  -2.644  -3.637  0.00  0.00    +0.089 C 
ATOM     10  H   UNL     1       5.974  -3.670  -2.628  0.00  0.00    -0.081 HD
ENDROOT
BRANCH   1  11
ATOM     11  C   UNL     1       0.696  -2.116  -1.560  0.00  0.00    +0.016 C 
BRANCH  11  12
ATOM     12  N   UNL     1      -0.619  -2.731  -1.783  0.00  0.00    +0.386 N 
ATOM     13  H   UNL     1      -0.524  -3.736  -1.789  0.00  0.00    -0.089 HD
ATOM     14  H   UNL     1      -1.249  -2.457  -1.044  0.00  0.00    -0.089 HD
ATOM     15  H   UNL     1      -0.988  -2.423  -2.671  0.00  0.00    -0.089 HD
ENDBRANCH  11  12
BRANCH  11  16
ATOM     16  C   UNL     1       0.551  -0.592  -1.552  0.00  0.00    -0.020 C 
ATOM     17  C   UNL     1      -0.123  -0.137  -2.847  0.00  0.00    +0.006 C 
BRANCH  16  19
ATOM     18  C   UNL     1      -0.344   1.360  -0.275  0.00  0.00    +0.004 C 
ATOM     19  C   UNL     1      -0.303  -0.168  -0.356  0.00  0.00    -0.001 C 
ENDBRANCH  16  19
ENDBRANCH  11  16
ENDBRANCH   1  11
BRANCH   7  20
ATOM     20  C   UNL     1       5.702  -5.675  -2.550  0.00  0.00    +0.019 C 
BRANCH  20  21
ATOM     21  C   UNL     1       6.873  -5.814  -1.611  0.00  0.00    +0.199 C 
ATOM     22  O   UNL     1       7.316  -4.837  -1.045  0.00  0.00    -0.278 OA
ATOM     23  N   UNL     1       7.427  -7.024  -1.401  0.00  0.00    -0.309 N 
ATOM     24  C   UNL     1       8.565  -7.160  -0.488  0.00  0.00    +0.131 C 
ATOM     25  C   UNL     1       6.893  -8.204  -2.084  0.00  0.00    +0.131 C 
ENDBRANCH  20  21
ENDBRANCH   7  20
TORSDOF 6
