REMARK  Name = ZINC39653075
REMARK  9 active torsions:
REMARK  status: ('A' for Active; 'I' for Inactive)
REMARK    1  A    between atoms: C_1  and  O_2
REMARK    2  A    between atoms: O_2  and  C_3
REMARK    3  A    between atoms: C_5  and  C_11
REMARK    4  A    between atoms: C_7  and  O_9
REMARK    5  A    between atoms: O_9  and  C_10
REMARK    6  A    between atoms: C_11  and  C_12
REMARK    7  A    between atoms: C_12  and  N_13
REMARK    8  A    between atoms: C_14  and  C_16
REMARK    9  A    between atoms: C_27  and  C_29
REMARK                            x       y       z     vdW  Elec       q    Type
REMARK                         _______ _______ _______ _____ _____    ______ ____
ROOT
ATOM      1  C   UNL     1      -1.177  -7.760  -3.829  0.00  0.00    +0.100 C 
ATOM      2  C   UNL     1      -0.895  -8.473  -2.487  0.00  0.00    +0.121 C 
ATOM      3  N   UNL     1      -2.211  -9.009  -2.065  0.00  0.00    -0.296 N 
ATOM      4  C   UNL     1      -2.833  -9.491  -3.321  0.00  0.00    +0.115 C 
ATOM      5  C   UNL     1      -2.446  -8.434  -4.375  0.00  0.00    -0.004 C 
ATOM      6  C   UNL     1      -2.155  -9.105  -5.714  0.00  0.00    -0.010 C 
ATOM      7  C   UNL     1      -3.445  -9.717  -6.265  0.00  0.00    -0.082 C 
ATOM      8  N   UNL     1      -4.456  -8.666  -6.432  0.00  0.00    +0.379 N 
ATOM      9  C   UNL     1      -4.799  -8.089  -5.126  0.00  0.00    -0.082 C 
ATOM     10  C   UNL     1      -3.565  -7.408  -4.527  0.00  0.00    -0.010 C 
ATOM     11  C   UNL     1      -2.726  -9.050  -0.820  0.00  0.00    +0.248 C 
ATOM     12  O   UNL     1      -3.785  -9.611  -0.618  0.00  0.00    -0.270 OA
ATOM     13  H   UNL     1      -4.090  -7.942  -7.032  0.00  0.00    -0.086 HD
ATOM     14  H   UNL     1      -5.284  -9.060  -6.852  0.00  0.00    -0.086 HD
ENDROOT
BRANCH  11  15
ATOM     15  C   UNL     1      -2.002  -8.412   0.300  0.00  0.00    +0.057 A 
ATOM     16  C   UNL     1      -0.607  -8.431   0.335  0.00  0.00    +0.014 A 
ATOM     17  C   UNL     1       0.063  -7.835   1.382  0.00  0.00    +0.002 A 
ATOM     18  C   UNL     1      -0.644  -7.217   2.399  0.00  0.00    +0.021 A 
ATOM     19  C   UNL     1      -2.027  -7.194   2.373  0.00  0.00    +0.060 A 
ATOM     20  C   UNL     1      -2.711  -7.782   1.325  0.00  0.00    +0.071 A 
ATOM     21 CL   UNL     1      -4.447  -7.746   1.289  0.00  0.00    -0.081 Cl
ATOM     22 CL   UNL     1      -2.905  -6.417   3.654  0.00  0.00    -0.082 Cl
ENDBRANCH  11  15
BRANCH   1  24
ATOM     23  N   UNL     1      -1.143  -5.403  -4.579  0.00  0.00    -0.315 N 
ATOM     24  C   UNL     1      -1.419  -6.290  -3.602  0.00  0.00    +0.218 C 
ATOM     25  O   UNL     1      -1.861  -5.905  -2.540  0.00  0.00    -0.275 OA
ATOM     26  H   UNL     1      -0.789  -5.711  -5.428  0.00  0.00    +0.149 HD
BRANCH  23  27
ATOM     27  C   UNL     1      -1.378  -3.974  -4.358  0.00  0.00    +0.109 C 
BRANCH  27  28
ATOM     28  C   UNL     1      -0.986  -3.193  -5.614  0.00  0.00    +0.054 C 
BRANCH  28  31
ATOM     29  C   UNL     1      -0.445   0.422  -4.652  0.00  0.00    +0.124 A 
ATOM     30  C   UNL     1      -0.225  -0.932  -4.862  0.00  0.00    +0.049 A 
ATOM     31  C   UNL     1      -1.228  -1.723  -5.387  0.00  0.00    -0.039 A 
ATOM     32  C   UNL     1      -2.453  -1.169  -5.705  0.00  0.00    +0.049 A 
ATOM     33  C   UNL     1      -2.678   0.185  -5.497  0.00  0.00    +0.124 A 
ATOM     34  C   UNL     1      -1.675   0.980  -4.965  0.00  0.00    +0.091 A 
BRANCH  29  36
ATOM     35  C   UNL     1       0.244   2.584  -3.941  0.00  0.00    +0.277 C 
ATOM     36  O   UNL     1       0.543   1.200  -4.136  0.00  0.00    -0.495 OA
ENDBRANCH  29  36
BRANCH  33  37
ATOM     37  O   UNL     1      -3.883   0.730  -5.810  0.00  0.00    -0.495 OA
ATOM     38  C   UNL     1      -4.045   2.129  -5.570  0.00  0.00    +0.277 C 
ENDBRANCH  33  37
ENDBRANCH  28  31
ENDBRANCH  27  28
ENDBRANCH  23  27
ENDBRANCH   1  24
TORSDOF 7
