REMARK  Name = ZINC08743561
REMARK  4 active torsions:
REMARK  status: ('A' for Active; 'I' for Inactive)
REMARK    1  A    between atoms: C_9  and  C_11
REMARK    2  A    between atoms: C_12  and  O_26
REMARK    3  A    between atoms: C_14  and  S_25
REMARK    4  A    between atoms: N_15  and  C_18
REMARK                            x       y       z     vdW  Elec       q    Type
REMARK                         _______ _______ _______ _____ _____    ______ ____
ROOT
ATOM      1  C   UNL     1      -3.225   1.376   2.362  0.00  0.00    +0.069 A 
ATOM      2  C   UNL     1      -3.167   0.718   3.579  0.00  0.00    +0.222 A 
ATOM      3  N   UNL     1      -3.396   1.391   4.710  0.00  0.00    -0.188 NA
ATOM      4  C   UNL     1      -3.689   2.676   4.692  0.00  0.00    +0.177 A 
ATOM      5  N   UNL     1      -3.764   3.369   3.520  0.00  0.00    -0.256 N 
ATOM      6  C   UNL     1      -3.537   2.741   2.348  0.00  0.00    +0.265 A 
ATOM      7  O   UNL     1      -3.601   3.352   1.293  0.00  0.00    -0.267 OA
ENDROOT
BRANCH   1  16
ATOM      8  C   UNL     1      -6.590   0.529  -1.190  0.00  0.00    +0.000 A 
ATOM      9  C   UNL     1      -6.607   0.318   0.177  0.00  0.00    +0.000 A 
ATOM     10  C   UNL     1      -5.429   0.359   0.894  0.00  0.00    +0.002 A 
ATOM     11  C   UNL     1      -4.225   0.610   0.252  0.00  0.00    -0.054 A 
ATOM     12  C   UNL     1      -4.208   0.823  -1.110  0.00  0.00    -0.047 A 
ATOM     13  C   UNL     1      -5.393   0.780  -1.830  0.00  0.00    +0.004 A 
ATOM     14  C   UNL     1      -2.926   1.104  -1.851  0.00  0.00    +0.016 C 
ATOM     15  C   UNL     1      -1.728   0.701  -0.992  0.00  0.00    -0.077 C 
ATOM     16  C   UNL     1      -2.965   0.635   1.076  0.00  0.00    +0.001 C 
ATOM     17  N   UNL     1      -1.878   1.306   0.344  0.00  0.00    +0.387 N 
ATOM     18  H   UNL     1      -2.100   2.304   0.243  0.00  0.00    -0.085 HD
ATOM     19  H   UNL     1      -1.000   1.202   0.866  0.00  0.00    -0.085 HD
ENDBRANCH   1  16
BRANCH   5  20
ATOM     20  C   UNL     1      -4.078   4.735   3.533  0.00  0.00    +0.052 A 
ATOM     21  C   UNL     1      -5.402   5.145   3.453  0.00  0.00    +0.028 A 
ATOM     22  C   UNL     1      -5.709   6.491   3.472  0.00  0.00    +0.022 A 
ATOM     23  C   UNL     1      -4.697   7.432   3.559  0.00  0.00    +0.041 A 
ATOM     24  C   UNL     1      -3.377   7.026   3.633  0.00  0.00    +0.022 A 
ATOM     25  C   UNL     1      -3.065   5.680   3.620  0.00  0.00    +0.028 A 
ATOM     26 CL   UNL     1      -5.086   9.123   3.576  0.00  0.00    -0.084 Cl
ENDBRANCH   5  20
BRANCH   4  27
ATOM     27  S   UNL     1      -3.990   3.514   6.213  0.00  0.00    -0.105 S 
ATOM     28  H   UNL     1      -3.811   2.449   7.119  0.00  0.00    +0.110 HD
ENDBRANCH   4  27
BRANCH   2  29
ATOM     29  O   UNL     1      -2.874  -0.603   3.623  0.00  0.00    -0.492 OA
ATOM     30  H   UNL     1      -2.857  -0.972   4.516  0.00  0.00    +0.294 HD
ENDBRANCH   2  29
TORSDOF 4
