REMARK  Name = ZINC00880644
REMARK  12 active torsions:
REMARK  status: ('A' for Active; 'I' for Inactive)
REMARK    1  A    between atoms: C_1  and  C_2
REMARK    2  A    between atoms: C_5  and  C_30
REMARK    3  A    between atoms: C_9  and  C_14
REMARK    4  A    between atoms: C_14  and  N_15
REMARK    5  A    between atoms: N_15  and  C_16
REMARK    6  A    between atoms: N_15  and  C_20
REMARK    7  A    between atoms: C_16  and  C_17
REMARK    8  A    between atoms: C_17  and  N_57
REMARK    9  A    between atoms: C_18  and  N_57
REMARK   10  A    between atoms: C_19  and  N_57
REMARK   11  A    between atoms: C_20  and  N_22
REMARK   12  A    between atoms: N_22  and  C_23
REMARK                            x       y       z     vdW  Elec       q    Type
REMARK                         _______ _______ _______ _____ _____    ______ ____
ROOT
ATOM      1  N   UNL     1       1.368   4.386   1.339  0.00  0.00    -0.310 N 
ENDROOT
BRANCH   1   2
ATOM      2  C   UNL     1       0.255   4.603   2.068  0.00  0.00    +0.137 C 
ATOM      3  S   UNL     1      -1.275   4.650   1.300  0.00  0.00    -0.018 S 
BRANCH   2   4
ATOM      4  N   UNL     1       0.346   4.784   3.400  0.00  0.00    -0.297 N 
ATOM      5  H   UNL     1       1.201   4.679   3.846  0.00  0.00    +0.154 HD
BRANCH   4   6
ATOM      6  C   UNL     1      -0.792   5.125   4.140  0.00  0.00    +0.033 A 
ATOM      7  C   UNL     1      -1.690   6.060   3.643  0.00  0.00    +0.026 A 
ATOM      8  C   UNL     1      -2.816   6.391   4.372  0.00  0.00    +0.040 A 
ATOM      9  C   UNL     1      -3.043   5.799   5.604  0.00  0.00    +0.124 A 
ATOM     10  C   UNL     1      -2.146   4.870   6.103  0.00  0.00    +0.040 A 
ATOM     11  C   UNL     1      -1.022   4.532   5.375  0.00  0.00    +0.026 A 
ATOM     12  F   UNL     1      -4.141   6.128   6.318  0.00  0.00    -0.205 F 
ENDBRANCH   4   6
ENDBRANCH   2   4
ENDBRANCH   1   2
BRANCH   1  13
ATOM     13  C   UNL     1       1.268   4.189  -0.109  0.00  0.00    +0.147 C 
BRANCH  13  22
ATOM     14  C   UNL     1      -2.796   1.045  -0.957  0.00  0.00    +0.044 C 
ATOM     15  C   UNL     1      -1.550   0.202  -1.051  0.00  0.00    -0.041 A 
ATOM     16  C   UNL     1      -1.645  -1.135  -1.317  0.00  0.00    +0.004 A 
ATOM     17  C   UNL     1      -0.504  -1.920  -1.406  0.00  0.00    +0.005 A 
ATOM     18  C   UNL     1       0.746  -1.367  -1.226  0.00  0.00    -0.026 A 
ATOM     19  C   UNL     1       0.867  -0.009  -0.953  0.00  0.00    +0.052 A 
ATOM     20  C   UNL     1      -0.292   0.784  -0.864  0.00  0.00    +0.002 A 
ATOM     21  C   UNL     1      -0.154   2.213  -0.577  0.00  0.00    +0.020 A 
ATOM     22  C   UNL     1       1.091   2.722  -0.406  0.00  0.00    +0.035 A 
ATOM     23  C   UNL     1       2.222   1.883  -0.506  0.00  0.00    +0.254 A 
ATOM     24  O   UNL     1       3.332   2.362  -0.350  0.00  0.00    -0.268 OA
ATOM     25  N   UNL     1       2.105   0.570  -0.770  0.00  0.00    -0.322 N 
ATOM     26  H   UNL     1       2.928   0.005  -0.833  0.00  0.00    +0.169 HD
ATOM     27  C   UNL     1       1.977  -2.232  -1.324  0.00  0.00    +0.046 C 
ENDBRANCH  13  22
ENDBRANCH   1  13
BRANCH   1  28
ATOM     28  C   UNL     1       2.677   4.346   1.996  0.00  0.00    +0.088 C 
BRANCH  28  29
ATOM     29  C   UNL     1       3.278   5.752   2.021  0.00  0.00    -0.060 C 
BRANCH  29  32
ATOM     30  C   UNL     1       5.301   6.987   2.515  0.00  0.00    -0.097 C 
ATOM     31  C   UNL     1       4.456   5.363   4.100  0.00  0.00    -0.097 C 
ATOM     32  N   UNL     1       4.606   5.692   2.667  0.00  0.00    +0.377 N 
ATOM     33  H   UNL     1       5.164   4.959   2.213  0.00  0.00    -0.083 HD
ENDBRANCH  29  32
ENDBRANCH  28  29
ENDBRANCH   1  28
TORSDOF 8
