REMARK  Name = ZINC16912353
REMARK  11 active torsions:
REMARK  status: ('A' for Active; 'I' for Inactive)
REMARK    1  A    between atoms: C_1  and  C_2
REMARK    2  A    between atoms: C_2  and  C_3
REMARK    3  A    between atoms: C_6  and  N_8
REMARK    4  A    between atoms: N_10  and  C_29
REMARK    5  A    between atoms: C_14  and  C_15
REMARK    6  A    between atoms: C_18  and  O_23
REMARK    7  A    between atoms: C_19  and  O_21
REMARK    8  A    between atoms: O_21  and  C_22
REMARK    9  A    between atoms: O_23  and  C_24
REMARK   10  A    between atoms: C_24  and  C_25
REMARK   11  A    between atoms: C_25  and  C_26
REMARK                            x       y       z     vdW  Elec       q    Type
REMARK                         _______ _______ _______ _____ _____    ______ ____
ROOT
ATOM      1  N   UNL     1      -6.190   5.862   8.538  0.00  0.00    -0.198 NA
ATOM      2  C   UNL     1      -5.267   5.064   8.043  0.00  0.00    +0.170 C 
ATOM      3  N   UNL     1      -5.035   4.735   6.727  0.00  0.00    -0.249 N 
ATOM      4  C   UNL     1      -4.057   3.909   6.399  0.00  0.00    +0.259 C 
ATOM      5  O   UNL     1      -3.839   3.608   5.240  0.00  0.00    -0.269 OA
ATOM      6  C   UNL     1      -3.240   3.368   7.503  0.00  0.00    +0.078 C 
ATOM      7  C   UNL     1      -2.188   2.512   7.457  0.00  0.00    +0.028 C 
ATOM      8  S   UNL     1      -4.015   4.138   8.918  0.00  0.00    -0.049 S 
ATOM      9  C   UNL     1      -5.883   5.307   5.677  0.00  0.00    +0.140 C 
ENDROOT
BRANCH   7  10
ATOM     10  C   UNL     1      -1.608   2.130   6.163  0.00  0.00    -0.020 A 
ATOM     11  C   UNL     1      -1.512   3.072   5.131  0.00  0.00    +0.012 A 
ATOM     12  C   UNL     1      -0.962   2.712   3.920  0.00  0.00    +0.050 A 
ATOM     13  C   UNL     1      -0.514   1.414   3.715  0.00  0.00    +0.162 A 
ATOM     14  C   UNL     1      -0.607   0.470   4.737  0.00  0.00    +0.162 A 
ATOM     15  C   UNL     1      -1.151   0.823   5.957  0.00  0.00    +0.057 A 
BRANCH  14  16
ATOM     16  O   UNL     1      -0.162  -0.799   4.534  0.00  0.00    -0.491 OA
ATOM     17  C   UNL     1      -0.287  -1.714   5.624  0.00  0.00    +0.277 C 
ENDBRANCH  14  16
BRANCH  13  18
ATOM     18  O   UNL     1       0.022   1.063   2.517  0.00  0.00    -0.488 OA
BRANCH  18  19
ATOM     19  C   UNL     1       0.086   2.079   1.514  0.00  0.00    +0.240 C 
BRANCH  19  20
ATOM     20  C   UNL     1       0.715   1.502   0.244  0.00  0.00    +0.166 C 
BRANCH  20  21
ATOM     21  C   UNL     1       0.783   2.573  -0.814  0.00  0.00    +0.359 C 
ATOM     22  O   UNL     1       0.372   3.684  -0.577  0.00  0.00    -0.246 OA
ATOM     23  O   UNL     1       1.301   2.293  -2.020  0.00  0.00    -0.246 OA
ENDBRANCH  20  21
ENDBRANCH  19  20
ENDBRANCH  18  19
ENDBRANCH  13  18
ENDBRANCH   7  10
BRANCH   1  27
ATOM     24  C   UNL     1      -8.275   8.240   6.067  0.00  0.00    +0.104 A 
ATOM     25  N   UNL     1      -8.797   7.089   6.442  0.00  0.00    -0.144 NA
ATOM     26  N   UNL     1      -8.192   6.294   7.212  0.00  0.00    -0.121 NA
ATOM     27  C   UNL     1      -6.986   6.580   7.703  0.00  0.00    +0.217 A 
ATOM     28  S   UNL     1      -6.713   8.177   6.941  0.00  0.00    -0.031 S 
BRANCH  24  30
ATOM     29  C   UNL     1      -9.633  10.314   5.991  0.00  0.00    +0.011 C 
ATOM     30  C   UNL     1      -8.834   9.306   5.161  0.00  0.00    +0.061 C 
ENDBRANCH  24  30
ENDBRANCH   1  27
TORSDOF 8
