REMARK  Name = ZINC40679407
REMARK  8 active torsions:
REMARK  status: ('A' for Active; 'I' for Inactive)
REMARK    1  A    between atoms: C_1  and  C_2
REMARK    2  A    between atoms: C_2  and  C_3
REMARK    3  A    between atoms: C_8  and  N_9
REMARK    4  A    between atoms: C_11  and  N_25
REMARK    5  A    between atoms: C_12  and  N_16
REMARK    6  A    between atoms: N_16  and  C_17
REMARK    7  A    between atoms: N_16  and  C_19
REMARK    8  A    between atoms: C_17  and  C_18
REMARK                            x       y       z     vdW  Elec       q    Type
REMARK                         _______ _______ _______ _____ _____    ______ ____
ROOT
ATOM      1  N   UNL     1       2.862  -0.268  -0.168  0.00  0.00    -0.299 N 
ATOM      2  C   UNL     1       4.234  -0.487  -0.127  0.00  0.00    +0.126 A 
ATOM      3  C   UNL     1       4.955  -0.257   1.047  0.00  0.00    +0.104 A 
ATOM      4  C   UNL     1       6.330  -0.493   1.034  0.00  0.00    +0.151 A 
ATOM      5  N   UNL     1       6.899  -0.926  -0.089  0.00  0.00    -0.220 NA
ATOM      6  C   UNL     1       6.183  -1.131  -1.176  0.00  0.00    +0.200 A 
ATOM      7  N   UNL     1       4.881  -0.926  -1.204  0.00  0.00    -0.333 N 
ATOM      8  H   UNL     1       2.409   0.116   0.599  0.00  0.00    +0.154 HD
ATOM      9  H   UNL     1       4.389  -1.093  -2.023  0.00  0.00    +0.168 HD
ENDROOT
BRANCH   1  15
ATOM     10  C   UNL     1       1.871  -1.931  -1.610  0.00  0.00    -0.026 A 
ATOM     11  C   UNL     1       1.147  -2.255  -2.741  0.00  0.00    +0.005 A 
ATOM     12  C   UNL     1       0.692  -1.256  -3.582  0.00  0.00    +0.000 A 
ATOM     13  C   UNL     1       0.959   0.070  -3.295  0.00  0.00    +0.002 A 
ATOM     14  C   UNL     1       1.682   0.401  -2.165  0.00  0.00    +0.023 A 
ATOM     15  C   UNL     1       2.135  -0.600  -1.315  0.00  0.00    +0.036 A 
BRANCH  10  17
ATOM     16  C   UNL     1       1.364  -3.225   0.444  0.00  0.00    +0.009 C 
ATOM     17  C   UNL     1       2.367  -3.020  -0.694  0.00  0.00    +0.033 C 
ENDBRANCH  10  17
ENDBRANCH   1  15
BRANCH   3  18
ATOM     18  N   UNL     1       4.313   0.200   2.209  0.00  0.00    -0.353 N 
ATOM     19  H   UNL     1       3.347   0.288   2.227  0.00  0.00    +0.143 HD
ATOM     20  H   UNL     1       4.835   0.428   2.994  0.00  0.00    +0.143 HD
ENDBRANCH   3  18
BRANCH   4  21
ATOM     21  N   UNL     1       7.095  -0.280   2.175  0.00  0.00    -0.284 N 
BRANCH  21  22
ATOM     22  C   UNL     1       7.758   0.937   2.354  0.00  0.00    +0.035 A 
ATOM     23  C   UNL     1       8.622   1.108   3.429  0.00  0.00    +0.023 A 
ATOM     24  C   UNL     1       9.276   2.312   3.603  0.00  0.00    +0.002 A 
ATOM     25  C   UNL     1       9.072   3.347   2.709  0.00  0.00    +0.000 A 
ATOM     26  C   UNL     1       8.212   3.180   1.638  0.00  0.00    +0.002 A 
ATOM     27  C   UNL     1       7.559   1.978   1.455  0.00  0.00    +0.023 A 
ENDBRANCH  21  22
BRANCH  21  28
ATOM     28  C   UNL     1       7.205  -1.330   3.190  0.00  0.00    +0.109 C 
ATOM     29  C   UNL     1       8.402  -2.228   2.868  0.00  0.00    +0.025 C 
ENDBRANCH  21  28
ENDBRANCH   4  21
TORSDOF 6
