REMARK  Name = ZINC18163723
REMARK  8 active torsions:
REMARK  status: ('A' for Active; 'I' for Inactive)
REMARK    1  A    between atoms: C_1  and  C_2
REMARK    2  A    between atoms: C_5  and  N_8
REMARK    3  A    between atoms: C_12  and  C_31
REMARK    4  A    between atoms: C_18  and  S_19
REMARK    5  A    between atoms: S_19  and  C_20
REMARK    6  A    between atoms: C_20  and  C_21
REMARK    7  A    between atoms: N_23  and  C_24
REMARK    8  A    between atoms: C_28  and  C_30
REMARK                            x       y       z     vdW  Elec       q    Type
REMARK                         _______ _______ _______ _____ _____    ______ ____
ROOT
ATOM      1  N   UNL     1       3.493  10.644   0.593  0.00  0.00    -0.275 N 
ATOM      2  C   UNL     1       3.265  12.008   0.691  0.00  0.00    +0.124 A 
ATOM      3  N   UNL     1       4.256  12.860   0.793  0.00  0.00    -0.384 N 
ATOM      4  C   UNL     1       1.867  12.460   0.681  0.00  0.00    +0.082 A 
ATOM      5  C   UNL     1       1.240  13.715   0.762  0.00  0.00    +0.072 A 
ATOM      6  N   UNL     1      -0.051  13.534   0.705  0.00  0.00    -0.177 NA
ATOM      7  N   UNL     1      -0.325  12.166   0.584  0.00  0.00    -0.260 N 
ATOM      8  H   UNL     1      -1.367  11.817   0.521  0.00  0.00    +0.191 HD
ATOM      9  C   UNL     1       0.858  11.494   0.569  0.00  0.00    +0.162 A 
ATOM     10  N   UNL     1       1.188  10.197   0.474  0.00  0.00    -0.204 NA
ATOM     11  C   UNL     1       2.433   9.787   0.482  0.00  0.00    +0.177 A 
ATOM     12  C   UNL     1       1.940  15.044   0.894  0.00  0.00    +0.068 C 
ATOM     13  H   UNL     1       4.050  13.937   0.870  0.00  0.00    +0.157 HD
ATOM     14  H   UNL     1       5.295  12.497   0.803  0.00  0.00    +0.157 HD
ENDROOT
BRANCH   1  19
ATOM     15  C   UNL     1       8.799   8.632   0.626  0.00  0.00    +0.044 C 
ATOM     16  C   UNL     1       7.390   9.166   0.618  0.00  0.00    -0.050 A 
ATOM     17  C   UNL     1       6.606   9.027  -0.514  0.00  0.00    +0.005 A 
ATOM     18  C   UNL     1       5.315   9.516  -0.525  0.00  0.00    +0.026 A 
ATOM     19  C   UNL     1       4.803  10.147   0.601  0.00  0.00    +0.050 A 
ATOM     20  C   UNL     1       5.593  10.289   1.734  0.00  0.00    +0.026 A 
ATOM     21  C   UNL     1       6.883   9.794   1.741  0.00  0.00    +0.005 A 
ENDBRANCH   1  19
BRANCH  11  22
ATOM     22  S   UNL     1       2.753   8.059   0.352  0.00  0.00    -0.078 S 
BRANCH  22  23
ATOM     23  C   UNL     1       1.059   7.433   0.245  0.00  0.00    +0.173 C 
BRANCH  23  24
ATOM     24  C   UNL     1       1.085   5.931   0.123  0.00  0.00    +0.227 C 
ATOM     25  O   UNL     1       2.146   5.342   0.111  0.00  0.00    -0.275 OA
ATOM     26  N   UNL     1      -0.069   5.242   0.029  0.00  0.00    -0.285 N 
ATOM     27  H   UNL     1      -1.026   5.779  -0.047  0.00  0.00    +0.155 HD
BRANCH  26  28
ATOM     28  C   UNL     1      -0.051   3.842   0.028  0.00  0.00    +0.034 A 
ATOM     29  C   UNL     1       0.907   3.158   0.765  0.00  0.00    +0.023 A 
ATOM     30  C   UNL     1       0.922   1.778   0.762  0.00  0.00    +0.002 A 
ATOM     31  C   UNL     1      -0.014   1.076   0.025  0.00  0.00    +0.003 A 
ATOM     32  C   UNL     1      -0.966   1.754  -0.714  0.00  0.00    -0.049 A 
ATOM     33  C   UNL     1      -0.990   3.135  -0.711  0.00  0.00    +0.026 A 
ATOM     34  C   UNL     1      -1.981   0.985  -1.521  0.00  0.00    +0.044 C 
ENDBRANCH  26  28
ENDBRANCH  23  24
ENDBRANCH  22  23
ENDBRANCH  11  22
TORSDOF 5
