REMARK  Name = ZINC37722334
REMARK  12 active torsions:
REMARK  status: ('A' for Active; 'I' for Inactive)
REMARK    1  A    between atoms: C_1  and  C_2
REMARK    2  A    between atoms: C_2  and  O_3
REMARK    3  A    between atoms: O_3  and  C_4
REMARK    4  A    between atoms: C_6  and  C_17
REMARK    5  A    between atoms: C_9  and  O_10
REMARK    6  A    between atoms: O_10  and  C_11
REMARK    7  A    between atoms: C_11  and  C_12
REMARK    8  A    between atoms: C_13  and  C_14
REMARK    9  A    between atoms: C_13  and  C_15
REMARK   10  A    between atoms: C_17  and  C_18
REMARK   11  A    between atoms: C_18  and  C_20
REMARK   12  A    between atoms: C_18  and  N_21
REMARK                            x       y       z     vdW  Elec       q    Type
REMARK                         _______ _______ _______ _____ _____    ______ ____
ROOT
ATOM      1  C   UNL     1       0.599  -1.861  -1.543  0.00  0.00    +0.163 A 
ATOM      2  C   UNL     1       0.029  -2.710  -0.607  0.00  0.00    +0.053 A 
ATOM      3  C   UNL     1       0.236  -4.074  -0.695  0.00  0.00    -0.044 A 
ATOM      4  C   UNL     1       1.010  -4.595  -1.715  0.00  0.00    +0.022 A 
ATOM      5  C   UNL     1       1.581  -3.753  -2.652  0.00  0.00    +0.063 A 
ATOM      6  C   UNL     1       1.373  -2.385  -2.573  0.00  0.00    +0.176 A 
ATOM      7 BR   UNL     1       2.641  -4.470  -4.045  0.00  0.00    -0.046 Br
ENDROOT
BRANCH   1   8
ATOM      8  O   UNL     1       0.397  -0.519  -1.457  0.00  0.00    -0.489 OA
BRANCH   8  10
ATOM      9  C   UNL     1      -0.522   1.473  -0.442  0.00  0.00    +0.048 C 
ATOM     10  C   UNL     1      -0.408  -0.051  -0.373  0.00  0.00    +0.226 C 
ENDBRANCH   8  10
ENDBRANCH   1   8
BRANCH   6  11
ATOM     11  O   UNL     1       1.929  -1.556  -3.497  0.00  0.00    -0.483 OA
BRANCH  11  12
ATOM     12  C   UNL     1       3.235  -1.051  -3.212  0.00  0.00    +0.257 C 
BRANCH  12  13
ATOM     13  C   UNL     1       3.685  -0.158  -4.340  0.00  0.00    +0.012 C 
ATOM     14  C   UNL     1       4.263   0.988  -4.077  0.00  0.00    -0.076 C 
ATOM     15  C   UNL     1       4.622   1.343  -2.657  0.00  0.00    +0.038 C 
ATOM     16  C   UNL     1       4.568   1.952  -5.195  0.00  0.00    +0.038 C 
ENDBRANCH  12  13
ENDBRANCH  11  12
ENDBRANCH   6  11
BRANCH   3  17
ATOM     17  C   UNL     1      -0.384  -4.995   0.324  0.00  0.00    +0.019 C 
BRANCH  17  18
ATOM     18  C   UNL     1      -1.769  -5.431  -0.158  0.00  0.00    -0.074 C 
ATOM     19  C   UNL     1      -2.346  -6.462   0.814  0.00  0.00    -0.014 C 
BRANCH  18  20
ATOM     20  N   UNL     1      -2.657  -4.263  -0.217  0.00  0.00    +0.380 N 
ATOM     21  H   UNL     1      -2.277  -3.583  -0.858  0.00  0.00    -0.090 HD
ATOM     22  H   UNL     1      -3.571  -4.551  -0.535  0.00  0.00    -0.090 HD
ATOM     23  H   UNL     1      -2.735  -3.853   0.701  0.00  0.00    -0.090 HD
ENDBRANCH  18  20
ENDBRANCH  17  18
ENDBRANCH   3  17
TORSDOF 8
