REMARK  Name = ZINC32042433
REMARK  11 active torsions:
REMARK  status: ('A' for Active; 'I' for Inactive)
REMARK    1  A    between atoms: C_1  and  C_2
REMARK    2  A    between atoms: C_2  and  C_40
REMARK    3  A    between atoms: N_14  and  N_15
REMARK    4  A    between atoms: C_16  and  C_18
REMARK    5  A    between atoms: C_18  and  C_20
REMARK    6  A    between atoms: C_18  and  N_26
REMARK    7  A    between atoms: C_27  and  O_29
REMARK    8  A    between atoms: O_29  and  C_30
REMARK    9  A    between atoms: C_30  and  C_31
REMARK   10  A    between atoms: C_30  and  C_32
REMARK   11  A    between atoms: C_30  and  C_33
REMARK                            x       y       z     vdW  Elec       q    Type
REMARK                         _______ _______ _______ _____ _____    ______ ____
ROOT
ATOM      1  C   UNL     1       8.051   6.220 -10.587  0.00  0.00    +0.055 C 
ATOM      2  C   UNL     1       9.014   5.221 -11.230  0.00  0.00    +0.105 C 
ATOM      3  C   UNL     1      10.424   5.423 -10.660  0.00  0.00    +0.052 C 
ATOM      4  C   UNL     1      10.344   5.323  -9.134  0.00  0.00    +0.043 C 
ATOM      5  C   UNL     1       9.558   4.096  -8.746  0.00  0.00    -0.005 A 
ATOM      6  C   UNL     1       9.677   3.619  -7.454  0.00  0.00    +0.019 A 
ATOM      7  C   UNL     1       8.960   2.490  -7.060  0.00  0.00    +0.021 A 
ATOM      8  C   UNL     1       8.117   1.841  -7.977  0.00  0.00    +0.141 A 
ATOM      9  C   UNL     1       8.008   2.325  -9.266  0.00  0.00    +0.092 A 
ATOM     10  C   UNL     1       8.729   3.451  -9.653  0.00  0.00    +0.128 A 
ATOM     11  O   UNL     1       8.595   3.889 -10.933  0.00  0.00    -0.486 OA
ATOM     12  O   UNL     1       7.422   0.743  -7.582  0.00  0.00    -0.438 OA
ATOM     13  C   UNL     1       7.123   0.657  -6.255  0.00  0.00    +0.215 A 
ATOM     14  N   UNL     1       5.954   0.229  -5.854  0.00  0.00    -0.274 N 
ATOM     15  C   UNL     1       8.155   1.067  -5.286  0.00  0.00    +0.018 A 
ATOM     16  C   UNL     1       9.071   1.966  -5.686  0.00  0.00    -0.029 A 
ATOM     17  C   UNL     1      10.187   2.448  -4.804  0.00  0.00    +0.036 C 
ATOM     18  C   UNL     1       9.883   2.139  -3.338  0.00  0.00    +0.005 C 
ATOM     19  C   UNL     1       9.494   0.660  -3.225  0.00  0.00    +0.005 C 
ATOM     20  C   UNL     1       8.142   0.462  -3.909  0.00  0.00    +0.041 C 
ATOM     21  C   UNL     1       9.037   5.429 -12.745  0.00  0.00    +0.055 C 
ATOM     22  H   UNL     1       5.303  -0.323  -6.548  0.00  0.00    +0.188 HD
ENDROOT
BRANCH  14  23
ATOM     23  N   UNL     1       5.532   0.472  -4.540  0.00  0.00    -0.225 N 
ATOM     24  C   UNL     1       4.387  -0.076  -4.088  0.00  0.00    +0.256 C 
ATOM     25  O   UNL     1       3.722  -0.782  -4.819  0.00  0.00    -0.272 OA
ATOM     26  H   UNL     1       6.135   1.111  -3.878  0.00  0.00    +0.175 HD
BRANCH  24  27
ATOM     27  C   UNL     1       3.933   0.185  -2.675  0.00  0.00    +0.194 C 
BRANCH  27  28
ATOM     28  C   UNL     1       4.979  -0.310  -1.711  0.00  0.00    -0.018 A 
ATOM     29  C   UNL     1       5.049  -1.654  -1.397  0.00  0.00    +0.006 A 
ATOM     30  C   UNL     1       6.012  -2.109  -0.515  0.00  0.00    +0.000 A 
ATOM     31  C   UNL     1       6.900  -1.218   0.059  0.00  0.00    +0.000 A 
ATOM     32  C   UNL     1       6.827   0.127  -0.252  0.00  0.00    +0.000 A 
ATOM     33  C   UNL     1       5.866   0.581  -1.136  0.00  0.00    +0.006 A 
ENDBRANCH  27  28
BRANCH  27  34
ATOM     34  N   UNL     1       2.671  -0.517  -2.430  0.00  0.00    -0.266 N 
ATOM     35  C   UNL     1       1.824  -0.070  -1.482  0.00  0.00    +0.402 C 
ATOM     36  O   UNL     1       2.106   0.916  -0.831  0.00  0.00    -0.226 OA
ATOM     37  H   UNL     1       2.415  -1.410  -3.019  0.00  0.00    +0.153 HD
BRANCH  35  38
ATOM     38  O   UNL     1       0.664  -0.716  -1.256  0.00  0.00    -0.445 OA
BRANCH  38  39
ATOM     39  C   UNL     1      -0.199  -0.179  -0.220  0.00  0.00    +0.107 C 
ATOM     40  C   UNL     1      -0.591   1.257  -0.577  0.00  0.00    +0.055 C 
ATOM     41  C   UNL     1       0.543  -0.187   1.118  0.00  0.00    +0.055 C 
ATOM     42  C   UNL     1      -1.460  -1.039  -0.109  0.00  0.00    +0.055 C 
ENDBRANCH  38  39
ENDBRANCH  35  38
ENDBRANCH  27  34
ENDBRANCH  24  27
ENDBRANCH  14  23
TORSDOF 6
