REMARK  Name = ZINC67433281
REMARK  11 active torsions:
REMARK  status: ('A' for Active; 'I' for Inactive)
REMARK    1  A    between atoms: C_1  and  C_2
REMARK    2  A    between atoms: C_2  and  C_3
REMARK    3  A    between atoms: C_2  and  C_4
REMARK    4  A    between atoms: C_2  and  C_5
REMARK    5  A    between atoms: C_5  and  N_6
REMARK    6  A    between atoms: C_10  and  C_13
REMARK    7  A    between atoms: C_10  and  O_25
REMARK    8  A    between atoms: C_13  and  N_14
REMARK    9  A    between atoms: N_14  and  C_15
REMARK   10  A    between atoms: C_15  and  C_16
REMARK   11  A    between atoms: C_16  and  C_17
REMARK                            x       y       z     vdW  Elec       q    Type
REMARK                         _______ _______ _______ _____ _____    ______ ____
ROOT
ATOM      1  N   UNL     1       2.060  -0.029  -0.745  0.00  0.00    -0.299 N 
ATOM      2  C   UNL     1       2.234   1.338  -1.218  0.00  0.00    +0.108 C 
ATOM      3  C   UNL     1       3.598   1.882  -0.792  0.00  0.00    +0.022 C 
ATOM      4  C   UNL     1       4.678   0.871  -1.196  0.00  0.00    +0.044 C 
ATOM      5  C   UNL     1       4.501  -0.391  -0.348  0.00  0.00    +0.127 C 
ATOM      6  C   UNL     1       3.063  -0.823  -0.368  0.00  0.00    +0.245 C 
ATOM      7  O   UNL     1       2.800  -1.957  -0.026  0.00  0.00    -0.273 OA
ENDROOT
BRANCH   5   8
ATOM      8  O   UNL     1       4.891  -0.116   0.999  0.00  0.00    -0.381 OA
ATOM      9  H   UNL     1       4.378   0.587   1.421  0.00  0.00    +0.211 HD
ENDBRANCH   5   8
BRANCH   1  10
ATOM     10  C   UNL     1       0.698  -0.564  -0.675  0.00  0.00    +0.114 C 
BRANCH  10  12
ATOM     11  C   UNL     1       0.068   1.253   0.921  0.00  0.00    +0.012 C 
ATOM     12  C   UNL     1       0.102  -0.261   0.701  0.00  0.00    -0.022 C 
ATOM     13  C   UNL     1       0.962  -0.914   1.785  0.00  0.00    +0.012 C 
ATOM     14  C   UNL     1      -1.321  -0.819   0.775  0.00  0.00    +0.012 C 
ENDBRANCH  10  12
ENDBRANCH   1  10
BRANCH   5  15
ATOM     15  C   UNL     1       5.379  -1.510  -0.912  0.00  0.00    -0.038 C 
BRANCH  15  16
ATOM     16  N   UNL     1       6.782  -1.074  -0.918  0.00  0.00    +0.382 N 
ATOM     17  H   UNL     1       6.892  -0.303  -1.560  0.00  0.00    -0.086 HD
ATOM     18  H   UNL     1       7.047  -0.780   0.009  0.00  0.00    -0.086 HD
BRANCH  16  19
ATOM     19  C   UNL     1       7.639  -2.190  -1.343  0.00  0.00    -0.075 C 
BRANCH  19  20
ATOM     20  C   UNL     1       9.100  -1.736  -1.349  0.00  0.00    +0.057 C 
BRANCH  20  21
ATOM     21  C   UNL     1       9.979  -2.881  -1.784  0.00  0.00    +0.129 A 
ATOM     22  N   UNL     1      11.347  -2.838  -1.901  0.00  0.00    -0.294 N 
ATOM     23  H   UNL     1      11.909  -2.069  -1.718  0.00  0.00    +0.172 HD
ATOM     24  C   UNL     1      11.775  -4.048  -2.312  0.00  0.00    +0.342 A 
ATOM     25  O   UNL     1      12.931  -4.372  -2.521  0.00  0.00    -0.245 OA
ATOM     26  N   UNL     1      10.688  -4.836  -2.451  0.00  0.00    -0.227 N 
ATOM     27  H   UNL     1      10.682  -5.763  -2.734  0.00  0.00    +0.194 HD
ATOM     28  N   UNL     1       9.569  -4.066  -2.103  0.00  0.00    -0.157 NA
ENDBRANCH  20  21
ENDBRANCH  19  20
ENDBRANCH  16  19
ENDBRANCH  15  16
ENDBRANCH   5  15
TORSDOF 8
