REMARK  Name = ZINC20806860
REMARK  14 active torsions:
REMARK  status: ('A' for Active; 'I' for Inactive)
REMARK    1  A    between atoms: C_1  and  C_2
REMARK    2  A    between atoms: C_2  and  C_3
REMARK    3  A    between atoms: C_3  and  C_4
REMARK    4  A    between atoms: C_4  and  C_5
REMARK    5  A    between atoms: C_5  and  C_6
REMARK    6  A    between atoms: C_6  and  C_8
REMARK    7  A    between atoms: C_6  and  C_9
REMARK    8  A    between atoms: C_9  and  C_11
REMARK    9  A    between atoms: C_9  and  C_12
REMARK   10  A    between atoms: C_14  and  O_32
REMARK   11  A    between atoms: C_19  and  C_30
REMARK   12  A    between atoms: C_19  and  C_31
REMARK   13  A    between atoms: N_23  and  C_26
REMARK   14  A    between atoms: C_26  and  C_27
REMARK                            x       y       z     vdW  Elec       q    Type
REMARK                         _______ _______ _______ _____ _____    ______ ____
ROOT
ATOM      1  C   UNL     1      -1.220   1.753   0.017  0.00  0.00    -0.037 A 
ATOM      2  C   UNL     1      -1.252   3.135   0.031  0.00  0.00    +0.050 A 
ATOM      3  C   UNL     1      -0.070   3.862   0.025  0.00  0.00    +0.128 A 
ATOM      4  C   UNL     1       1.150   3.185   0.012  0.00  0.00    +0.060 A 
ATOM      5  C   UNL     1       1.174   1.785   0.000  0.00  0.00    +0.133 A 
ATOM      6  C   UNL     1      -0.013   1.076   0.008  0.00  0.00    +0.050 A 
ATOM      7  O   UNL     1       2.377   1.155  -0.023  0.00  0.00    -0.481 OA
ATOM      8  C   UNL     1       3.427   1.803  -0.742  0.00  0.00    +0.126 C 
ATOM      9  C   UNL     1       3.532   3.254  -0.333  0.00  0.00    -0.027 C 
ATOM     10  C   UNL     1       2.438   3.917   0.012  0.00  0.00    -0.047 C 
ATOM     11  C   UNL     1       2.451   5.370   0.395  0.00  0.00    -0.041 C 
ATOM     12  N   UNL     1       3.810   5.804   0.735  0.00  0.00    +0.388 N 
ATOM     13  C   UNL     1       4.742   5.429  -0.342  0.00  0.00    -0.073 C 
ATOM     14  C   UNL     1       4.890   3.908  -0.343  0.00  0.00    +0.016 C 
ATOM     15  C   UNL     1       3.137   1.720  -2.242  0.00  0.00    +0.060 C 
ATOM     16  C   UNL     1       4.751   1.097  -0.444  0.00  0.00    +0.060 C 
ATOM     17  H   UNL     1       4.117   5.296   1.661  0.00  0.00    -0.081 HD
ENDROOT
BRANCH   1  18
ATOM     18  C   UNL     1      -2.511   0.976   0.019  0.00  0.00    +0.019 C 
ATOM     19  C   UNL     1      -3.325   1.339  -1.225  0.00  0.00    +0.013 C 
BRANCH  18  20
ATOM     20  C   UNL     1      -3.314   1.324   1.274  0.00  0.00    -0.007 C 
ATOM     21  C   UNL     1      -2.500   0.962   2.517  0.00  0.00    +0.008 C 
BRANCH  20  22
ATOM     22  C   UNL     1      -4.625   0.536   1.275  0.00  0.00    +0.004 C 
BRANCH  22  23
ATOM     23  C   UNL     1      -5.484   0.975   2.463  0.00  0.00    +0.000 C 
BRANCH  23  24
ATOM     24  C   UNL     1      -6.795   0.187   2.464  0.00  0.00    -0.000 C 
BRANCH  24  26
ATOM     25  C   UNL     1      -8.964  -0.162   3.653  0.00  0.00    +0.004 C 
ATOM     26  C   UNL     1      -7.653   0.626   3.652  0.00  0.00    -0.003 C 
ENDBRANCH  24  26
ENDBRANCH  23  24
ENDBRANCH  22  23
ENDBRANCH  20  22
ENDBRANCH  18  20
ENDBRANCH   1  18
BRANCH   3  27
ATOM     27  O   UNL     1      -0.100   5.220   0.034  0.00  0.00    -0.506 OA
ATOM     28  H   UNL     1       0.840   5.791   0.029  0.00  0.00    +0.292 HD
ENDBRANCH   3  27
BRANCH  12  29
ATOM     29  C   UNL     1       3.853   7.250   0.989  0.00  0.00    +0.019 C 
BRANCH  29  30
ATOM     30  C   UNL     1       5.194   7.619   1.569  0.00  0.00    +0.194 C 
ATOM     31  O   UNL     1       6.032   6.761   1.753  0.00  0.00    -0.278 OA
ATOM     32  N   UNL     1       5.463   8.901   1.884  0.00  0.00    -0.331 N 
ATOM     33  H   UNL     1       6.441   9.171   2.308  0.00  0.00    +0.145 HD
ATOM     34  H   UNL     1       4.703   9.679   1.717  0.00  0.00    +0.145 HD
ENDBRANCH  29  30
ENDBRANCH  12  29
TORSDOF 9
