REMARK  Name = ZINC43409407
REMARK  3 active torsions:
REMARK  status: ('A' for Active; 'I' for Inactive)
REMARK    1  A    between atoms: C_3  and  N_8
REMARK    2  A    between atoms: C_6  and  N_7
REMARK    3  A    between atoms: C_10  and  C_19
REMARK                            x       y       z     vdW  Elec       q    Type
REMARK                         _______ _______ _______ _____ _____    ______ ____
ROOT
ATOM      1  N   UNL     1       3.700   2.138  -0.591  0.00  0.00    -0.299 N 
ATOM      2  C   UNL     1       4.848   1.462  -0.218  0.00  0.00    +0.135 A 
ATOM      3  C   UNL     1       5.991   2.182   0.171  0.00  0.00    +0.077 A 
ATOM      4  C   UNL     1       7.134   1.467   0.538  0.00  0.00    +0.022 A 
ATOM      5  C   UNL     1       7.096   0.079   0.507  0.00  0.00    -0.025 A 
ATOM      6  C   UNL     1       5.938  -0.560   0.121  0.00  0.00    +0.047 A 
ATOM      7  N   UNL     1       4.865   0.141  -0.222  0.00  0.00    -0.236 NA
ATOM      8  C   UNL     1       5.822  -2.063   0.084  0.00  0.00    +0.056 C 
ATOM      9  C   UNL     1       7.206  -2.709   0.076  0.00  0.00    +0.006 C 
ATOM     10  C   UNL     1       8.022  -2.120   1.233  0.00  0.00    +0.005 C 
ATOM     11  C   UNL     1       8.345  -0.664   0.900  0.00  0.00    +0.037 C 
ATOM     12  H   UNL     1       3.709   3.105  -0.662  0.00  0.00    +0.154 HD
ENDROOT
BRANCH   1  15
ATOM     13  C   UNL     1       0.135   1.257  -0.787  0.00  0.00    +0.024 A 
ATOM     14  C   UNL     1       1.292   1.959  -0.515  0.00  0.00    +0.025 A 
ATOM     15  C   UNL     1       2.526   1.426  -0.867  0.00  0.00    +0.032 A 
ATOM     16  C   UNL     1       2.595   0.188  -1.492  0.00  0.00    +0.025 A 
ATOM     17  C   UNL     1       1.438  -0.514  -1.764  0.00  0.00    +0.024 A 
ATOM     18  C   UNL     1       0.204   0.019  -1.412  0.00  0.00    +0.025 A 
BRANCH  18  19
ATOM     19  N   UNL     1      -0.969  -0.693  -1.688  0.00  0.00    -0.358 N 
ATOM     20  H   UNL     1      -1.831  -0.321  -1.442  0.00  0.00    +0.142 HD
ATOM     21  H   UNL     1      -0.921  -1.558  -2.124  0.00  0.00    +0.142 HD
ENDBRANCH  18  19
ENDBRANCH   1  15
BRANCH   3  22
ATOM     22  C   UNL     1       5.984   3.656   0.191  0.00  0.00    +0.245 C 
ATOM     23  O   UNL     1       4.928   4.258   0.208  0.00  0.00    -0.270 OA
ATOM     24  N   UNL     1       7.148   4.335   0.189  0.00  0.00    -0.325 N 
ATOM     25  H   UNL     1       7.990   3.855   0.174  0.00  0.00    +0.145 HD
ATOM     26  H   UNL     1       7.143   5.305   0.202  0.00  0.00    +0.145 HD
ENDBRANCH   3  22
TORSDOF 3
