REMARK  Name = ZINC02372713
REMARK  10 active torsions:
REMARK  status: ('A' for Active; 'I' for Inactive)
REMARK    1  A    between atoms: C_1  and  O_2
REMARK    2  A    between atoms: O_2  and  C_3
REMARK    3  A    between atoms: C_7  and  C_10
REMARK    4  A    between atoms: C_8  and  O_9
REMARK    5  A    between atoms: N_11  and  N_12
REMARK    6  A    between atoms: C_13  and  C_15
REMARK    7  A    between atoms: C_15  and  S_16
REMARK    8  A    between atoms: S_16  and  C_17
REMARK    9  A    between atoms: C_20  and  C_29
REMARK   10  A    between atoms: N_21  and  C_22
REMARK                            x       y       z     vdW  Elec       q    Type
REMARK                         _______ _______ _______ _____ _____    ______ ____
ROOT
ATOM      1  S   UNL     1      -0.385  -9.179  -0.997  0.00  0.00    -0.076 S 
ENDROOT
BRANCH   1   2
ATOM      2  C   UNL     1      -0.215 -10.919  -0.774  0.00  0.00    +0.197 A 
ATOM      3  N   UNL     1       0.382 -11.522   0.230  0.00  0.00    -0.122 NA
ATOM      4  N   UNL     1       0.323 -12.797   0.078  0.00  0.00    -0.128 NA
ATOM      5  C   UNL     1      -0.315 -13.088  -1.032  0.00  0.00    +0.169 A 
ATOM      6  N   UNL     1      -0.685 -11.893  -1.610  0.00  0.00    -0.270 N 
BRANCH   6   7
ATOM      7  C   UNL     1      -1.394 -11.715  -2.807  0.00  0.00    +0.051 A 
ATOM      8  C   UNL     1      -2.710 -12.145  -2.907  0.00  0.00    +0.028 A 
ATOM      9  C   UNL     1      -3.405 -11.967  -4.087  0.00  0.00    +0.022 A 
ATOM     10  C   UNL     1      -2.791 -11.361  -5.169  0.00  0.00    +0.041 A 
ATOM     11  C   UNL     1      -1.480 -10.931  -5.072  0.00  0.00    +0.022 A 
ATOM     12  C   UNL     1      -0.782 -11.102  -3.892  0.00  0.00    +0.028 A 
ATOM     13 CL   UNL     1      -3.668 -11.140  -6.651  0.00  0.00    -0.084 Cl
ENDBRANCH   6   7
BRANCH   5  14
ATOM     14  C   UNL     1      -0.590 -14.442  -1.558  0.00  0.00    +0.020 A 
ATOM     15  C   UNL     1      -0.988 -14.610  -2.885  0.00  0.00    +0.011 A 
ATOM     16  C   UNL     1      -1.243 -15.876  -3.370  0.00  0.00    +0.001 A 
ATOM     17  C   UNL     1      -1.105 -16.978  -2.544  0.00  0.00    +0.000 A 
ATOM     18  C   UNL     1      -0.710 -16.817  -1.228  0.00  0.00    +0.001 A 
ATOM     19  C   UNL     1      -0.446 -15.557  -0.732  0.00  0.00    +0.011 A 
ENDBRANCH   5  14
ENDBRANCH   1   2
BRANCH   1  20
ATOM     20  C   UNL     1       0.450  -8.468   0.449  0.00  0.00    +0.174 C 
BRANCH  20  22
ATOM     21  N   UNL     1       0.934  -6.219   1.357  0.00  0.00    -0.206 N 
ATOM     22  C   UNL     1       0.377  -6.965   0.382  0.00  0.00    +0.242 C 
ATOM     23  O   UNL     1      -0.182  -6.425  -0.549  0.00  0.00    -0.273 OA
ATOM     24  H   UNL     1       1.381  -6.650   2.102  0.00  0.00    +0.177 HD
BRANCH  21  26
ATOM     25  C   UNL     1       1.403  -4.103   2.234  0.00  0.00    +0.142 C 
ATOM     26  N   UNL     1       0.867  -4.821   1.295  0.00  0.00    -0.188 NA
BRANCH  25  31
ATOM     27  C   UNL     1       0.626  -0.619   1.042  0.00  0.00    +0.162 A 
ATOM     28  C   UNL     1       1.202   0.139   2.051  0.00  0.00    +0.049 A 
ATOM     29  C   UNL     1       1.839  -0.480   3.112  0.00  0.00    +0.004 A 
ATOM     30  C   UNL     1       1.908  -1.856   3.177  0.00  0.00    +0.013 A 
ATOM     31  C   UNL     1       1.332  -2.632   2.168  0.00  0.00    +0.040 A 
ATOM     32  C   UNL     1       0.682  -2.006   1.097  0.00  0.00    +0.167 A 
BRANCH  27  34
ATOM     33  C   UNL     1      -0.017   1.425   0.010  0.00  0.00    +0.277 C 
ATOM     34  O   UNL     1       0.002  -0.004   0.002  0.00  0.00    -0.491 OA
ENDBRANCH  27  34
BRANCH  32  35
ATOM     35  O   UNL     1       0.114  -2.752   0.113  0.00  0.00    -0.503 OA
ATOM     36  H   UNL     1       0.710  -2.955  -0.620  0.00  0.00    +0.292 HD
ENDBRANCH  32  35
ENDBRANCH  25  31
ENDBRANCH  21  26
ENDBRANCH  20  22
ENDBRANCH   1  20
TORSDOF 9
