REMARK  Name = ZINC61813588
REMARK  3 active torsions:
REMARK  status: ('A' for Active; 'I' for Inactive)
REMARK    1  A    between atoms: C_4  and  C_18
REMARK    2  A    between atoms: C_6  and  N_7
REMARK    3  A    between atoms: N_19  and  O_20
REMARK                            x       y       z     vdW  Elec       q    Type
REMARK                         _______ _______ _______ _____ _____    ______ ____
ROOT
ATOM      1  C   UNL     1       0.998  -0.532  -0.119  0.00  0.00    +0.040 A 
ATOM      2  C   UNL     1       2.220   0.109  -0.168  0.00  0.00    +0.085 A 
ATOM      3  N   UNL     1       2.300   1.423  -0.114  0.00  0.00    -0.358 N 
ATOM      4  C   UNL     1       1.218   2.186  -0.010  0.00  0.00    +0.084 A 
ATOM      5  C   UNL     1      -0.049   1.615   0.045  0.00  0.00    +0.052 A 
ATOM      6  C   UNL     1      -0.167   0.228  -0.011  0.00  0.00    +0.033 A 
ATOM      7  H   UNL     1       3.173   1.844  -0.151  0.00  0.00    +0.165 HD
ENDROOT
BRANCH   6   8
ATOM      8  N   UNL     1      -1.416  -0.385   0.042  0.00  0.00    -0.327 N 
ATOM      9  C   UNL     1      -1.529  -1.848   0.118  0.00  0.00    +0.124 C 
ATOM     10  C   UNL     1      -2.372  -2.211   1.346  0.00  0.00    +0.126 C 
ATOM     11  N   UNL     1      -3.602  -1.406   1.326  0.00  0.00    -0.307 N 
ATOM     12  C   UNL     1      -3.489   0.058   1.250  0.00  0.00    +0.126 C 
ATOM     13  C   UNL     1      -2.645   0.421   0.028  0.00  0.00    +0.124 C 
ATOM     14  C   UNL     1      -4.845  -2.016   1.378  0.00  0.00    +0.161 A 
ATOM     15  N   UNL     1      -5.124  -3.300   1.453  0.00  0.00    -0.233 NA
ATOM     16  C   UNL     1      -6.375  -3.724   1.496  0.00  0.00    +0.120 A 
ATOM     17  C   UNL     1      -7.347  -2.782   1.458  0.00  0.00    +0.068 A 
ATOM     18  S   UNL     1      -6.365  -1.294   1.368  0.00  0.00    -0.061 S 
ENDBRANCH   6   8
BRANCH   4  19
ATOM     19  C   UNL     1       1.362   3.660   0.048  0.00  0.00    +0.179 C 
ATOM     20  N   UNL     1       0.416   4.385   0.565  0.00  0.00    -0.070 NA
ATOM     21  N   UNL     1       2.505   4.264  -0.450  0.00  0.00    -0.339 N 
ATOM     22  H   UNL     1       3.211   3.722  -0.836  0.00  0.00    +0.144 HD
ATOM     23  H   UNL     1       2.599   5.228  -0.412  0.00  0.00    +0.144 HD
BRANCH  20  24
ATOM     24  O   UNL     1      -0.681   3.764   1.210  0.00  0.00    -0.408 OA
ATOM     25  H   UNL     1      -1.333   4.385   1.563  0.00  0.00    +0.328 HD
ENDBRANCH  20  24
ENDBRANCH   4  19
TORSDOF 3
