REMARK  Name = ZINC42967378
REMARK  10 active torsions:
REMARK  status: ('A' for Active; 'I' for Inactive)
REMARK    1  A    between atoms: C_1  and  C_2
REMARK    2  A    between atoms: C_3  and  C_9
REMARK    3  A    between atoms: C_6  and  N_8
REMARK    4  A    between atoms: C_9  and  N_10
REMARK    5  A    between atoms: C_11  and  C_13
REMARK    6  A    between atoms: C_13  and  N_14
REMARK    7  A    between atoms: C_23  and  N_27
REMARK    8  A    between atoms: N_27  and  S_28
REMARK    9  A    between atoms: S_28  and  C_31
REMARK   10  A    between atoms: C_31  and  C_32
REMARK                            x       y       z     vdW  Elec       q    Type
REMARK                         _______ _______ _______ _____ _____    ______ ____
ROOT
ATOM      1  N   UNL     1       2.942   2.495  -5.510  0.00  0.00    -0.260 N 
ATOM      2  C   UNL     1       3.152   1.817  -6.720  0.00  0.00    +0.050 A 
ATOM      3  C   UNL     1       2.425   0.678  -7.027  0.00  0.00    +0.024 A 
ATOM      4  C   UNL     1       2.645   0.026  -8.227  0.00  0.00    +0.002 A 
ATOM      5  C   UNL     1       3.585   0.507  -9.121  0.00  0.00    +0.001 A 
ATOM      6  C   UNL     1       4.315   1.643  -8.821  0.00  0.00    +0.016 A 
ATOM      7  C   UNL     1       4.100   2.299  -7.620  0.00  0.00    +0.029 A 
ATOM      8  S   UNL     1       5.021   3.745  -7.207  0.00  0.00    -0.121 S 
ATOM      9  C   UNL     1       3.791   5.083  -7.374  0.00  0.00    +0.104 C 
ATOM     10  C   UNL     1       2.470   4.569  -6.776  0.00  0.00    +0.172 C 
ATOM     11  C   UNL     1       2.722   3.816  -5.505  0.00  0.00    +0.240 C 
ATOM     12  O   UNL     1       2.732   4.416  -4.451  0.00  0.00    -0.273 OA
ENDROOT
BRANCH  10  13
ATOM     13  N   UNL     1       1.817   3.678  -7.738  0.00  0.00    -0.182 NA
ATOM     14  H   UNL     1       2.353   3.103  -8.307  0.00  0.00    +0.149 HD
BRANCH  13  15
ATOM     15  S   UNL     1       0.166   3.651  -7.853  0.00  0.00    +0.034 S 
ATOM     16  O   UNL     1      -0.113   2.675  -8.847  0.00  0.00    -0.158 OA
ATOM     17  O   UNL     1      -0.288   3.475  -6.518  0.00  0.00    -0.158 OA
BRANCH  15  18
ATOM     18  C   UNL     1      -0.287   5.301  -8.454  0.00  0.00    +0.220 C 
BRANCH  18  19
ATOM     19  C   UNL     1      -1.784   5.391  -8.597  0.00  0.00    -0.025 A 
ATOM     20  C   UNL     1      -2.386   5.039  -9.791  0.00  0.00    +0.005 A 
ATOM     21  C   UNL     1      -3.760   5.121  -9.922  0.00  0.00    +0.000 A 
ATOM     22  C   UNL     1      -4.532   5.555  -8.861  0.00  0.00    +0.000 A 
ATOM     23  C   UNL     1      -3.929   5.906  -7.667  0.00  0.00    +0.000 A 
ATOM     24  C   UNL     1      -2.556   5.820  -7.534  0.00  0.00    +0.005 A 
ENDBRANCH  18  19
ENDBRANCH  15  18
ENDBRANCH  13  15
ENDBRANCH  10  13
BRANCH   1  25
ATOM     25  C   UNL     1       2.959   1.754  -4.246  0.00  0.00    +0.209 C 
BRANCH  25  27
ATOM     26  N   UNL     1       1.341   0.557  -2.809  0.00  0.00    -0.310 N 
ATOM     27  C   UNL     1       1.568   1.267  -3.931  0.00  0.00    +0.231 C 
ATOM     28  O   UNL     1       0.653   1.516  -4.687  0.00  0.00    -0.274 OA
ATOM     29  H   UNL     1       2.073   0.358  -2.204  0.00  0.00    +0.149 HD
BRANCH  26  30
ATOM     30  C   UNL     1      -0.011   0.084  -2.502  0.00  0.00    +0.141 C 
BRANCH  30  33
ATOM     31  C   UNL     1      -0.018   1.503   0.010  0.00  0.00    +0.063 C 
ATOM     32  C   UNL     1       0.002  -0.004   0.002  0.00  0.00    +0.019 A 
ATOM     33  C   UNL     1       0.005  -0.679  -1.202  0.00  0.00    -0.011 A 
ATOM     34  C   UNL     1       0.024  -2.067  -1.204  0.00  0.00    +0.010 A 
ATOM     35  C   UNL     1       0.039  -2.729   0.011  0.00  0.00    +0.041 A 
ATOM     36  C   UNL     1       0.035  -1.985   1.186  0.00  0.00    +0.094 A 
ATOM     37  N   UNL     1       0.022  -0.661   1.146  0.00  0.00    -0.347 N 
ATOM     38  H   UNL     1       0.023  -0.163   1.978  0.00  0.00    +0.167 HD
BRANCH  36  39
ATOM     39  N   UNL     1       0.049  -2.637   2.414  0.00  0.00    -0.345 N 
ATOM     40  H   UNL     1       0.062  -3.606   2.448  0.00  0.00    +0.144 HD
ATOM     41  H   UNL     1       0.046  -2.122   3.236  0.00  0.00    +0.144 HD
ENDBRANCH  36  39
ENDBRANCH  30  33
ENDBRANCH  26  30
ENDBRANCH  25  27
ENDBRANCH   1  25
TORSDOF 9
