REMARK  Name = ZINC22785133
REMARK  11 active torsions:
REMARK  status: ('A' for Active; 'I' for Inactive)
REMARK    1  A    between atoms: C_1  and  C_2
REMARK    2  A    between atoms: C_2  and  N_3
REMARK    3  A    between atoms: N_6  and  C_9
REMARK    4  A    between atoms: C_9  and  C_11
REMARK    5  A    between atoms: C_9  and  C_16
REMARK    6  A    between atoms: C_16  and  C_18
REMARK    7  A    between atoms: C_16  and  N_19
REMARK    8  A    between atoms: N_19  and  C_20
REMARK    9  A    between atoms: C_20  and  N_22
REMARK   10  A    between atoms: N_22  and  C_23
REMARK   11  A    between atoms: C_28  and  C_29
REMARK                            x       y       z     vdW  Elec       q    Type
REMARK                         _______ _______ _______ _____ _____    ______ ____
ROOT
ATOM      1  C   UNL     1       0.037   1.558   1.087  0.00  0.00    +0.091 C 
ATOM      2  C   UNL     1      -1.170   0.624   1.200  0.00  0.00    +0.030 C 
ENDROOT
BRANCH   1   3
ATOM      3  N   UNL     1      -0.320   2.882   1.605  0.00  0.00    -0.322 N 
ATOM      4  H   UNL     1      -0.662   3.668   0.915  0.00  0.00    +0.148 HD
BRANCH   3   5
ATOM      5  C   UNL     1      -0.230   3.136   2.925  0.00  0.00    +0.135 C 
ATOM      6  S   UNL     1       0.301   1.912   3.998  0.00  0.00    -0.019 S 
BRANCH   5   7
ATOM      7  N   UNL     1      -0.559   4.353   3.401  0.00  0.00    -0.297 N 
ATOM      8  H   UNL     1      -0.979   5.113   2.726  0.00  0.00    +0.154 HD
BRANCH   7   9
ATOM      9  C   UNL     1      -0.364   4.651   4.754  0.00  0.00    +0.037 A 
ATOM     10  C   UNL     1      -0.796   3.762   5.731  0.00  0.00    +0.023 A 
ATOM     11  C   UNL     1      -0.602   4.058   7.066  0.00  0.00    +0.003 A 
ATOM     12  C   UNL     1       0.020   5.238   7.432  0.00  0.00    +0.020 A 
ATOM     13  C   UNL     1       0.451   6.125   6.462  0.00  0.00    +0.046 A 
ATOM     14  C   UNL     1       0.265   5.832   5.123  0.00  0.00    -0.011 A 
ATOM     15  C   UNL     1       0.739   6.796   4.067  0.00  0.00    +0.047 C 
ATOM     16 CL   UNL     1       1.231   7.605   6.925  0.00  0.00    -0.083 Cl
ENDBRANCH   7   9
ENDBRANCH   5   7
ENDBRANCH   3   5
ENDBRANCH   1   3
BRANCH   1  17
ATOM     17  C   UNL     1       0.452   1.679  -0.380  0.00  0.00    +0.113 C 
BRANCH  17  21
ATOM     18  N   UNL     1       2.569  -1.608  -1.978  0.00  0.00    +0.381 N 
ATOM     19  C   UNL     1       1.548  -0.971  -2.821  0.00  0.00    -0.063 C 
ATOM     20  C   UNL     1       1.262   0.437  -2.295  0.00  0.00    +0.066 C 
ATOM     21  N   UNL     1       0.810   0.353  -0.899  0.00  0.00    -0.297 NA
ATOM     22  C   UNL     1       1.831  -0.285  -0.056  0.00  0.00    +0.066 C 
ATOM     23  C   UNL     1       2.117  -1.693  -0.582  0.00  0.00    -0.063 C 
ATOM     24  H   UNL     1       3.473  -0.981  -2.006  0.00  0.00    -0.082 HD
BRANCH  18  26
ATOM     25  C   UNL     1       4.156  -3.460  -1.751  0.00  0.00    -0.017 C 
ATOM     26  C   UNL     1       2.927  -2.935  -2.497  0.00  0.00    -0.082 C 
ENDBRANCH  18  26
ENDBRANCH  17  21
BRANCH  17  27
ATOM     27  C   UNL     1       1.641   2.599  -0.491  0.00  0.00    +0.009 A 
ATOM     28  C   UNL     1       1.707   3.850  -1.011  0.00  0.00    +0.013 A 
ATOM     29  C   UNL     1       2.919   4.514  -1.006  0.00  0.00    +0.008 A 
ATOM     30  C   UNL     1       4.005   3.897  -0.482  0.00  0.00    +0.045 A 
ATOM     31  S   UNL     1       3.325   2.329   0.035  0.00  0.00    -0.100 S 
ENDBRANCH  17  27
ENDBRANCH   1  17
TORSDOF 8
