REMARK  Name = ZINC61697503
REMARK  10 active torsions:
REMARK  status: ('A' for Active; 'I' for Inactive)
REMARK    1  A    between atoms: C_1  and  C_2
REMARK    2  A    between atoms: C_2  and  N_3
REMARK    3  A    between atoms: N_3  and  C_4
REMARK    4  A    between atoms: C_4  and  C_6
REMARK    5  A    between atoms: C_4  and  C_7
REMARK    6  A    between atoms: C_10  and  N_14
REMARK    7  A    between atoms: N_14  and  C_15
REMARK    8  A    between atoms: N_14  and  C_18
REMARK    9  A    between atoms: C_15  and  C_16
REMARK   10  A    between atoms: C_16  and  O_17
REMARK                            x       y       z     vdW  Elec       q    Type
REMARK                         _______ _______ _______ _____ _____    ______ ____
ROOT
ATOM      1  C   UNL     1      -2.766  -2.502  -0.109  0.00  0.00    -0.060 A 
ATOM      2  C   UNL     1      -3.789  -1.881   0.584  0.00  0.00    +0.004 A 
ATOM      3  C   UNL     1      -5.082  -2.355   0.482  0.00  0.00    +0.024 A 
ATOM      4  C   UNL     1      -5.355  -3.458  -0.317  0.00  0.00    +0.044 A 
ATOM      5  C   UNL     1      -4.325  -4.080  -1.012  0.00  0.00    +0.039 A 
ATOM      6  C   UNL     1      -3.034  -3.597  -0.909  0.00  0.00    +0.019 A 
ATOM      7 BR   UNL     1      -4.690  -5.582  -2.101  0.00  0.00    -0.048 Br
ENDROOT
BRANCH   1   8
ATOM      8  C   UNL     1      -1.356  -1.981   0.004  0.00  0.00    -0.044 C 
ATOM      9  C   UNL     1      -0.727  -2.490   1.303  0.00  0.00    -0.009 C 
BRANCH   8  10
ATOM     10  N   UNL     1      -1.376  -0.512   0.012  0.00  0.00    +0.383 N 
ATOM     11  H   UNL     1      -1.848  -0.187   0.843  0.00  0.00    -0.085 HD
ATOM     12  H   UNL     1      -1.864  -0.178  -0.805  0.00  0.00    -0.085 HD
BRANCH  10  14
ATOM     13  C   UNL     1      -0.019   1.526   0.010  0.00  0.00    -0.017 C 
ATOM     14  C   UNL     1       0.002  -0.004   0.002  0.00  0.00    -0.085 C 
ENDBRANCH  10  14
ENDBRANCH   8  10
ENDBRANCH   1   8
BRANCH   4  15
ATOM     15  N   UNL     1      -6.662  -3.940  -0.421  0.00  0.00    -0.324 N 
BRANCH  15  16
ATOM     16  C   UNL     1      -7.143  -4.960   0.513  0.00  0.00    +0.074 C 
ATOM     17  C   UNL     1      -6.244  -5.311   1.700  0.00  0.00    +0.024 C 
ATOM     18  C   UNL     1      -6.401  -6.298   0.542  0.00  0.00    +0.024 C 
ENDBRANCH  15  16
BRANCH  15  19
ATOM     19  C   UNL     1      -7.551  -3.425  -1.465  0.00  0.00    +0.133 C 
BRANCH  19  20
ATOM     20  C   UNL     1      -7.407  -4.281  -2.725  0.00  0.00    +0.174 C 
BRANCH  20  21
ATOM     21  O   UNL     1      -7.868  -5.607  -2.456  0.00  0.00    -0.393 OA
ATOM     22  H   UNL     1      -7.806  -6.206  -3.213  0.00  0.00    +0.209 HD
ENDBRANCH  20  21
ENDBRANCH  19  20
ENDBRANCH  15  19
ENDBRANCH   4  15
TORSDOF 8
