REMARK  Name = ZINC67654708
REMARK  6 active torsions:
REMARK  status: ('A' for Active; 'I' for Inactive)
REMARK    1  A    between atoms: C_1  and  N_2
REMARK    2  A    between atoms: C_3  and  C_5
REMARK    3  A    between atoms: C_8  and  N_26
REMARK    4  A    between atoms: C_12  and  C_14
REMARK    5  A    between atoms: C_14  and  S_15
REMARK    6  A    between atoms: S_15  and  C_16
REMARK                            x       y       z     vdW  Elec       q    Type
REMARK                         _______ _______ _______ _____ _____    ______ ____
ROOT
ATOM      1  C   UNL     1       0.606  -2.171  -1.026  0.00  0.00    +0.160 C 
ATOM      2  C   UNL     1       1.738  -2.686  -0.113  0.00  0.00    +0.017 C 
ATOM      3  C   UNL     1       2.892  -2.962  -1.113  0.00  0.00    -0.055 C 
ATOM      4  C   UNL     1       2.115  -3.470  -2.352  0.00  0.00    +0.092 C 
ATOM      5  N   UNL     1       0.880  -2.660  -2.385  0.00  0.00    -0.291 N 
ATOM      6  C   UNL     1       0.130  -2.410  -3.477  0.00  0.00    +0.226 C 
ATOM      7  O   UNL     1      -0.868  -1.728  -3.383  0.00  0.00    -0.275 OA
ENDROOT
BRANCH   1  10
ATOM      8  C   UNL     1      -0.018   1.461   0.010  0.00  0.00    +0.128 C 
ATOM      9  N   UNL     1       0.002  -0.004   0.002  0.00  0.00    -0.317 N 
ATOM     10  C   UNL     1       0.585  -0.664  -1.018  0.00  0.00    +0.233 C 
ATOM     11  O   UNL     1       1.093  -0.046  -1.929  0.00  0.00    -0.274 OA
ATOM     12  H   UNL     1      -0.404  -0.499   0.731  0.00  0.00    +0.148 HD
ENDBRANCH   1  10
BRANCH   3  13
ATOM     13  N   UNL     1       3.799  -3.997  -0.598  0.00  0.00    +0.381 N 
ATOM     14  H   UNL     1       3.285  -4.853  -0.453  0.00  0.00    -0.090 HD
ATOM     15  H   UNL     1       4.539  -4.157  -1.264  0.00  0.00    -0.090 HD
ATOM     16  H   UNL     1       4.196  -3.690   0.278  0.00  0.00    -0.090 HD
ENDBRANCH   3  13
BRANCH   6  17
ATOM     17  C   UNL     1       0.531  -2.978  -4.814  0.00  0.00    +0.165 C 
BRANCH  17  18
ATOM     18  S   UNL     1      -0.670  -2.467  -6.073  0.00  0.00    -0.145 S 
BRANCH  18  19
ATOM     19  C   UNL     1      -0.051  -3.222  -7.602  0.00  0.00    +0.018 C 
ATOM     20  C   UNL     1      -0.001  -4.742  -7.436  0.00  0.00    +0.021 C 
ATOM     21  C   UNL     1       0.521  -5.379  -8.725  0.00  0.00    -0.009 C 
ATOM     22  C   UNL     1      -0.412  -5.023  -9.884  0.00  0.00    +0.007 C 
ATOM     23  C   UNL     1      -0.462  -3.503 -10.050  0.00  0.00    -0.009 C 
ATOM     24  C   UNL     1      -0.984  -2.866  -8.761  0.00  0.00    +0.021 C 
ATOM     25  C   UNL     1       0.943  -2.976 -10.347  0.00  0.00    +0.007 C 
ATOM     26  C   UNL     1       1.877  -3.332  -9.188  0.00  0.00    -0.009 C 
ATOM     27  C   UNL     1       1.926  -4.852  -9.022  0.00  0.00    +0.007 C 
ATOM     28  C   UNL     1       1.355  -2.695  -7.898  0.00  0.00    +0.021 C 
ENDBRANCH  18  19
ENDBRANCH  17  18
ENDBRANCH   6  17
TORSDOF 5
