REMARK  Name = ZINC36990279
REMARK  7 active torsions:
REMARK  status: ('A' for Active; 'I' for Inactive)
REMARK    1  A    between atoms: C_1  and  C_2
REMARK    2  A    between atoms: C_2  and  C_4
REMARK    3  A    between atoms: C_2  and  N_11
REMARK    4  A    between atoms: N_11  and  C_12
REMARK    5  A    between atoms: N_15  and  C_18
REMARK    6  A    between atoms: C_18  and  C_19
REMARK    7  A    between atoms: N_21  and  C_22
REMARK                            x       y       z     vdW  Elec       q    Type
REMARK                         _______ _______ _______ _____ _____    ______ ____
ROOT
ATOM      1  N   UNL     1       0.655  -0.596   1.177  0.00  0.00    +0.385 N 
ATOM      2  H   UNL     1       0.828  -1.587   1.101  0.00  0.00    -0.085 HD
ATOM      3  H   UNL     1       1.535  -0.106   1.250  0.00  0.00    -0.085 HD
ENDROOT
BRANCH   1   4
ATOM      4  C   UNL     1      -0.154  -0.330   2.373  0.00  0.00    -0.069 C 
ATOM      5  C   UNL     1      -0.284   1.182   2.578  0.00  0.00    -0.000 C 
ATOM      6  C   UNL     1      -1.076   1.452   3.859  0.00  0.00    +0.083 C 
ATOM      7  N   UNL     1      -0.384   0.843   5.002  0.00  0.00    -0.294 NA
ATOM      8  C   UNL     1      -0.290  -0.615   4.850  0.00  0.00    +0.083 C 
ATOM      9  C   UNL     1       0.526  -0.947   3.599  0.00  0.00    -0.000 C 
BRANCH   7  10
ATOM     10  C   UNL     1      -1.042   1.199   6.266  0.00  0.00    +0.180 C 
BRANCH  10  11
ATOM     11  C   UNL     1      -0.176   0.768   7.422  0.00  0.00    +0.227 C 
ATOM     12  O   UNL     1       0.884   0.218   7.213  0.00  0.00    -0.274 OA
ATOM     13  N   UNL     1      -0.581   0.993   8.688  0.00  0.00    -0.317 N 
ATOM     14  C   UNL     1       0.261   0.574   9.811  0.00  0.00    +0.128 C 
ATOM     15  H   UNL     1      -1.429   1.433   8.855  0.00  0.00    +0.148 HD
ENDBRANCH  10  11
ENDBRANCH   7  10
ENDBRANCH   1   4
BRANCH   1  17
ATOM     16  C   UNL     1       0.833  -0.280  -1.245  0.00  0.00    -0.009 C 
ATOM     17  C   UNL     1      -0.066  -0.132  -0.015  0.00  0.00    -0.044 C 
BRANCH  17  18
ATOM     18  C   UNL     1      -1.312  -0.957  -0.202  0.00  0.00    -0.062 A 
ATOM     19  C   UNL     1      -1.281  -2.319   0.035  0.00  0.00    +0.003 A 
ATOM     20  C   UNL     1      -2.425  -3.077  -0.136  0.00  0.00    +0.015 A 
ATOM     21  C   UNL     1      -3.600  -2.472  -0.543  0.00  0.00    +0.018 A 
ATOM     22  C   UNL     1      -3.631  -1.109  -0.780  0.00  0.00    +0.015 A 
ATOM     23  C   UNL     1      -2.489  -0.352  -0.604  0.00  0.00    +0.003 A 
ATOM     24 BR   UNL     1      -5.165  -3.508  -0.777  0.00  0.00    -0.050 Br
ENDBRANCH  17  18
ENDBRANCH   1  17
TORSDOF 5
