REMARK  Name = ZINC61594646
REMARK  7 active torsions:
REMARK  status: ('A' for Active; 'I' for Inactive)
REMARK    1  A    between atoms: C_1  and  C_2
REMARK    2  A    between atoms: C_2  and  C_4
REMARK    3  A    between atoms: C_2  and  N_24
REMARK    4  A    between atoms: C_4  and  C_6
REMARK    5  A    between atoms: C_4  and  S_13
REMARK    6  A    between atoms: S_13  and  C_14
REMARK    7  A    between atoms: N_20  and  C_21
REMARK                            x       y       z     vdW  Elec       q    Type
REMARK                         _______ _______ _______ _____ _____    ______ ____
ROOT
ATOM      1  C   UNL     1       0.775  -0.431   1.232  0.00  0.00    +0.069 C 
ENDROOT
BRANCH   1   2
ATOM      2  C   UNL     1       0.919  -1.884   1.605  0.00  0.00    -0.036 A 
ATOM      3  C   UNL     1      -0.202  -2.632   1.915  0.00  0.00    +0.006 A 
ATOM      4  C   UNL     1      -0.070  -3.965   2.256  0.00  0.00    +0.015 A 
ATOM      5  C   UNL     1       1.183  -4.550   2.287  0.00  0.00    +0.018 A 
ATOM      6  C   UNL     1       2.304  -3.801   1.977  0.00  0.00    +0.015 A 
ATOM      7  C   UNL     1       2.171  -2.470   1.631  0.00  0.00    +0.006 A 
ATOM      8 BR   UNL     1       1.364  -6.374   2.754  0.00  0.00    -0.050 Br
ENDBRANCH   1   2
BRANCH   1  10
ATOM      9  C   UNL     1      -1.197  -0.907  -0.227  0.00  0.00    -0.013 C 
ATOM     10  C   UNL     1       0.216  -0.321  -0.188  0.00  0.00    -0.060 C 
BRANCH  10  11
ATOM     11  N   UNL     1       1.081  -1.066  -1.113  0.00  0.00    +0.381 N 
ATOM     12  H   UNL     1       0.764  -0.921  -2.060  0.00  0.00    -0.090 HD
ATOM     13  H   UNL     1       2.031  -0.739  -1.022  0.00  0.00    -0.090 HD
ATOM     14  H   UNL     1       1.041  -2.050  -0.892  0.00  0.00    -0.090 HD
ENDBRANCH  10  11
ENDBRANCH   1  10
BRANCH   1  15
ATOM     15  S   UNL     1      -0.359   0.381   2.393  0.00  0.00    -0.080 S 
BRANCH  15  16
ATOM     16  C   UNL     1      -0.234   2.091   1.985  0.00  0.00    +0.193 A 
ATOM     17  N   UNL     1       0.459   2.588   1.002  0.00  0.00    -0.145 NA
ATOM     18  N   UNL     1       0.296   3.980   1.017  0.00  0.00    -0.226 N 
ATOM     19  H   UNL     1       0.697   4.612   0.399  0.00  0.00    +0.194 HD
ATOM     20  C   UNL     1      -0.519   4.280   2.048  0.00  0.00    +0.345 A 
ATOM     21  O   UNL     1      -0.888   5.395   2.374  0.00  0.00    -0.245 OA
ATOM     22  N   UNL     1      -0.858   3.122   2.649  0.00  0.00    -0.268 N 
BRANCH  22  23
ATOM     23  C   UNL     1      -1.737   2.985   3.813  0.00  0.00    +0.094 C 
ATOM     24  C   UNL     1      -2.491   4.232   4.280  0.00  0.00    +0.027 C 
ATOM     25  C   UNL     1      -1.318   3.695   5.103  0.00  0.00    +0.027 C 
ENDBRANCH  22  23
ENDBRANCH  15  16
ENDBRANCH   1  15
TORSDOF 6
