REMARK  Name = ZINC67585064
REMARK  10 active torsions:
REMARK  status: ('A' for Active; 'I' for Inactive)
REMARK    1  A    between atoms: C_1  and  C_2
REMARK    2  A    between atoms: C_2  and  C_3
REMARK    3  A    between atoms: C_3  and  C_4
REMARK    4  A    between atoms: N_6  and  C_7
REMARK    5  A    between atoms: C_11  and  N_14
REMARK    6  A    between atoms: C_12  and  C_13
REMARK    7  A    between atoms: N_17  and  C_18
REMARK    8  A    between atoms: C_18  and  C_19
REMARK    9  A    between atoms: C_19  and  N_20
REMARK   10  A    between atoms: C_24  and  C_27
REMARK                            x       y       z     vdW  Elec       q    Type
REMARK                         _______ _______ _______ _____ _____    ______ ____
ROOT
ATOM      1  N   UNL     1      -4.874  -6.831  -0.402  0.00  0.00    -0.269 N 
ATOM      2  C   UNL     1      -4.863  -8.179  -0.404  0.00  0.00    +0.304 C 
ATOM      3  O   UNL     1      -3.805  -8.778  -0.402  0.00  0.00    -0.253 OA
ATOM      4  N   UNL     1      -6.024  -8.862  -0.407  0.00  0.00    -0.301 N 
ATOM      5  H   UNL     1      -5.715  -6.353  -0.473  0.00  0.00    +0.156 HD
ATOM      6  H   UNL     1      -6.868  -8.384  -0.408  0.00  0.00    +0.150 HD
ENDROOT
BRANCH   1  11
ATOM      7  C   UNL     1      -2.439  -4.221   0.498  0.00  0.00    +0.038 A 
ATOM      8  C   UNL     1      -1.288  -4.723  -0.097  0.00  0.00    +0.024 A 
ATOM      9  C   UNL     1      -1.331  -5.918  -0.788  0.00  0.00    +0.004 A 
ATOM     10  C   UNL     1      -2.518  -6.619  -0.890  0.00  0.00    +0.024 A 
ATOM     11  C   UNL     1      -3.672  -6.122  -0.297  0.00  0.00    +0.039 A 
ATOM     12  C   UNL     1      -3.631  -4.924   0.402  0.00  0.00    -0.008 A 
ATOM     13  C   UNL     1      -4.879  -4.386   1.052  0.00  0.00    +0.047 C 
BRANCH   7  16
ATOM     14  C   UNL     1      -1.232  -2.582   1.730  0.00  0.00    +0.217 C 
ATOM     15  O   UNL     1      -0.249  -3.291   1.690  0.00  0.00    -0.275 OA
ATOM     16  N   UNL     1      -2.394  -3.010   1.198  0.00  0.00    -0.285 N 
ATOM     17  H   UNL     1      -3.200  -2.479   1.300  0.00  0.00    +0.155 HD
BRANCH  14  18
ATOM     18  C   UNL     1      -1.155  -1.221   2.374  0.00  0.00    +0.096 C 
BRANCH  18  20
ATOM     19  C   UNL     1       0.343   0.398   3.547  0.00  0.00    +0.004 C 
ATOM     20  C   UNL     1       0.264  -0.983   2.893  0.00  0.00    +0.006 C 
ENDBRANCH  18  20
ENDBRANCH  14  18
ENDBRANCH   7  16
ENDBRANCH   1  11
BRANCH   4  21
ATOM     21  C   UNL     1      -6.013 -10.327  -0.409  0.00  0.00    +0.087 C 
BRANCH  21  22
ATOM     22  C   UNL     1      -7.451 -10.849  -0.413  0.00  0.00    -0.060 C 
BRANCH  22  23
ATOM     23  N   UNL     1      -7.439 -12.318  -0.415  0.00  0.00    +0.381 N 
ATOM     24  C   UNL     1      -6.845 -12.803   0.836  0.00  0.00    -0.079 C 
ATOM     25  C   UNL     1      -6.756 -14.330   0.805  0.00  0.00    -0.018 C 
ATOM     26  C   UNL     1      -8.162 -14.915   0.646  0.00  0.00    -0.001 C 
ATOM     27  C   UNL     1      -8.801 -14.344  -0.624  0.00  0.00    -0.031 C 
ATOM     28  C   UNL     1      -8.814 -12.816  -0.540  0.00  0.00    -0.076 C 
ATOM     29  C   UNL     1     -10.235 -14.862  -0.752  0.00  0.00    +0.005 C 
ATOM     30  H   UNL     1      -6.891 -12.648  -1.196  0.00  0.00    -0.082 HD
ENDBRANCH  22  23
ENDBRANCH  21  22
ENDBRANCH   4  21
TORSDOF 7
