REMARK  Name = ZINC39715978
REMARK  4 active torsions:
REMARK  status: ('A' for Active; 'I' for Inactive)
REMARK    1  A    between atoms: C_10  and  C_21
REMARK    2  A    between atoms: C_12  and  C_19
REMARK    3  A    between atoms: C_13  and  N_18
REMARK    4  A    between atoms: C_24  and  C_27
REMARK                            x       y       z     vdW  Elec       q    Type
REMARK                         _______ _______ _______ _____ _____    ______ ____
ROOT
ATOM      1  C   UNL     1      -0.016   1.357   0.009  0.00  0.00    +0.001 A 
ATOM      2  C   UNL     1       1.162   2.096   0.002  0.00  0.00    +0.002 A 
ATOM      3  C   UNL     1       2.386   1.497  -0.010  0.00  0.00    +0.024 A 
ATOM      4  C   UNL     1       2.482   0.095  -0.017  0.00  0.00    +0.044 A 
ATOM      5  N   UNL     1       3.684  -0.494  -0.017  0.00  0.00    -0.284 N 
ATOM      6  C   UNL     1       3.863  -1.799  -0.043  0.00  0.00    +0.229 C 
ATOM      7  O   UNL     1       4.990  -2.260  -0.037  0.00  0.00    -0.275 OA
ATOM      8  C   UNL     1       2.667  -2.725  -0.080  0.00  0.00    +0.154 C 
ATOM      9  C   UNL     1       2.737  -3.607   1.171  0.00  0.00    +0.084 C 
ATOM     10  C   UNL     1       1.446  -4.360   1.334  0.00  0.00    +0.095 C 
ATOM     11  C   UNL     1       0.287  -3.959   0.766  0.00  0.00    +0.198 C 
ATOM     12  O   UNL     1       0.216  -2.853  -0.011  0.00  0.00    -0.444 OA
ATOM     13  C   UNL     1       1.297  -2.069  -0.059  0.00  0.00    +0.129 C 
ATOM     14  C   UNL     1       1.237  -0.684  -0.016  0.00  0.00    +0.035 A 
ATOM     15  C   UNL     1       0.002  -0.004   0.002  0.00  0.00    +0.013 A 
ATOM     16  H   UNL     1       4.470   0.074   0.003  0.00  0.00    +0.155 HD
ENDROOT
BRANCH   9  17
ATOM     17  C   UNL     1       3.873  -4.588   1.029  0.00  0.00    -0.038 A 
ATOM     18  C   UNL     1       3.884  -5.486  -0.021  0.00  0.00    +0.005 A 
ATOM     19  C   UNL     1       4.925  -6.386  -0.151  0.00  0.00    +0.012 A 
ATOM     20  C   UNL     1       5.957  -6.386   0.770  0.00  0.00    +0.055 A 
ATOM     21  C   UNL     1       5.946  -5.487   1.820  0.00  0.00    +0.012 A 
ATOM     22  C   UNL     1       4.907  -4.585   1.947  0.00  0.00    +0.005 A 
BRANCH  20  23
ATOM     23  C   UNL     1       7.092  -7.367   0.629  0.00  0.00    +0.417 C 
ATOM     24  F   UNL     1       8.103  -6.801  -0.154  0.00  0.00    -0.166 F 
ATOM     25  F   UNL     1       7.600  -7.677   1.895  0.00  0.00    -0.166 F 
ATOM     26  F   UNL     1       6.625  -8.535   0.015  0.00  0.00    -0.166 F 
ENDBRANCH  20  23
ENDBRANCH   9  17
BRANCH  11  27
ATOM     27  N   UNL     1      -0.851  -4.696   0.982  0.00  0.00    -0.328 N 
ATOM     28  H   UNL     1      -0.816  -5.492   1.536  0.00  0.00    +0.145 HD
ATOM     29  H   UNL     1      -1.690  -4.421   0.581  0.00  0.00    +0.145 HD
ENDBRANCH  11  27
BRANCH  10  30
ATOM     30  C   UNL     1       1.444  -5.553   2.126  0.00  0.00    +0.100 C 
ATOM     31  N   UNL     1       1.442  -6.500   2.754  0.00  0.00    -0.191 NA
ENDBRANCH  10  30
TORSDOF 4
