REMARK  Name = ZINC12039187
REMARK  7 active torsions:
REMARK  status: ('A' for Active; 'I' for Inactive)
REMARK    1  A    between atoms: C_1  and  C_2
REMARK    2  A    between atoms: C_2  and  N_62
REMARK    3  A    between atoms: C_6  and  C_8
REMARK    4  A    between atoms: C_8  and  N_9
REMARK    5  A    between atoms: C_10  and  C_12
REMARK    6  A    between atoms: C_16  and  C_34
REMARK    7  A    between atoms: C_20  and  C_29
REMARK                            x       y       z     vdW  Elec       q    Type
REMARK                         _______ _______ _______ _____ _____    ______ ____
ROOT
ATOM      1  C   UNL     1       3.278   1.360   0.194  0.00  0.00    +0.103 A 
ATOM      2  C   UNL     1       4.350   1.204   1.186  0.00  0.00    +0.194 A 
ATOM      3  O   UNL     1       4.186   1.536   2.350  0.00  0.00    -0.287 OA
ATOM      4  C   UNL     1       5.580   0.654   0.747  0.00  0.00    +0.073 A 
ATOM      5  C   UNL     1       5.739   0.358  -0.557  0.00  0.00    +0.025 A 
ATOM      6  N   UNL     1       4.757   0.580  -1.476  0.00  0.00    -0.315 N 
ATOM      7  C   UNL     1       3.535   0.999  -1.118  0.00  0.00    +0.041 A 
ATOM      8  C   UNL     1       2.414   1.057  -2.117  0.00  0.00    +0.074 C 
ATOM      9  C   UNL     1       2.365   2.425  -2.813  0.00  0.00    +0.094 C 
ATOM     10  S   UNL     1       4.082   2.905  -3.197  0.00  0.00    -0.114 S 
ATOM     11  C   UNL     1       4.798   1.392  -3.757  0.00  0.00    +0.032 A 
ATOM     12  C   UNL     1       5.063   0.384  -2.834  0.00  0.00    +0.060 A 
ATOM     13  C   UNL     1       5.627  -0.809  -3.257  0.00  0.00    +0.027 A 
ATOM     14  C   UNL     1       5.923  -0.989  -4.596  0.00  0.00    +0.002 A 
ATOM     15  C   UNL     1       5.659   0.012  -5.513  0.00  0.00    +0.001 A 
ATOM     16  C   UNL     1       5.096   1.206  -5.097  0.00  0.00    +0.017 A 
ATOM     17  C   UNL     1       7.046  -0.238  -1.016  0.00  0.00    +0.064 C 
ENDROOT
BRANCH   9  18
ATOM     18  C   UNL     1       1.741   3.445  -1.895  0.00  0.00    +0.003 A 
ATOM     19  C   UNL     1       2.345   4.378  -1.120  0.00  0.00    +0.012 A 
ATOM     20  C   UNL     1       1.563   5.218  -0.350  0.00  0.00    +0.008 A 
ATOM     21  C   UNL     1       0.215   5.084  -0.393  0.00  0.00    +0.045 A 
ATOM     22  S   UNL     1       0.014   3.742  -1.553  0.00  0.00    -0.100 S 
ENDBRANCH   9  18
BRANCH   1  24
ATOM     23  N   UNL     1       0.882   1.071   0.577  0.00  0.00    -0.313 N 
ATOM     24  C   UNL     1       1.958   1.882   0.586  0.00  0.00    +0.249 C 
ATOM     25  O   UNL     1       1.839   3.046   0.918  0.00  0.00    -0.270 OA
ATOM     26  H   UNL     1       0.977   0.142   0.312  0.00  0.00    +0.149 HD
BRANCH  23  27
ATOM     27  C   UNL     1      -0.432   1.592   0.962  0.00  0.00    +0.089 C 
BRANCH  27  31
ATOM     28  C   UNL     1      -3.730   1.010   0.056  0.00  0.00    -0.078 C 
ATOM     29  C   UNL     1      -3.147  -0.035  -0.929  0.00  0.00    -0.020 C 
ATOM     30  C   UNL     1      -1.621   0.182  -0.749  0.00  0.00    -0.016 C 
ATOM     31  C   UNL     1      -1.492   0.508   0.754  0.00  0.00    -0.051 C 
ATOM     32  N   UNL     1      -2.810   0.978   1.210  0.00  0.00    +0.382 N 
ATOM     33  H   UNL     1      -3.175   0.330   1.918  0.00  0.00    -0.081 HD
BRANCH  32  35
ATOM     34  C   UNL     1      -4.084   2.845   2.183  0.00  0.00    -0.017 C 
ATOM     35  C   UNL     1      -2.692   2.333   1.808  0.00  0.00    -0.082 C 
ENDBRANCH  32  35
ENDBRANCH  27  31
ENDBRANCH  23  27
ENDBRANCH   1  24
TORSDOF 5
