REMARK  Name = ZINC02299199
REMARK  12 active torsions:
REMARK  status: ('A' for Active; 'I' for Inactive)
REMARK    1  A    between atoms: C_1  and  C_2
REMARK    2  A    between atoms: C_2  and  CA_3
REMARK    3  A    between atoms: CA_3  and  C_5
REMARK    4  A    between atoms: CA_3  and  N_66
REMARK    5  A    between atoms: C_5  and  O_6
REMARK    6  A    between atoms: C_7  and  C_8
REMARK    7  A    between atoms: C_7  and  N_66
REMARK    8  A    between atoms: C_8  and  C_10
REMARK    9  A    between atoms: C_8  and  O_36
REMARK   10  A    between atoms: C_10  and  N_11
REMARK   11  A    between atoms: C_22  and  C_30
REMARK   12  A    between atoms: C_23  and  C_24
REMARK                            x       y       z     vdW  Elec       q    Type
REMARK                         _______ _______ _______ _____ _____    ______ ____
ROOT
ATOM      1  N   UNL     1       0.091  -0.344   2.595  0.00  0.00    -0.336 N 
ATOM      2  C   UNL     1       0.083   0.847   3.280  0.00  0.00    +0.058 A 
ATOM      3  C   UNL     1       0.940   1.970   3.264  0.00  0.00    +0.006 A 
ATOM      4  C   UNL     1       2.065   2.011   2.428  0.00  0.00    +0.010 A 
ATOM      5  C   UNL     1       2.873   3.109   2.435  0.00  0.00    +0.001 A 
ATOM      6  C   UNL     1       2.596   4.193   3.264  0.00  0.00    +0.001 A 
ATOM      7  C   UNL     1       1.512   4.186   4.089  0.00  0.00    +0.008 A 
ATOM      8  C   UNL     1       0.658   3.072   4.107  0.00  0.00    -0.016 A 
ATOM      9  C   UNL     1      -0.471   3.038   4.952  0.00  0.00    +0.009 A 
ATOM     10  C   UNL     1      -1.292   1.961   4.954  0.00  0.00    +0.011 A 
ATOM     11  C   UNL     1      -1.028   0.853   4.128  0.00  0.00    +0.009 A 
ATOM     12  C   UNL     1      -1.709  -0.434   3.925  0.00  0.00    +0.015 A 
ATOM     13  C   UNL     1      -0.975  -1.118   2.977  0.00  0.00    +0.058 A 
ENDROOT
BRANCH  13  14
ATOM     14  C   UNL     1      -1.287  -2.464   2.457  0.00  0.00    -0.001 A 
ATOM     15  C   UNL     1      -1.388  -2.679   1.081  0.00  0.00    +0.010 A 
ATOM     16  C   UNL     1      -1.675  -3.940   0.602  0.00  0.00    +0.001 A 
ATOM     17  C   UNL     1      -1.873  -4.989   1.483  0.00  0.00    +0.000 A 
ATOM     18  C   UNL     1      -1.781  -4.782   2.848  0.00  0.00    +0.001 A 
ATOM     19  C   UNL     1      -1.489  -3.527   3.340  0.00  0.00    +0.010 A 
ENDBRANCH  13  14
BRANCH  12  20
ATOM     20  C   UNL     1      -2.938  -0.903   4.603  0.00  0.00    -0.015 A 
ATOM     21  C   UNL     1      -4.107  -1.109   3.870  0.00  0.00    +0.008 A 
ATOM     22  C   UNL     1      -5.248  -1.552   4.507  0.00  0.00    +0.001 A 
ATOM     23  C   UNL     1      -5.238  -1.781   5.871  0.00  0.00    +0.000 A 
ATOM     24  C   UNL     1      -4.083  -1.573   6.605  0.00  0.00    +0.001 A 
ATOM     25  C   UNL     1      -2.934  -1.135   5.979  0.00  0.00    +0.008 A 
ENDBRANCH  12  20
BRANCH   1  26
ATOM     26  C   UNL     1       1.098  -0.734   1.604  0.00  0.00    +0.151 C 
BRANCH  26  27
ATOM     27  C   UNL     1       2.316  -1.322   2.319  0.00  0.00    +0.117 C 
BRANCH  27  28
ATOM     28  O   UNL     1       1.935  -2.518   3.003  0.00  0.00    -0.392 OA
ATOM     29  H   UNL     1       1.583  -3.207   2.424  0.00  0.00    +0.210 HD
ENDBRANCH  27  28
BRANCH  27  30
ATOM     30  C   UNL     1       3.402  -1.647   1.292  0.00  0.00    -0.049 C 
BRANCH  30  31
ATOM     31  N   UNL     1       4.572  -2.214   1.989  0.00  0.00    +0.384 N 
ATOM     32  H1  UNL     1       4.927  -1.529   2.667  0.00  0.00    -0.085 HD
ATOM     33  H2  UNL     1       4.291  -3.070   2.481  0.00  0.00    -0.085 HD
BRANCH  31  34
ATOM     34  CA  UNL     1       5.638  -2.536   1.021  0.00  0.00    -0.046 C 
BRANCH  34  36
ATOM     35  C   UNL     1       7.293  -1.096   2.216  0.00  0.00    +0.002 C 
ATOM     36  C   UNL     1       6.990  -2.517   1.738  0.00  0.00    -0.017 C 
ENDBRANCH  34  36
BRANCH  34  37
ATOM     37  C   UNL     1       5.391  -3.928   0.435  0.00  0.00    +0.140 C 
BRANCH  37  38
ATOM     38  O   UNL     1       5.502  -4.907   1.470  0.00  0.00    -0.397 OA
ATOM     39  H   UNL     1       5.357  -5.815   1.170  0.00  0.00    +0.209 HD
ENDBRANCH  37  38
ENDBRANCH  34  37
ENDBRANCH  31  34
ENDBRANCH  30  31
ENDBRANCH  27  30
ENDBRANCH  26  27
ENDBRANCH   1  26
TORSDOF 11
