REMARK  Name = ZINC04414017
REMARK  5 active torsions:
REMARK  status: ('A' for Active; 'I' for Inactive)
REMARK    1  A    between atoms: C_1  and  C_2
REMARK    2  A    between atoms: N_7  and  C_8
REMARK    3  A    between atoms: C_8  and  C_10
REMARK    4  A    between atoms: C_8  and  C_17
REMARK    5  A    between atoms: C_26  and  O_27
REMARK                            x       y       z     vdW  Elec       q    Type
REMARK                         _______ _______ _______ _____ _____    ______ ____
ROOT
ATOM      1  C   UNL     1      -0.073   5.349   0.032  0.00  0.00    +0.136 C 
ENDROOT
BRANCH   1   8
ATOM      2  C   UNL     1       2.088   4.790   4.645  0.00  0.00    +0.044 C 
ATOM      3  C   UNL     1       0.846   5.466   4.124  0.00  0.00    -0.046 A 
ATOM      4  C   UNL     1      -0.012   6.137   4.986  0.00  0.00    +0.021 A 
ATOM      5  C   UNL     1      -1.142   6.746   4.478  0.00  0.00    +0.084 A 
ATOM      6  C   UNL     1      -0.621   6.069   2.333  0.00  0.00    +0.097 A 
ATOM      7  C   UNL     1       0.534   5.433   2.777  0.00  0.00    +0.045 A 
ATOM      8  N   UNL     1      -0.946   6.043   0.982  0.00  0.00    -0.320 N 
ATOM      9  H   UNL     1      -1.750   6.485   0.668  0.00  0.00    +0.148 HD
ATOM     10  N   UNL     1      -1.476   6.739   3.159  0.00  0.00    -0.350 N 
ATOM     11  H   UNL     1      -2.318   7.208   2.807  0.00  0.00    +0.166 HD
ENDBRANCH   1   8
BRANCH   1  12
ATOM     12  C   UNL     1      -0.265   5.931  -1.344  0.00  0.00    +0.021 A 
ATOM     13  C   UNL     1      -1.485   6.513  -1.679  0.00  0.00    +0.010 A 
ATOM     14  C   UNL     1      -1.688   7.054  -2.912  0.00  0.00    +0.010 A 
ATOM     15  C   UNL     1      -0.659   7.015  -3.867  0.00  0.00    +0.004 A 
ATOM     16  C   UNL     1      -0.834   7.558  -5.154  0.00  0.00    +0.011 A 
ATOM     17  C   UNL     1       0.210   7.485  -6.032  0.00  0.00    +0.020 A 
ATOM     18  C   UNL     1       1.405   6.885  -5.641  0.00  0.00    +0.111 A 
ATOM     19  N   UNL     1       1.564   6.381  -4.442  0.00  0.00    -0.251 NA
ATOM     20  C   UNL     1       0.582   6.420  -3.536  0.00  0.00    +0.113 A 
ATOM     21  C   UNL     1       0.759   5.875  -2.247  0.00  0.00    +0.148 A 
BRANCH  21  22
ATOM     22  O   UNL     1       1.940   5.299  -1.905  0.00  0.00    -0.504 OA
ATOM     23  H   UNL     1       1.985   4.351  -2.094  0.00  0.00    +0.292 HD
ENDBRANCH  21  22
ENDBRANCH   1  12
BRANCH   1  24
ATOM     24  C   UNL     1      -0.421   3.882   0.010  0.00  0.00    -0.020 A 
ATOM     25  C   UNL     1      -1.744   3.485   0.064  0.00  0.00    +0.006 A 
ATOM     26  C   UNL     1      -2.065   2.141   0.039  0.00  0.00    +0.003 A 
ATOM     27  C   UNL     1      -1.062   1.192  -0.029  0.00  0.00    +0.038 A 
ATOM     28  C   UNL     1       0.263   1.588  -0.084  0.00  0.00    +0.124 A 
ATOM     29  C   UNL     1       0.583   2.936  -0.064  0.00  0.00    +0.044 A 
ATOM     30  F   UNL     1       1.244   0.662  -0.156  0.00  0.00    -0.205 F 
ENDBRANCH   1  24
TORSDOF 4
