REMARK  Name = ZINC35385458
REMARK  13 active torsions:
REMARK  status: ('A' for Active; 'I' for Inactive)
REMARK    1  A    between atoms: C_1  and  O_2
REMARK    2  A    between atoms: O_2  and  C_3
REMARK    3  A    between atoms: C_3  and  C_5
REMARK    4  A    between atoms: C_8  and  C_11
REMARK    5  A    between atoms: C_11  and  C_13
REMARK    6  A    between atoms: C_11  and  N_27
REMARK    7  A    between atoms: C_13  and  C_15
REMARK    8  A    between atoms: C_13  and  C_24
REMARK    9  A    between atoms: C_15  and  N_16
REMARK   10  A    between atoms: N_16  and  C_17
REMARK   11  A    between atoms: C_17  and  C_18
REMARK   12  A    between atoms: N_27  and  C_28
REMARK   13  A    between atoms: C_28  and  C_29
REMARK                            x       y       z     vdW  Elec       q    Type
REMARK                         _______ _______ _______ _____ _____    ______ ____
ROOT
ATOM      1  C   UNL     1       0.669  -6.670  -1.103  0.00  0.00    -0.028 C 
ENDROOT
BRANCH   1   5
ATOM      2  C   UNL     1       0.327  -2.418  -0.800  0.00  0.00    +0.059 A 
ATOM      3  C   UNL     1      -0.251  -3.239   0.170  0.00  0.00    +0.015 A 
ATOM      4  C   UNL     1      -0.137  -4.610   0.066  0.00  0.00    +0.003 A 
ATOM      5  C   UNL     1       0.549  -5.172  -0.996  0.00  0.00    -0.061 A 
ATOM      6  C   UNL     1       1.125  -4.364  -1.961  0.00  0.00    +0.003 A 
ATOM      7  C   UNL     1       1.013  -2.992  -1.873  0.00  0.00    +0.015 A 
BRANCH   2   8
ATOM      8  C   UNL     1       0.209  -0.950  -0.696  0.00  0.00    +0.339 C 
ATOM      9  O   UNL     1       0.710  -0.238  -1.544  0.00  0.00    -0.245 OA
BRANCH   8  11
ATOM     10  C   UNL     1      -0.528   1.028   0.378  0.00  0.00    +0.280 C 
ATOM     11  O   UNL     1      -0.453  -0.399   0.340  0.00  0.00    -0.464 OA
ENDBRANCH   8  11
ENDBRANCH   2   8
ENDBRANCH   1   5
BRANCH   1  12
ATOM     12  N   UNL     1       0.512  -7.076  -2.506  0.00  0.00    +0.387 N 
ATOM     13  H   UNL     1       1.172  -6.571  -3.078  0.00  0.00    -0.085 HD
ATOM     14  H   UNL     1       0.682  -8.066  -2.591  0.00  0.00    -0.085 HD
BRANCH  12  15
ATOM     15  C   UNL     1      -0.855  -6.774  -2.953  0.00  0.00    -0.046 C 
BRANCH  15  16
ATOM     16  C   UNL     1      -1.055  -7.303  -4.350  0.00  0.00    -0.064 A 
ATOM     17  C   UNL     1      -0.764  -6.504  -5.440  0.00  0.00    +0.002 A 
ATOM     18  C   UNL     1      -0.948  -6.989  -6.721  0.00  0.00    +0.000 A 
ATOM     19  C   UNL     1      -1.421  -8.273  -6.912  0.00  0.00    +0.000 A 
ATOM     20  C   UNL     1      -1.711  -9.073  -5.823  0.00  0.00    +0.000 A 
ATOM     21  C   UNL     1      -1.524  -8.589  -4.541  0.00  0.00    +0.002 A 
ENDBRANCH  15  16
ENDBRANCH  12  15
ENDBRANCH   1  12
BRANCH   1  22
ATOM     22  C   UNL     1       2.044  -7.109  -0.596  0.00  0.00    +0.075 C 
BRANCH  22  23
ATOM     23  C   UNL     1       2.194  -8.598  -0.774  0.00  0.00    +0.356 C 
ATOM     24  O   UNL     1       3.089  -9.042  -1.472  0.00  0.00    -0.246 OA
ATOM     25  O   UNL     1       1.419  -9.359  -0.219  0.00  0.00    -0.246 OA
ENDBRANCH  22  23
BRANCH  22  26
ATOM     26  C   UNL     1       2.178  -6.756   0.886  0.00  0.00    -0.069 C 
BRANCH  26  27
ATOM     27  N   UNL     1       3.526  -7.108   1.354  0.00  0.00    +0.382 N 
ATOM     28  H   UNL     1       3.677  -8.098   1.229  0.00  0.00    -0.085 HD
ATOM     29  H   UNL     1       4.211  -6.593   0.823  0.00  0.00    -0.085 HD
BRANCH  27  30
ATOM     30  C   UNL     1       3.654  -6.769   2.778  0.00  0.00    -0.047 C 
BRANCH  30  31
ATOM     31  C   UNL     1       5.036  -7.131   3.257  0.00  0.00    -0.064 A 
ATOM     32  C   UNL     1       5.284  -8.391   3.767  0.00  0.00    +0.002 A 
ATOM     33  C   UNL     1       6.551  -8.723   4.207  0.00  0.00    +0.000 A 
ATOM     34  C   UNL     1       7.572  -7.793   4.137  0.00  0.00    +0.000 A 
ATOM     35  C   UNL     1       7.325  -6.532   3.626  0.00  0.00    +0.000 A 
ATOM     36  C   UNL     1       6.058  -6.203   3.182  0.00  0.00    +0.002 A 
ENDBRANCH  30  31
ENDBRANCH  27  30
ENDBRANCH  26  27
ENDBRANCH  22  26
ENDBRANCH   1  22
TORSDOF 12
