REMARK  Name = ZINC22795303
REMARK  8 active torsions:
REMARK  status: ('A' for Active; 'I' for Inactive)
REMARK    1  A    between atoms: C_5  and  C_7
REMARK    2  A    between atoms: C_7  and  C_9
REMARK    3  A    between atoms: C_7  and  N_23
REMARK    4  A    between atoms: C_10  and  O_22
REMARK    5  A    between atoms: C_15  and  C_17
REMARK    6  A    between atoms: N_26  and  C_29
REMARK    7  A    between atoms: C_29  and  C_30
REMARK    8  A    between atoms: C_30  and  O_31
REMARK                            x       y       z     vdW  Elec       q    Type
REMARK                         _______ _______ _______ _____ _____    ______ ____
ROOT
ATOM      1  C   UNL     1       1.229  -2.186  -0.022  0.00  0.00    +0.007 C 
ENDROOT
BRANCH   1   2
ATOM      2  C   UNL     1       1.373  -2.695   1.389  0.00  0.00    +0.045 A 
ATOM      3  C   UNL     1       2.385  -3.375   1.942  0.00  0.00    +0.225 A 
ATOM      4  N   UNL     1       2.336  -3.756   3.260  0.00  0.00    -0.173 N 
ATOM      5  C   UNL     1       1.218  -3.411   3.968  0.00  0.00    +0.199 A 
ATOM      6  S   UNL     1       0.243  -2.540   2.764  0.00  0.00    -0.050 S 
ATOM      7  N   UNL     1       1.323  -3.841   5.194  0.00  0.00    -0.197 NA
ATOM      8  C   UNL     1       2.493  -4.476   5.342  0.00  0.00    +0.218 A 
ATOM      9  N   UNL     1       3.143  -4.452   4.198  0.00  0.00    -0.138 NA
BRANCH   8  10
ATOM     10  C   UNL     1       2.977  -5.104   6.590  0.00  0.00    +0.173 A 
ATOM     11  C   UNL     1       2.311  -5.140   7.774  0.00  0.00    +0.053 A 
ATOM     12  C   UNL     1       3.136  -5.833   8.683  0.00  0.00    +0.042 A 
ATOM     13  C   UNL     1       4.253  -6.182   8.014  0.00  0.00    +0.196 A 
ATOM     14  O   UNL     1       4.151  -5.745   6.749  0.00  0.00    -0.460 OA
ENDBRANCH   8  10
BRANCH   3  15
ATOM     15  O   UNL     1       3.473  -3.692   1.189  0.00  0.00    -0.492 OA
ATOM     16  H   UNL     1       4.154  -4.183   1.669  0.00  0.00    +0.294 HD
ENDBRANCH   3  15
ENDBRANCH   1   2
BRANCH   1  21
ATOM     17  C   UNL     1      -0.017   1.378   0.010  0.00  0.00    +0.000 A 
ATOM     18  C   UNL     1       1.171   2.086   0.002  0.00  0.00    +0.001 A 
ATOM     19  C   UNL     1       2.377   1.412  -0.013  0.00  0.00    +0.020 A 
ATOM     20  C   UNL     1       2.397   0.029  -0.021  0.00  0.00    +0.043 A 
ATOM     21  C   UNL     1       1.208  -0.679  -0.013  0.00  0.00    -0.038 A 
ATOM     22  C   UNL     1       0.002  -0.004   0.002  0.00  0.00    +0.004 A 
ATOM     23 CL   UNL     1       3.912  -0.818  -0.041  0.00  0.00    -0.083 Cl
ENDBRANCH   1  21
BRANCH   1  24
ATOM     24  N   UNL     1      -0.026  -2.689  -0.597  0.00  0.00    +0.389 N 
ATOM     25  C   UNL     1      -0.006  -4.158  -0.604  0.00  0.00    -0.062 C 
ATOM     26  C   UNL     1      -1.321  -4.683  -1.186  0.00  0.00    +0.066 C 
ATOM     27  N   UNL     1      -1.486  -4.172  -2.554  0.00  0.00    -0.304 NA
ATOM     28  C   UNL     1      -1.482  -2.702  -2.566  0.00  0.00    +0.066 C 
ATOM     29  C   UNL     1      -0.167  -2.193  -1.973  0.00  0.00    -0.062 C 
ATOM     30  H   UNL     1      -0.804  -2.366  -0.042  0.00  0.00    -0.080 HD
BRANCH  27  31
ATOM     31  C   UNL     1      -2.711  -4.700  -3.169  0.00  0.00    +0.112 C 
BRANCH  31  32
ATOM     32  C   UNL     1      -2.724  -4.354  -4.659  0.00  0.00    +0.171 C 
BRANCH  32  33
ATOM     33  O   UNL     1      -1.650  -5.030  -5.315  0.00  0.00    -0.394 OA
ATOM     34  H   UNL     1      -1.597  -4.856  -6.265  0.00  0.00    +0.209 HD
ENDBRANCH  32  33
ENDBRANCH  31  32
ENDBRANCH  27  31
ENDBRANCH   1  24
TORSDOF 8
