REMARK  Name = ZINC37246825
REMARK  14 active torsions:
REMARK  status: ('A' for Active; 'I' for Inactive)
REMARK    1  A    between atoms: C_2  and  C_31
REMARK    2  A    between atoms: C_4  and  O_16
REMARK    3  A    between atoms: C_6  and  O_11
REMARK    4  A    between atoms: C_8  and  O_10
REMARK    5  A    between atoms: O_11  and  S_12
REMARK    6  A    between atoms: O_16  and  C_17
REMARK    7  A    between atoms: C_17  and  C_19
REMARK    8  A    between atoms: C_17  and  C_24
REMARK    9  A    between atoms: C_19  and  C_21
REMARK   10  A    between atoms: C_19  and  O_23
REMARK   11  A    between atoms: C_21  and  O_22
REMARK   12  A    between atoms: C_24  and  C_26
REMARK   13  A    between atoms: C_24  and  O_30
REMARK   14  A    between atoms: C_26  and  N_29
REMARK                            x       y       z     vdW  Elec       q    Type
REMARK                         _______ _______ _______ _____ _____    ______ ____
ROOT
ATOM      1  O   UNK     1       3.852  -0.280  -0.150  0.00  0.00    -0.331 OA
ENDROOT
BRANCH   1   5
ATOM      2  C   UNK     1       0.036  -0.702  -1.666  0.00  0.00    +0.060 C 
ATOM      3  C   UNK     1       0.724   0.428  -1.754  0.00  0.00    +0.210 C 
ATOM      4  O   UNK     1       1.972   0.574  -1.247  0.00  0.00    -0.454 OA
ATOM      5  C   UNK     1       2.699  -0.615  -0.925  0.00  0.00    +0.343 C 
ATOM      6  C   UNK     1       1.780  -1.538  -0.114  0.00  0.00    +0.252 C 
ATOM      7  C   UNK     1       0.592  -1.931  -0.999  0.00  0.00    +0.178 C 
BRANCH   3   8
ATOM      8  C   UNK     1       0.103   1.577  -2.432  0.00  0.00    +0.420 C 
ATOM      9  O   UNK     1      -1.023   1.475  -2.900  0.00  0.00    -0.237 OA
ATOM     10  O   UNK     1       0.713   2.633  -2.528  0.00  0.00    -0.237 OA
ENDBRANCH   3   8
BRANCH   7  11
ATOM     11  O   UNK     1       1.027  -2.859  -1.995  0.00  0.00    -0.385 OA
ATOM     12  H   UNK     1       0.326  -3.151  -2.593  0.00  0.00    +0.210 HD
ENDBRANCH   7  11
BRANCH   6  13
ATOM     13  O   UNK     1       1.309  -0.850   1.047  0.00  0.00    -0.201 OA
BRANCH  13  14
ATOM     14  S   UNK     1       1.145  -1.741   2.270  0.00  0.00    +0.239 S 
ATOM     15  O   UNK     1       0.339  -0.999   3.228  0.00  0.00    -0.116 OA
ATOM     16  O   UNK     1       0.477  -2.953   1.823  0.00  0.00    -0.116 OA
ATOM     17  O   UNK     1       2.480  -2.012   2.778  0.00  0.00    -0.022 OA
ENDBRANCH  13  14
ENDBRANCH   6  13
ENDBRANCH   1   5
BRANCH   1  18
ATOM     18  C   UNK     1       4.872   0.395  -0.887  0.00  0.00    +0.187 C 
BRANCH  18  19
ATOM     19  C   UNK     1       5.463   1.517  -0.031  0.00  0.00    +0.171 C 
BRANCH  19  20
ATOM     20  O   UNK     1       6.047   0.959   1.148  0.00  0.00    -0.387 OA
ATOM     21  H   UNK     1       5.421   0.475   1.704  0.00  0.00    +0.210 HD
ENDBRANCH  19  20
BRANCH  19  22
ATOM     22  C   UNK     1       4.356   2.496   0.362  0.00  0.00    +0.189 C 
BRANCH  22  23
ATOM     23  O   UNK     1       4.925   3.601   1.068  0.00  0.00    -0.392 OA
ATOM     24  H   UNK     1       4.278   4.263   1.349  0.00  0.00    +0.210 HD
ENDBRANCH  22  23
ENDBRANCH  19  22
ENDBRANCH  18  19
BRANCH  18  25
ATOM     25  C   UNK     1       5.975  -0.598  -1.259  0.00  0.00    +0.192 C 
BRANCH  25  26
ATOM     26  C   UNK     1       5.393  -1.703  -2.102  0.00  0.00    +0.072 C 
ATOM     27  C   UNK     1       5.370  -2.943  -1.643  0.00  0.00    +0.271 C 
ATOM     28  O   UNK     1       4.844  -3.940  -2.405  0.00  0.00    -0.295 OA
BRANCH  26  29
ATOM     29  N   UNK     1       4.877  -1.417  -3.372  0.00  0.00    -0.357 N 
ATOM     30  H   UNK     1       4.894  -0.507  -3.708  0.00  0.00    +0.142 HD
ATOM     31  H   UNK     1       4.503  -2.128  -3.914  0.00  0.00    +0.142 HD
ENDBRANCH  26  29
ENDBRANCH  25  26
BRANCH  25  32
ATOM     32  O   UNK     1       6.996   0.077  -1.997  0.00  0.00    -0.383 OA
ATOM     33  H   UNK     1       6.686   0.480  -2.819  0.00  0.00    +0.210 HD
ENDBRANCH  25  32
ENDBRANCH  18  25
ENDBRANCH   1  18
TORSDOF 14
