REMARK  Name = ZINC64609935
REMARK  5 active torsions:
REMARK  status: ('A' for Active; 'I' for Inactive)
REMARK    1  A    between atoms: C_4  and  C_7
REMARK    2  A    between atoms: C_7  and  C_8
REMARK    3  A    between atoms: C_13  and  C_18
REMARK    4  A    between atoms: N_20  and  C_21
REMARK    5  A    between atoms: C_21  and  C_22
REMARK                            x       y       z     vdW  Elec       q    Type
REMARK                         _______ _______ _______ _____ _____    ______ ____
ROOT
ATOM      1  C   UNL     1       4.171  -0.963   1.399  0.00  0.00    +0.265 C 
ATOM      2  N   UNL     1       5.498  -1.594   1.400  0.00  0.00    -0.306 N 
ATOM      3  C   UNL     1       5.340  -2.838   2.029  0.00  0.00    +0.073 A 
ATOM      4  C   UNL     1       6.256  -3.840   2.299  0.00  0.00    +0.039 A 
ATOM      5  C   UNL     1       5.842  -5.006   2.947  0.00  0.00    +0.039 A 
ATOM      6  C   UNL     1       4.503  -5.153   3.319  0.00  0.00    +0.017 A 
ATOM      7  C   UNL     1       3.598  -4.153   3.047  0.00  0.00    +0.048 A 
ATOM      8  C   UNL     1       4.006  -2.989   2.401  0.00  0.00    +0.144 A 
ATOM      9  O   UNL     1       3.291  -1.890   2.040  0.00  0.00    -0.469 OA
ATOM     10  H   UNL     1       6.319  -1.224   1.038  0.00  0.00    +0.150 HD
ENDROOT
BRANCH   5  11
ATOM     11  C   UNL     1       6.814  -6.077   3.239  0.00  0.00    +0.244 C 
ATOM     12  O   UNL     1       7.979  -5.947   2.914  0.00  0.00    -0.270 OA
ATOM     13  N   UNL     1       6.412  -7.201   3.864  0.00  0.00    -0.309 N 
ATOM     14  H   UNL     1       5.483  -7.306   4.123  0.00  0.00    +0.149 HD
BRANCH  13  15
ATOM     15  C   UNL     1       7.377  -8.265   4.153  0.00  0.00    +0.133 C 
BRANCH  15  16
ATOM     16  C   UNL     1       6.667  -9.419   4.863  0.00  0.00    +0.120 C 
ATOM     17  C   UNL     1       7.676 -10.444   5.331  0.00  0.00    +0.009 C 
ATOM     18  C   UNL     1       7.556 -10.500   6.677  0.00  0.00    -0.004 A 
ATOM     19  C   UNL     1       8.246 -11.290   7.704  0.00  0.00    +0.010 A 
ATOM     20  C   UNL     1       7.899 -11.125   9.001  0.00  0.00    +0.001 A 
ATOM     21  C   UNL     1       6.902 -10.220   9.388  0.00  0.00    +0.002 A 
ATOM     22  C   UNL     1       6.224  -9.459   8.502  0.00  0.00    +0.026 A 
ATOM     23  C   UNL     1       6.506  -9.552   7.111  0.00  0.00    +0.043 A 
ATOM     24  N   UNL     1       5.995  -8.932   6.073  0.00  0.00    -0.376 N 
ATOM     25  H   UNL     1       5.292  -8.264   6.101  0.00  0.00    +0.160 HD
ENDBRANCH  15  16
ENDBRANCH  13  15
ENDBRANCH   5  11
BRANCH   1  26
ATOM     26  C   UNL     1       3.711  -0.707  -0.038  0.00  0.00    +0.100 C 
BRANCH  26  30
ATOM     27  C   UNL     1      -0.017   1.378   0.010  0.00  0.00    +0.000 A 
ATOM     28  C   UNL     1       1.171   2.086   0.002  0.00  0.00    +0.000 A 
ATOM     29  C   UNL     1       2.377   1.411  -0.013  0.00  0.00    +0.004 A 
ATOM     30  C   UNL     1       2.396   0.029  -0.020  0.00  0.00    -0.042 A 
ATOM     31  C   UNL     1       1.208  -0.679  -0.012  0.00  0.00    +0.004 A 
ATOM     32  C   UNL     1       0.002  -0.004   0.002  0.00  0.00    +0.000 A 
ENDBRANCH  26  30
ENDBRANCH   1  26
TORSDOF 5
