REMARK  Name = ZINC41018041
REMARK  4 active torsions:
REMARK  status: ('A' for Active; 'I' for Inactive)
REMARK    1  A    between atoms: C_5  and  C_6
REMARK    2  A    between atoms: C_12  and  S_14
REMARK    3  A    between atoms: S_14  and  C_15
REMARK    4  A    between atoms: C_15  and  C_16
REMARK                            x       y       z     vdW  Elec       q    Type
REMARK                         _______ _______ _______ _____ _____    ______ ____
ROOT
ATOM      1  C   UNL     1      -1.123  -0.944   0.007  0.00  0.00    +0.256 C 
ATOM      2  O   UNL     1      -2.265  -0.525   0.020  0.00  0.00    -0.269 OA
ATOM      3  N   UNL     1      -0.891  -2.271  -0.002  0.00  0.00    -0.259 N 
ATOM      4  C   UNL     1      -1.959  -3.163   0.003  0.00  0.00    +0.189 A 
ATOM      5  N   UNL     1      -3.254  -2.916   0.010  0.00  0.00    -0.125 NA
ATOM      6  N   UNL     1      -4.151  -3.959   0.014  0.00  0.00    -0.133 NA
ATOM      7  C   UNL     1      -3.710  -5.204   0.010  0.00  0.00    +0.160 A 
ATOM      8  S   UNL     1      -1.942  -4.950  -0.007  0.00  0.00    -0.024 S 
ATOM      9  H   UNL     1       0.019  -2.605  -0.012  0.00  0.00    +0.157 HD
ENDROOT
BRANCH   1  14
ATOM     10  C   UNL     1      -0.017   1.376   0.010  0.00  0.00    +0.024 A 
ATOM     11  C   UNL     1       1.221   2.023   0.001  0.00  0.00    -0.036 A 
ATOM     12  C   UNL     1       2.323   1.230  -0.016  0.00  0.00    -0.006 A 
ATOM     13  S   UNL     1       1.751  -0.345  -0.016  0.00  0.00    -0.088 S 
ATOM     14  C   UNL     1       0.002  -0.004   0.002  0.00  0.00    +0.075 A 
ATOM     15  C   UNL     1       3.593   2.040  -0.030  0.00  0.00    +0.043 C 
ATOM     16  C   UNL     1       3.149   3.455  -0.458  0.00  0.00    +0.010 C 
ATOM     17  C   UNL     1       1.681   3.483   0.009  0.00  0.00    +0.036 C 
ENDBRANCH   1  14
BRANCH   7  18
ATOM     18  S   UNL     1      -4.621  -6.712   0.014  0.00  0.00    -0.085 S 
BRANCH  18  19
ATOM     19  C   UNL     1      -6.355  -6.177   0.024  0.00  0.00    +0.201 C 
BRANCH  19  20
ATOM     20  C   UNL     1      -7.254  -7.386   0.028  0.00  0.00    +0.366 C 
ATOM     21  O   UNL     1      -6.770  -8.505   0.024  0.00  0.00    -0.245 OA
ATOM     22  O   UNL     1      -8.465  -7.246   0.034  0.00  0.00    -0.245 OA
ENDBRANCH  19  20
ENDBRANCH  18  19
ENDBRANCH   7  18
TORSDOF 4
