REMARK  Name = ZINC58551851
REMARK  5 active torsions:
REMARK  status: ('A' for Active; 'I' for Inactive)
REMARK    1  A    between atoms: C_6  and  C_10
REMARK    2  A    between atoms: C_10  and  C_11
REMARK    3  A    between atoms: N_13  and  C_14
REMARK    4  A    between atoms: N_20  and  S_23
REMARK    5  A    between atoms: S_23  and  N_26
REMARK                            x       y       z     vdW  Elec       q    Type
REMARK                         _______ _______ _______ _____ _____    ______ ____
ROOT
ATOM      1  C   UNL     1       4.593  -3.607   1.247  0.00  0.00    +0.223 C 
ATOM      2  O   UNL     1       4.796  -2.743   2.074  0.00  0.00    -0.275 OA
ATOM      3  N   UNL     1       4.710  -4.906   1.586  0.00  0.00    -0.285 N 
ATOM      4  H   UNL     1       4.482  -5.597   0.945  0.00  0.00    +0.155 HD
ENDROOT
BRANCH   3   5
ATOM      5  C   UNL     1       5.159  -5.257   2.864  0.00  0.00    +0.035 A 
ATOM      6  C   UNL     1       4.808  -4.480   3.961  0.00  0.00    +0.024 A 
ATOM      7  C   UNL     1       5.253  -4.831   5.220  0.00  0.00    +0.007 A 
ATOM      8  C   UNL     1       6.045  -5.951   5.392  0.00  0.00    -0.023 A 
ATOM      9  C   UNL     1       6.403  -6.735   4.305  0.00  0.00    +0.057 A 
ATOM     10  C   UNL     1       5.947  -6.383   3.034  0.00  0.00    +0.048 A 
ATOM     11  N   UNL     1       7.201  -7.814   4.690  0.00  0.00    -0.193 N 
ATOM     12  C   UNL     1       7.420  -7.787   6.138  0.00  0.00    +0.137 C 
ATOM     13  C   UNL     1       6.658  -6.549   6.638  0.00  0.00    +0.058 C 
BRANCH  11  14
ATOM     14  S   UNL     1       7.811  -8.957   3.659  0.00  0.00    +0.109 S 
ATOM     15  O   UNL     1       8.058 -10.118   4.440  0.00  0.00    -0.138 OA
ATOM     16  O   UNL     1       6.962  -8.972   2.520  0.00  0.00    -0.138 OA
BRANCH  14  17
ATOM     17  N   UNL     1       9.287  -8.412   3.142  0.00  0.00    -0.190 NA
ATOM     18  H   UNL     1       9.627  -7.560   3.457  0.00  0.00    +0.146 HD
ATOM     19  H   UNL     1       9.812  -8.946   2.524  0.00  0.00    +0.146 HD
ENDBRANCH  14  17
ENDBRANCH  11  14
ENDBRANCH   3   5
BRANCH   1  20
ATOM     20  C   UNL     1       4.210  -3.227  -0.161  0.00  0.00    +0.150 C 
BRANCH  20  26
ATOM     21  C   UNL     1       3.213   2.676  -0.490  0.00  0.00    +0.005 A 
ATOM     22  C   UNL     1       4.596   2.718  -0.733  0.00  0.00    +0.018 A 
ATOM     23  C   UNL     1       5.317   1.577  -0.760  0.00  0.00    +0.092 A 
ATOM     24  N   UNL     1       4.716   0.370  -0.553  0.00  0.00    -0.308 N 
ATOM     25  C   UNL     1       5.197  -0.911  -0.527  0.00  0.00    +0.114 A 
ATOM     26  C   UNL     1       4.148  -1.726  -0.277  0.00  0.00    +0.043 A 
ATOM     27  N   UNL     1       3.049  -0.979  -0.150  0.00  0.00    -0.343 N 
ATOM     28  C   UNL     1       3.368   0.297  -0.314  0.00  0.00    +0.115 A 
ATOM     29  C   UNL     1       2.601   1.479  -0.282  0.00  0.00    +0.045 A 
ATOM     30  H   UNL     1       2.158  -1.317   0.033  0.00  0.00    +0.167 HD
ENDBRANCH  20  26
ENDBRANCH   1  20
TORSDOF 5
