REMARK  Name = ZINC39303588
REMARK  7 active torsions:
REMARK  status: ('A' for Active; 'I' for Inactive)
REMARK    1  A    between atoms: C_4  and  C_7
REMARK    2  A    between atoms: C_7  and  C_8
REMARK    3  A    between atoms: C_7  and  N_14
REMARK    4  A    between atoms: N_14  and  C_15
REMARK    5  A    between atoms: C_15  and  C_17
REMARK    6  A    between atoms: C_15  and  C_22
REMARK    7  A    between atoms: N_27  and  C_30
REMARK                            x       y       z     vdW  Elec       q    Type
REMARK                         _______ _______ _______ _____ _____    ______ ____
ROOT
ATOM      1  C   UNL     1       3.110  -1.717  -2.287  0.00  0.00    +0.055 C 
ENDROOT
BRANCH   1   2
ATOM      2  C   UNL     1       3.498  -2.809  -3.250  0.00  0.00    +0.206 C 
ATOM      3  O   UNL     1       4.098  -3.785  -2.852  0.00  0.00    -0.277 OA
ATOM      4  N   UNL     1       3.178  -2.701  -4.555  0.00  0.00    -0.300 N 
ATOM      5  C   UNL     1       2.562  -1.472  -5.075  0.00  0.00    +0.126 C 
ATOM      6  C   UNL     1       3.416  -0.948  -6.236  0.00  0.00    +0.124 C 
ATOM      7  N   UNL     1       3.678  -2.057  -7.164  0.00  0.00    -0.327 N 
ATOM      8  C   UNL     1       4.294  -3.286  -6.644  0.00  0.00    +0.124 C 
ATOM      9  C   UNL     1       3.444  -3.808  -5.485  0.00  0.00    +0.126 C 
BRANCH   7  10
ATOM     10  C   UNL     1       3.346  -1.945  -8.514  0.00  0.00    +0.035 C 
ATOM     11  C   UNL     1       3.433  -3.004  -9.385  0.00  0.00    +0.023 C 
ATOM     12  C   UNL     1       3.148  -2.827 -10.759  0.00  0.00    -0.000 C 
ATOM     13  C   UNL     1       2.495  -1.768 -11.251  0.00  0.00    +0.004 C 
ATOM     14  C   UNL     1       1.982  -0.725 -10.304  0.00  0.00    +0.160 C 
ATOM     15  C   UNL     1       2.890  -0.736  -9.086  0.00  0.00    +0.003 C 
ATOM     16  C   UNL     1       3.118   0.555  -8.814  0.00  0.00    +0.027 C 
ATOM     17  C   UNL     1       2.658   1.348  -9.892  0.00  0.00    +0.106 C 
ATOM     18  N   UNL     1       2.037   0.645 -10.791  0.00  0.00    -0.279 NA
ENDBRANCH   7  10
ENDBRANCH   1   2
BRANCH   1  19
ATOM     19  C   UNL     1       4.170  -0.646  -2.288  0.00  0.00    -0.015 A 
ATOM     20  C   UNL     1       4.159   0.565  -2.897  0.00  0.00    +0.010 A 
ATOM     21  C   UNL     1       5.256   1.395  -2.759  0.00  0.00    +0.008 A 
ATOM     22  C   UNL     1       6.310   0.973  -2.019  0.00  0.00    +0.045 A 
ATOM     23  S   UNL     1       5.763  -0.639  -1.482  0.00  0.00    -0.103 S 
ENDBRANCH   1  19
BRANCH   1  24
ATOM     24  N   UNL     1       2.984  -2.279  -0.935  0.00  0.00    +0.397 N 
ATOM     25  H   UNL     1       3.886  -2.605  -0.621  0.00  0.00    -0.083 HD
ATOM     26  H   UNL     1       2.335  -3.051  -0.951  0.00  0.00    -0.083 HD
BRANCH  24  27
ATOM     27  C   UNL     1       2.491  -1.243  -0.018  0.00  0.00    -0.009 C 
BRANCH  27  31
ATOM     28  C   UNL     1      -1.470  -0.112  -1.148  0.00  0.00    +0.000 A 
ATOM     29  C   UNL     1      -0.569   0.850  -0.733  0.00  0.00    +0.000 A 
ATOM     30  C   UNL     1       0.713   0.484  -0.367  0.00  0.00    +0.002 A 
ATOM     31  C   UNL     1       1.093  -0.844  -0.416  0.00  0.00    -0.057 A 
ATOM     32  C   UNL     1       0.191  -1.806  -0.831  0.00  0.00    +0.002 A 
ATOM     33  C   UNL     1      -1.090  -1.440  -1.198  0.00  0.00    +0.000 A 
ENDBRANCH  27  31
BRANCH  27  34
ATOM     34  C   UNL     1       2.478  -1.783   1.389  0.00  0.00    -0.057 A 
ATOM     35  C   UNL     1       2.081  -3.086   1.626  0.00  0.00    +0.002 A 
ATOM     36  C   UNL     1       2.069  -3.581   2.917  0.00  0.00    +0.000 A 
ATOM     37  C   UNL     1       2.454  -2.773   3.970  0.00  0.00    +0.000 A 
ATOM     38  C   UNL     1       2.852  -1.470   3.733  0.00  0.00    +0.000 A 
ATOM     39  C   UNL     1       2.868  -0.977   2.442  0.00  0.00    +0.002 A 
ENDBRANCH  27  34
ENDBRANCH  24  27
ENDBRANCH   1  24
TORSDOF 7
