REMARK  Name = ZINC63463103
REMARK  4 active torsions:
REMARK  status: ('A' for Active; 'I' for Inactive)
REMARK    1  A    between atoms: N_21  and  N_22
REMARK    2  A    between atoms: N_22  and  C_23
REMARK    3  A    between atoms: C_23  and  N_25
REMARK    4  A    between atoms: N_25  and  C_26
REMARK                            x       y       z     vdW  Elec       q    Type
REMARK                         _______ _______ _______ _____ _____    ______ ____
ROOT
ATOM      1  C   UNL     1      -0.017   1.378   0.010  0.00  0.00    +0.000 A 
ATOM      2  C   UNL     1       1.166   2.099   0.002  0.00  0.00    +0.001 A 
ATOM      3  C   UNL     1       2.375   1.436  -0.007  0.00  0.00    +0.010 A 
ATOM      4  C   UNL     1       2.399   0.038  -0.012  0.00  0.00    -0.002 A 
ATOM      5  C   UNL     1       1.204  -0.689  -0.014  0.00  0.00    -0.038 A 
ATOM      6  C   UNL     1       0.002  -0.004   0.002  0.00  0.00    +0.004 A 
ATOM      7  C   UNL     1       1.184  -2.192  -0.049  0.00  0.00    +0.043 C 
ATOM      8  C   UNL     1       2.511  -2.791   0.405  0.00  0.00    -0.009 C 
ATOM      9  C   UNL     1       2.510  -4.311   0.162  0.00  0.00    +0.008 C 
ATOM     10  C   UNL     1       3.274  -4.891   1.379  0.00  0.00    +0.001 C 
ATOM     11  C   UNL     1       2.797  -3.988   2.544  0.00  0.00    +0.001 C 
ATOM     12  C   UNL     1       2.696  -2.581   1.916  0.00  0.00    +0.008 C 
ATOM     13  C   UNL     1       3.663  -2.145  -0.358  0.00  0.00    +0.131 C 
ATOM     14  C   UNL     1       3.684  -0.678  -0.007  0.00  0.00    +0.038 C 
ATOM     15  N   UNL     1       4.795  -0.072   0.296  0.00  0.00    -0.331 N 
ATOM     16  C   UNL     1       5.954  -0.734   0.424  0.00  0.00    +0.202 C 
ATOM     17  N   UNL     1       6.030  -2.050   0.308  0.00  0.00    -0.147 NA
ATOM     18  C   UNL     1       4.979  -2.774  -0.021  0.00  0.00    +0.248 C 
ATOM     19  O   UNL     1       5.089  -3.984  -0.056  0.00  0.00    -0.273 OA
ATOM     20  N   UNL     1       7.095  -0.025   0.683  0.00  0.00    -0.237 N 
ATOM     21  H   UNL     1       4.785   0.888   0.433  0.00  0.00    +0.168 HD
ATOM     22  H   UNL     1       7.057   0.940   0.771  0.00  0.00    +0.173 HD
ENDROOT
BRANCH  20  23
ATOM     23  N   UNL     1       8.318  -0.694   0.822  0.00  0.00    -0.246 N 
ATOM     24  H   UNL     1       8.356  -1.659   0.734  0.00  0.00    +0.172 HD
BRANCH  23  25
ATOM     25  C   UNL     1       9.443   0.004   1.077  0.00  0.00    +0.147 C 
ATOM     26  S   UNL     1      10.938  -0.814   1.246  0.00  0.00    -0.017 S 
BRANCH  25  27
ATOM     27  N   UNL     1       9.390   1.345   1.199  0.00  0.00    -0.323 N 
ATOM     28  H   UNL     1       8.543   1.808   1.103  0.00  0.00    +0.148 HD
BRANCH  27  29
ATOM     29  C   UNL     1      10.613   2.104   1.476  0.00  0.00    +0.072 C 
ATOM     30  C   UNL     1      10.869   2.123   2.985  0.00  0.00    +0.022 C 
ATOM     31  C   UNL     1      12.146   2.916   3.274  0.00  0.00    +0.002 C 
ATOM     32  C   UNL     1      11.983   4.349   2.766  0.00  0.00    +0.000 C 
ATOM     33  C   UNL     1      11.726   4.330   1.258  0.00  0.00    +0.002 C 
ATOM     34  C   UNL     1      10.449   3.537   0.968  0.00  0.00    +0.022 C 
ENDBRANCH  27  29
ENDBRANCH  25  27
ENDBRANCH  23  25
ENDBRANCH  20  23
TORSDOF 4
