REMARK  Name = ZINC39560958
REMARK  8 active torsions:
REMARK  status: ('A' for Active; 'I' for Inactive)
REMARK    1  A    between atoms: C_1  and  C_2
REMARK    2  A    between atoms: C_2  and  C_4
REMARK    3  A    between atoms: C_2  and  N_11
REMARK    4  A    between atoms: C_12  and  C_14
REMARK    5  A    between atoms: C_14  and  O_15
REMARK    6  A    between atoms: O_15  and  C_16
REMARK    7  A    between atoms: C_16  and  C_18
REMARK    8  A    between atoms: C_20  and  N_26
REMARK                            x       y       z     vdW  Elec       q    Type
REMARK                         _______ _______ _______ _____ _____    ______ ____
ROOT
ATOM      1  O   UNL     1       4.146  -1.103  -2.220  0.00  0.00    -0.451 OA
ENDROOT
BRANCH   1   2
ATOM      2  C   UNL     1       4.926  -1.518  -3.237  0.00  0.00    +0.360 C 
ATOM      3  O   UNL     1       4.424  -1.845  -4.293  0.00  0.00    -0.243 OA
BRANCH   2   4
ATOM      4  C   UNL     1       6.394  -1.575  -3.066  0.00  0.00    +0.169 A 
ATOM      5  C   UNL     1       7.195  -1.999  -4.123  0.00  0.00    +0.095 A 
ATOM      6  C   UNL     1       8.579  -2.047  -3.946  0.00  0.00    +0.067 A 
ATOM      7  C   UNL     1       9.101  -1.666  -2.712  0.00  0.00    +0.100 A 
ATOM      8  C   UNL     1       8.238  -1.255  -1.708  0.00  0.00    +0.150 A 
ATOM      9  N   UNL     1       6.937  -1.216  -1.907  0.00  0.00    -0.226 NA
ATOM     10 CL   UNL     1       8.882  -0.779  -0.168  0.00  0.00    -0.060 Cl
ATOM     11 CL   UNL     1      10.814  -1.705  -2.434  0.00  0.00    -0.078 Cl
ATOM     12 CL   UNL     1       6.484  -2.461  -5.638  0.00  0.00    -0.079 Cl
BRANCH   6  13
ATOM     13  N   UNL     1       9.417  -2.465  -4.978  0.00  0.00    -0.356 N 
ATOM     14  H   UNL     1       9.040  -2.728  -5.832  0.00  0.00    +0.142 HD
ATOM     15  H   UNL     1      10.377  -2.494  -4.841  0.00  0.00    +0.142 HD
ENDBRANCH   6  13
ENDBRANCH   2   4
ENDBRANCH   1   2
BRANCH   1  16
ATOM     16  C   UNL     1       2.736  -1.073  -2.455  0.00  0.00    +0.328 C 
BRANCH  16  18
ATOM     17  N   UNL     1       0.688  -0.476  -1.203  0.00  0.00    -0.306 N 
ATOM     18  C   UNL     1       2.031  -0.587  -1.215  0.00  0.00    +0.251 C 
ATOM     19  O   UNL     1       2.672  -0.295  -0.228  0.00  0.00    -0.272 OA
ATOM     20  H   UNL     1       0.175  -0.710  -1.993  0.00  0.00    +0.149 HD
BRANCH  17  22
ATOM     21  C   UNL     1      -0.019   1.526   0.010  0.00  0.00    +0.033 C 
ATOM     22  C   UNL     1       0.002  -0.004   0.002  0.00  0.00    +0.100 C 
BRANCH  22  23
ATOM     23  C   UNL     1      -1.412  -0.526   0.013  0.00  0.00    -0.027 A 
ATOM     24  C   UNL     1      -2.141  -0.569  -1.161  0.00  0.00    +0.006 A 
ATOM     25  C   UNL     1      -3.438  -1.048  -1.151  0.00  0.00    +0.015 A 
ATOM     26  C   UNL     1      -4.005  -1.484   0.032  0.00  0.00    +0.018 A 
ATOM     27  C   UNL     1      -3.275  -1.440   1.206  0.00  0.00    +0.015 A 
ATOM     28  C   UNL     1      -1.977  -0.966   1.195  0.00  0.00    +0.006 A 
ATOM     29 BR   UNL     1      -5.779  -2.138   0.046  0.00  0.00    -0.050 Br
ENDBRANCH  22  23
ENDBRANCH  17  22
ENDBRANCH  16  18
ENDBRANCH   1  16
TORSDOF 7
