REMARK  Name = ZINC58367200
REMARK  9 active torsions:
REMARK  status: ('A' for Active; 'I' for Inactive)
REMARK    1  A    between atoms: C_1  and  C_2
REMARK    2  A    between atoms: C_5  and  N_8
REMARK    3  A    between atoms: N_8  and  C_9
REMARK    4  A    between atoms: N_12  and  C_15
REMARK    5  A    between atoms: C_15  and  C_17
REMARK    6  A    between atoms: C_15  and  C_18
REMARK    7  A    between atoms: N_23  and  C_24
REMARK    8  A    between atoms: C_24  and  C_25
REMARK    9  A    between atoms: C_24  and  C_26
REMARK                            x       y       z     vdW  Elec       q    Type
REMARK                         _______ _______ _______ _____ _____    ______ ____
ROOT
ATOM      1  C   UNL     1      -0.838  -4.555   2.421  0.00  0.00    +0.067 C 
ATOM      2  C   UNL     1       0.677  -4.715   2.264  0.00  0.00    +0.003 C 
ATOM      3  C   UNL     1       1.182  -5.748   3.273  0.00  0.00    -0.076 C 
ATOM      4  N   UNL     1       0.525  -7.038   3.029  0.00  0.00    +0.387 N 
ATOM      5  C   UNL     1      -0.921  -6.909   3.247  0.00  0.00    -0.076 C 
ATOM      6  C   UNL     1      -1.507  -5.920   2.237  0.00  0.00    +0.003 C 
ATOM      7  H   UNL     1       0.696  -7.326   2.077  0.00  0.00    -0.081 HD
ENDROOT
BRANCH   1   8
ATOM      8  N   UNL     1      -1.340  -3.623   1.408  0.00  0.00    -0.341 N 
ATOM      9  H   UNL     1      -1.690  -3.962   0.569  0.00  0.00    +0.146 HD
BRANCH   8  14
ATOM     10  C   UNL     1      -1.234   1.961   2.390  0.00  0.00    +0.044 C 
ATOM     11  C   UNL     1      -1.262   0.477   2.129  0.00  0.00    -0.050 A 
ATOM     12  C   UNL     1      -1.762  -0.004   0.933  0.00  0.00    +0.005 A 
ATOM     13  C   UNL     1      -1.788  -1.363   0.690  0.00  0.00    +0.023 A 
ATOM     14  C   UNL     1      -1.313  -2.248   1.650  0.00  0.00    +0.027 A 
ATOM     15  C   UNL     1      -0.812  -1.762   2.850  0.00  0.00    +0.023 A 
ATOM     16  C   UNL     1      -0.783  -0.401   3.084  0.00  0.00    +0.005 A 
ENDBRANCH   8  14
ENDBRANCH   1   8
BRANCH   4  17
ATOM     17  C   UNL     1       1.070  -8.046   3.948  0.00  0.00    +0.017 C 
ATOM     18  C   UNL     1       2.574  -8.192   3.710  0.00  0.00    -0.004 C 
BRANCH  17  19
ATOM     19  C   UNL     1       0.391  -9.369   3.702  0.00  0.00    +0.207 C 
ATOM     20  O   UNL     1      -0.037  -9.635   2.600  0.00  0.00    -0.277 OA
ATOM     21  N   UNL     1       0.261 -10.256   4.708  0.00  0.00    -0.242 N 
ATOM     22  C   UNL     1      -0.346 -11.439   4.489  0.00  0.00    +0.306 C 
ATOM     23  O   UNL     1      -0.776 -11.706   3.384  0.00  0.00    -0.252 OA
ATOM     24  N   UNL     1      -0.477 -12.327   5.495  0.00  0.00    -0.297 N 
ATOM     25  H   UNL     1       0.604 -10.043   5.590  0.00  0.00    +0.159 HD
ATOM     26  H   UNL     1      -0.134 -12.114   6.377  0.00  0.00    +0.151 HD
BRANCH  24  27
ATOM     27  C   UNL     1      -1.136 -13.613   5.256  0.00  0.00    +0.068 C 
ATOM     28  C   UNL     1      -0.636 -14.639   6.274  0.00  0.00    +0.027 C 
ATOM     29  C   UNL     1      -2.650 -13.445   5.404  0.00  0.00    +0.027 C 
ENDBRANCH  24  27
ENDBRANCH  17  19
ENDBRANCH   4  17
TORSDOF 5
