REMARK  Name = ZINC38582307
REMARK  10 active torsions:
REMARK  status: ('A' for Active; 'I' for Inactive)
REMARK    1  A    between atoms: C_1  and  C_2
REMARK    2  A    between atoms: C_2  and  C_3
REMARK    3  A    between atoms: C_3  and  C_4
REMARK    4  A    between atoms: C_4  and  N_5
REMARK    5  A    between atoms: N_8  and  C_9
REMARK    6  A    between atoms: N_8  and  O_29
REMARK    7  A    between atoms: C_11  and  C_27
REMARK    8  A    between atoms: C_11  and  C_28
REMARK    9  A    between atoms: N_15  and  N_16
REMARK   10  A    between atoms: C_17  and  C_18
REMARK                            x       y       z     vdW  Elec       q    Type
REMARK                         _______ _______ _______ _____ _____    ______ ____
ROOT
ATOM      1  C   UNL     1       2.450  -5.993  -4.030  0.00  0.00    +0.232 C 
ATOM      2  C   UNL     1       2.636  -6.100  -5.567  0.00  0.00    +0.056 C 
ATOM      3  S   UNL     1       0.922  -6.597  -6.027  0.00  0.00    -0.091 S 
ATOM      4  C   UNL     1       0.408  -7.234  -4.440  0.00  0.00    +0.132 C 
ATOM      5  S   UNL     1      -0.989  -8.162  -4.096  0.00  0.00    -0.026 S 
ATOM      6  N   UNL     1       1.353  -6.827  -3.574  0.00  0.00    -0.187 N 
ATOM      7  C   UNL     1       3.013  -4.751  -6.182  0.00  0.00    +0.026 C 
ATOM      8  C   UNL     1       3.652  -7.183  -5.935  0.00  0.00    +0.026 C 
ENDROOT
BRANCH   1  12
ATOM      9  N   UNL     1       2.636  -2.716  -2.377  0.00  0.00    -0.298 N 
ATOM     10  C   UNL     1       2.815  -4.026  -2.640  0.00  0.00    +0.327 C 
ATOM     11  O   UNL     1       3.557  -4.690  -1.942  0.00  0.00    -0.250 OA
ATOM     12  N   UNL     1       2.172  -4.599  -3.677  0.00  0.00    -0.144 N 
ATOM     13  H   UNL     1       2.044  -2.186  -2.934  0.00  0.00    +0.150 HD
BRANCH  12  14
ATOM     14  O   UNL     1       1.228  -3.854  -4.424  0.00  0.00    -0.289 OA
ATOM     15  H   UNL     1       0.760  -4.371  -5.093  0.00  0.00    +0.242 HD
ENDBRANCH  12  14
BRANCH   9  16
ATOM     16  C   UNL     1       3.334  -2.093  -1.250  0.00  0.00    +0.106 C 
BRANCH  16  17
ATOM     17  C   UNL     1       2.959  -0.612  -1.173  0.00  0.00    +0.018 C 
BRANCH  17  19
ATOM     18  C   UNL     1       3.313   1.520   0.081  0.00  0.00    +0.004 C 
ATOM     19  C   UNL     1       3.688   0.039   0.004  0.00  0.00    -0.002 C 
ENDBRANCH  17  19
ENDBRANCH  16  17
ENDBRANCH   9  16
ENDBRANCH   1  12
BRANCH   6  20
ATOM     20  N   UNL     1       1.278  -7.211  -2.228  0.00  0.00    -0.185 NA
ATOM     21  C   UNL     1       2.244  -7.915  -1.692  0.00  0.00    +0.136 C 
BRANCH  21  22
ATOM     22  C   UNL     1       2.123  -8.385  -0.379  0.00  0.00    +0.000 C 
ATOM     23  C   UNL     1       3.053  -9.137   0.337  0.00  0.00    +0.004 A 
ATOM     24  C   UNL     1       4.331  -9.639   0.006  0.00  0.00    +0.010 A 
ATOM     25  C   UNL     1       5.030 -10.357   0.922  0.00  0.00    +0.001 A 
ATOM     26  C   UNL     1       4.516 -10.616   2.196  0.00  0.00    +0.002 A 
ATOM     27  C   UNL     1       3.298 -10.166   2.581  0.00  0.00    +0.026 A 
ATOM     28  C   UNL     1       2.508  -9.407   1.678  0.00  0.00    +0.043 A 
ATOM     29  N   UNL     1       1.314  -8.865   1.807  0.00  0.00    -0.380 N 
ATOM     30  C   UNL     1       0.957  -8.177   0.563  0.00  0.00    +0.150 C 
ATOM     31  H   UNL     1       0.760  -8.911   2.602  0.00  0.00    +0.160 HD
ENDBRANCH  21  22
ENDBRANCH   6  20
TORSDOF 7
