REMARK  Name = ZINC21263918
REMARK  14 active torsions:
REMARK  status: ('A' for Active; 'I' for Inactive)
REMARK    1  A    between atoms: C_1  and  C_2
REMARK    2  A    between atoms: C_2  and  C_30
REMARK    3  A    between atoms: C_4  and  N_10
REMARK    4  A    between atoms: C_6  and  C_8
REMARK    5  A    between atoms: C_6  and  C_9
REMARK    6  A    between atoms: N_10  and  C_11
REMARK    7  A    between atoms: C_11  and  N_13
REMARK    8  A    between atoms: N_13  and  C_14
REMARK    9  A    between atoms: N_13  and  C_20
REMARK   10  A    between atoms: C_14  and  C_15
REMARK   11  A    between atoms: C_22  and  C_28
REMARK   12  A    between atoms: C_22  and  C_29
REMARK   13  A    between atoms: C_24  and  C_26
REMARK   14  A    between atoms: C_24  and  C_27
REMARK                            x       y       z     vdW  Elec       q    Type
REMARK                         _______ _______ _______ _____ _____    ______ ____
ROOT
ATOM      1  N   UNL     1      -0.052   7.024  -2.361  0.00  0.00    -0.305 N 
ENDROOT
BRANCH   1   2
ATOM      2  C   UNL     1       0.243   7.731  -1.109  0.00  0.00    +0.073 C 
ATOM      3  C   UNL     1      -1.026   8.424  -0.612  0.00  0.00    +0.009 C 
ATOM      4  C   UNL     1      -0.743   9.186   0.681  0.00  0.00    -0.072 C 
ATOM      5  N   UNL     1       0.429  10.032   0.593  0.00  0.00    +0.386 N 
ATOM      6  C   UNL     1       1.618   9.564  -0.088  0.00  0.00    -0.072 C 
ATOM      7  C   UNL     1       1.308   8.796  -1.370  0.00  0.00    +0.009 C 
ATOM      8  C   UNL     1       2.478   8.693   0.836  0.00  0.00    -0.010 C 
ATOM      9  C   UNL     1       2.467  10.795  -0.476  0.00  0.00    -0.010 C 
ATOM     10  C   UNL     1      -0.625   8.194   1.844  0.00  0.00    -0.010 C 
ATOM     11  C   UNL     1      -1.967  10.084   0.968  0.00  0.00    -0.010 C 
ATOM     12  H   UNL     1       0.171  10.961   0.063  0.00  0.00    -0.084 HD
ATOM     13  H   UNL     1       0.783  10.274   1.606  0.00  0.00    -0.084 HD
ENDBRANCH   1   2
BRANCH   1  14
ATOM     14  C   UNL     1       0.047   5.681  -2.417  0.00  0.00    +0.134 C 
ATOM     15  S   UNL     1      -0.157   4.868  -3.909  0.00  0.00    -0.019 S 
BRANCH  14  16
ATOM     16  N   UNL     1       0.307   4.978  -1.296  0.00  0.00    -0.324 N 
ATOM     17  H   UNL     1       0.519   5.504  -0.354  0.00  0.00    +0.148 HD
BRANCH  16  21
ATOM     18  C   UNL     1      -1.013   0.971  -2.567  0.00  0.00    -0.010 C 
ATOM     19  C   UNL     1      -1.146   1.475  -1.125  0.00  0.00    -0.072 C 
ATOM     20  C   UNL     1      -1.119   3.002  -1.114  0.00  0.00    +0.009 C 
ATOM     21  C   UNL     1       0.306   3.510  -1.334  0.00  0.00    +0.069 C 
ATOM     22  C   UNL     1       1.191   2.977  -0.208  0.00  0.00    +0.009 C 
ATOM     23  C   UNL     1       1.193   1.450  -0.211  0.00  0.00    -0.072 C 
ATOM     24  N   UNL     1      -0.139   0.885  -0.269  0.00  0.00    +0.386 N 
ATOM     25  C   UNL     1       1.859   0.983   1.102  0.00  0.00    -0.010 C 
ATOM     26  C   UNL     1       2.062   0.941  -1.367  0.00  0.00    -0.010 C 
ATOM     27  C   UNL     1      -2.535   1.032  -0.613  0.00  0.00    -0.010 C 
ATOM     28  H   UNL     1      -0.482   0.913   0.775  0.00  0.00    -0.084 HD
ATOM     29  H   UNL     1       0.032  -0.159  -0.571  0.00  0.00    -0.084 HD
ENDBRANCH  16  21
ENDBRANCH  14  16
ENDBRANCH   1  14
BRANCH   1  30
ATOM     30  C   UNL     1      -0.453   7.779  -3.551  0.00  0.00    +0.149 C 
BRANCH  30  31
ATOM     31  C   UNL     1      -1.956   7.799  -3.650  0.00  0.00    +0.007 A 
ATOM     32  C   UNL     1      -2.827   8.748  -3.227  0.00  0.00    +0.013 A 
ATOM     33  C   UNL     1      -4.181   8.552  -3.426  0.00  0.00    +0.008 A 
ATOM     34  C   UNL     1      -4.598   7.418  -4.039  0.00  0.00    +0.045 A 
ATOM     35  S   UNL     1      -3.053   6.583  -4.362  0.00  0.00    -0.100 S 
ENDBRANCH  30  31
ENDBRANCH   1  30
TORSDOF 6
