REMARK  Name = ZINC50107284
REMARK  8 active torsions:
REMARK  status: ('A' for Active; 'I' for Inactive)
REMARK    1  A    between atoms: C_1  and  C_2
REMARK    2  A    between atoms: C_2  and  C_3
REMARK    3  A    between atoms: C_3  and  C_4
REMARK    4  A    between atoms: C_4  and  N_5
REMARK    5  A    between atoms: N_5  and  C_6
REMARK    6  A    between atoms: C_6  and  C_7
REMARK    7  A    between atoms: C_7  and  N_9
REMARK    8  A    between atoms: C_12  and  C_15
REMARK                            x       y       z     vdW  Elec       q    Type
REMARK                         _______ _______ _______ _____ _____    ______ ____
ROOT
ATOM      1  N   UNL     1      -4.409  -5.870   0.013  0.00  0.00    -0.158 NA
ATOM      2  C   UNL     1      -5.661  -6.332   0.022  0.00  0.00    +0.163 A 
ATOM      3  N   UNL     1      -6.081  -7.625   0.025  0.00  0.00    -0.335 N 
ATOM      4  C   UNL     1      -7.423  -7.883   0.035  0.00  0.00    +0.055 A 
ATOM      5  C   UNL     1      -8.249  -6.812   0.042  0.00  0.00    +0.074 A 
ATOM      6  S   UNL     1      -7.094  -5.454   0.041  0.00  0.00    -0.060 S 
ATOM      7  H   UNL     1      -5.439  -8.352   0.019  0.00  0.00    +0.168 HD
ENDROOT
BRANCH   4   8
ATOM      8  C   UNL     1      -7.947  -9.266   0.038  0.00  0.00    -0.001 A 
ATOM      9  C   UNL     1      -7.067 -10.348   0.036  0.00  0.00    +0.011 A 
ATOM     10  C   UNL     1      -7.561 -11.636   0.039  0.00  0.00    +0.016 A 
ATOM     11  C   UNL     1      -8.928 -11.856   0.044  0.00  0.00    +0.018 A 
ATOM     12  C   UNL     1      -9.807 -10.786   0.046  0.00  0.00    +0.016 A 
ATOM     13  C   UNL     1      -9.324  -9.493   0.048  0.00  0.00    +0.011 A 
ATOM     14 BR   UNL     1      -9.598 -13.624   0.048  0.00  0.00    -0.050 Br
ENDBRANCH   4   8
BRANCH   1  15
ATOM     15  C   UNL     1      -4.185  -4.562   0.018  0.00  0.00    +0.221 C 
ATOM     16  O   UNL     1      -5.120  -3.785   0.031  0.00  0.00    -0.276 OA
BRANCH  15  17
ATOM     17  C   UNL     1      -2.771  -4.041   0.007  0.00  0.00    +0.017 C 
BRANCH  17  18
ATOM     18  N   UNL     1      -2.791  -2.572   0.015  0.00  0.00    +0.385 N 
ATOM     19  H   UNL     1      -3.263  -2.247   0.845  0.00  0.00    -0.085 HD
ATOM     20  H   UNL     1      -3.279  -2.238  -0.802  0.00  0.00    -0.085 HD
BRANCH  18  21
ATOM     21  C   UNL     1      -1.413  -2.063   0.004  0.00  0.00    -0.082 C 
BRANCH  21  22
ATOM     22  C   UNL     1      -1.433  -0.534   0.013  0.00  0.00    -0.019 C 
BRANCH  22  24
ATOM     23  C   UNL     1      -0.019   1.526   0.010  0.00  0.00    +0.004 C 
ATOM     24  C   UNL     1       0.002  -0.004   0.002  0.00  0.00    -0.005 C 
ENDBRANCH  22  24
ENDBRANCH  21  22
ENDBRANCH  18  21
ENDBRANCH  17  18
ENDBRANCH  15  17
ENDBRANCH   1  15
TORSDOF 7
