REMARK  Name = ZINC66402428
REMARK  7 active torsions:
REMARK  status: ('A' for Active; 'I' for Inactive)
REMARK    1  A    between atoms: C_1  and  C_2
REMARK    2  A    between atoms: C_5  and  C_28
REMARK    3  A    between atoms: N_8  and  C_10
REMARK    4  A    between atoms: C_10  and  C_11
REMARK    5  A    between atoms: C_11  and  N_12
REMARK    6  A    between atoms: N_15  and  C_16
REMARK    7  A    between atoms: C_18  and  C_24
REMARK                            x       y       z     vdW  Elec       q    Type
REMARK                         _______ _______ _______ _____ _____    ______ ____
ROOT
ATOM      1  N   UNL     1       2.703  -0.326   4.913  0.00  0.00    -0.301 N 
ATOM      2  C   UNL     1       2.292   0.117   6.117  0.00  0.00    +0.304 C 
ATOM      3  O   UNL     1       1.258   0.750   6.212  0.00  0.00    -0.253 OA
ATOM      4  N   UNL     1       3.026  -0.142   7.217  0.00  0.00    -0.265 N 
ATOM      5  H   UNL     1       3.528  -0.831   4.837  0.00  0.00    +0.150 HD
ATOM      6  H   UNL     1       3.811  -0.709   7.154  0.00  0.00    +0.157 HD
ENDROOT
BRANCH   4   7
ATOM      7  C   UNL     1       2.656   0.407   8.453  0.00  0.00    +0.100 A 
ATOM      8  C   UNL     1       2.389  -0.406   9.520  0.00  0.00    +0.042 A 
ATOM      9  C   UNL     1       2.022   0.170  10.745  0.00  0.00    +0.073 A 
ATOM     10  C   UNL     1       1.935   1.515  10.861  0.00  0.00    +0.098 A 
ATOM     11  N   UNL     1       2.199   2.325   9.802  0.00  0.00    -0.327 N 
ATOM     12  H   UNL     1       2.131   3.287   9.905  0.00  0.00    +0.168 HD
ATOM     13  C   UNL     1       2.561   1.807   8.612  0.00  0.00    +0.270 A 
ATOM     14  O   UNL     1       2.801   2.547   7.671  0.00  0.00    -0.266 OA
BRANCH   9  15
ATOM     15  C   UNL     1       1.724  -0.710  11.931  0.00  0.00    +0.419 C 
ATOM     16  F   UNL     1       1.383   0.088  13.029  0.00  0.00    -0.166 F 
ATOM     17  F   UNL     1       0.657  -1.561  11.624  0.00  0.00    -0.166 F 
ATOM     18  F   UNL     1       2.854  -1.473  12.242  0.00  0.00    -0.166 F 
ENDBRANCH   9  15
ENDBRANCH   4   7
BRANCH   1  19
ATOM     19  C   UNL     1       1.905  -0.044   3.717  0.00  0.00    +0.087 C 
BRANCH  19  20
ATOM     20  C   UNL     1       2.589  -0.653   2.492  0.00  0.00    -0.060 C 
BRANCH  20  26
ATOM     21  C   UNL     1      -0.599   0.819   0.151  0.00  0.00    +0.005 C 
ATOM     22  C   UNL     1      -0.378  -0.694   0.194  0.00  0.00    -0.031 C 
ATOM     23  C   UNL     1       0.330  -1.144  -1.088  0.00  0.00    +0.003 C 
ATOM     24  C   UNL     1       1.712  -0.487  -1.153  0.00  0.00    -0.031 C 
ATOM     25  C   UNL     1       2.503  -0.851   0.104  0.00  0.00    -0.076 C 
ATOM     26  N   UNL     1       1.788  -0.371   1.293  0.00  0.00    +0.381 N 
ATOM     27  C   UNL     1       0.490  -1.050   1.402  0.00  0.00    -0.076 C 
ATOM     28  C   UNL     1       2.458  -0.990  -2.391  0.00  0.00    +0.005 C 
ATOM     29  H   UNL     1       1.640   0.624   1.216  0.00  0.00    -0.082 HD
ENDBRANCH  20  26
ENDBRANCH  19  20
ENDBRANCH   1  19
TORSDOF 5
