REMARK  Name = ZINC65381367
REMARK  8 active torsions:
REMARK  status: ('A' for Active; 'I' for Inactive)
REMARK    1  A    between atoms: C_1  and  C_2
REMARK    2  A    between atoms: C_2  and  N_3
REMARK    3  A    between atoms: C_7  and  C_8
REMARK    4  A    between atoms: C_8  and  C_9
REMARK    5  A    between atoms: C_9  and  N_10
REMARK    6  A    between atoms: C_19  and  C_21
REMARK    7  A    between atoms: C_21  and  C_22
REMARK    8  A    between atoms: C_22  and  N_23
REMARK                            x       y       z     vdW  Elec       q    Type
REMARK                         _______ _______ _______ _____ _____    ______ ____
ROOT
ATOM      1  N   UNL     1       4.384  -1.370   1.474  0.00  0.00    -0.328 N 
ATOM      2  C   UNL     1       4.784  -2.370   2.335  0.00  0.00    +0.130 A 
ATOM      3  C   UNL     1       5.783  -2.134   3.311  0.00  0.00    +0.040 A 
ATOM      4  C   UNL     1       6.407  -0.890   3.451  0.00  0.00    +0.013 A 
ATOM      5  C   UNL     1       7.362  -0.722   4.410  0.00  0.00    +0.001 A 
ATOM      6  C   UNL     1       7.724  -1.771   5.250  0.00  0.00    +0.002 A 
ATOM      7  C   UNL     1       7.135  -2.995   5.139  0.00  0.00    +0.028 A 
ATOM      8  C   UNL     1       6.149  -3.203   4.165  0.00  0.00    +0.076 A 
ATOM      9  N   UNL     1       5.538  -4.388   4.013  0.00  0.00    -0.232 NA
ATOM     10  C   UNL     1       4.620  -4.549   3.091  0.00  0.00    +0.130 A 
ATOM     11  N   UNL     1       4.240  -3.579   2.274  0.00  0.00    -0.217 NA
ATOM     12  H   UNL     1       4.791  -0.491   1.530  0.00  0.00    +0.147 HD
ENDROOT
BRANCH   1  13
ATOM     13  C   UNL     1       3.345  -1.635   0.476  0.00  0.00    +0.110 C 
BRANCH  13  14
ATOM     14  C   UNL     1       3.091  -0.368  -0.344  0.00  0.00    +0.095 C 
BRANCH  14  19
ATOM     15  N   UNL     1       0.688  -0.476  -1.203  0.00  0.00    -0.318 N 
ATOM     16  C   UNL     1       0.117  -0.833  -2.379  0.00  0.00    +0.225 A 
ATOM     17  N   UNL     1       1.079  -1.191  -3.185  0.00  0.00    -0.138 NA
ATOM     18  N   UNL     1       2.210  -1.080  -2.585  0.00  0.00    -0.135 NA
ATOM     19  C   UNL     1       2.022  -0.640  -1.371  0.00  0.00    +0.135 A 
BRANCH  15  21
ATOM     20  C   UNL     1      -0.019   1.526   0.010  0.00  0.00    +0.027 C 
ATOM     21  C   UNL     1       0.002  -0.004   0.002  0.00  0.00    +0.121 C 
ENDBRANCH  15  21
ENDBRANCH  14  19
ENDBRANCH  13  14
ENDBRANCH   1  13
BRANCH  10  22
ATOM     22  C   UNL     1       3.962  -5.898   2.960  0.00  0.00    +0.057 C 
BRANCH  22  23
ATOM     23  C   UNL     1       2.723  -5.951   3.857  0.00  0.00    -0.079 C 
BRANCH  23  24
ATOM     24  N   UNL     1       2.082  -7.266   3.728  0.00  0.00    +0.378 N 
ATOM     25  H   UNL     1       1.808  -7.415   2.768  0.00  0.00    -0.090 HD
ATOM     26  H   UNL     1       2.731  -7.986   4.009  0.00  0.00    -0.090 HD
ATOM     27  H   UNL     1       1.265  -7.301   4.320  0.00  0.00    -0.090 HD
ENDBRANCH  23  24
ENDBRANCH  22  23
ENDBRANCH  10  22
TORSDOF 7
