REMARK  Name = ZINC24375745
REMARK  9 active torsions:
REMARK  status: ('A' for Active; 'I' for Inactive)
REMARK    1  A    between atoms: C_1  and  C_2
REMARK    2  A    between atoms: C_5  and  N_8
REMARK    3  A    between atoms: C_12  and  C_14
REMARK    4  A    between atoms: C_14  and  N_15
REMARK    5  A    between atoms: N_15  and  C_16
REMARK    6  A    between atoms: N_15  and  C_17
REMARK    7  A    between atoms: C_17  and  C_18
REMARK    8  A    between atoms: N_20  and  C_21
REMARK    9  A    between atoms: C_26  and  C_27
REMARK                            x       y       z     vdW  Elec       q    Type
REMARK                         _______ _______ _______ _____ _____    ______ ____
ROOT
ATOM      1  C   UNL     1       4.913   1.288   0.180  0.00  0.00    +0.019 C 
ENDROOT
BRANCH   1   6
ATOM      2  N   UNL     1       0.112   1.192  -0.057  0.00  0.00    -0.269 N 
ATOM      3  C   UNL     1       1.255   1.906  -0.046  0.00  0.00    +0.310 C 
ATOM      4  O   UNL     1       1.214   3.118  -0.128  0.00  0.00    -0.252 OA
ATOM      5  N   UNL     1       2.442   1.277   0.056  0.00  0.00    -0.241 N 
ATOM      6  C   UNL     1       3.585   1.992   0.066  0.00  0.00    +0.204 C 
ATOM      7  O   UNL     1       3.545   3.200  -0.015  0.00  0.00    -0.277 OA
ATOM      8  H   UNL     1       0.151   0.092  -0.054  0.00  0.00    +0.156 HD
ATOM      9  H   UNL     1       2.479   0.180   0.130  0.00  0.00    +0.159 HD
BRANCH   2  14
ATOM     10  C   UNL     1      -4.898   3.852  -0.121  0.00  0.00    +0.044 C 
ATOM     11  C   UNL     1      -3.567   3.145  -0.103  0.00  0.00    -0.050 A 
ATOM     12  C   UNL     1      -2.490   3.686  -0.781  0.00  0.00    +0.005 A 
ATOM     13  C   UNL     1      -1.269   3.041  -0.768  0.00  0.00    +0.023 A 
ATOM     14  C   UNL     1      -1.124   1.848  -0.072  0.00  0.00    +0.035 A 
ATOM     15  C   UNL     1      -2.208   1.305   0.604  0.00  0.00    +0.023 A 
ATOM     16  C   UNL     1      -3.425   1.958   0.591  0.00  0.00    +0.005 A 
ENDBRANCH   2  14
ENDBRANCH   1   6
BRANCH   1  17
ATOM     17  N   UNL     1       5.995   2.280   0.170  0.00  0.00    +0.389 N 
ATOM     18  C   UNL     1       6.072   2.962  -1.129  0.00  0.00    -0.095 C 
ATOM     19  H   UNL     1       5.768   3.037   0.935  0.00  0.00    -0.081 HD
BRANCH  17  20
ATOM     20  C   UNL     1       7.282   1.660   0.515  0.00  0.00    +0.019 C 
BRANCH  20  21
ATOM     21  C   UNL     1       8.315   2.735   0.734  0.00  0.00    +0.201 C 
ATOM     22  O   UNL     1       8.010   3.903   0.615  0.00  0.00    -0.278 OA
ATOM     23  N   UNL     1       9.578   2.399   1.063  0.00  0.00    -0.287 N 
ATOM     24  H   UNL     1       9.874   1.340   1.098  0.00  0.00    +0.155 HD
BRANCH  23  25
ATOM     25  C   UNL     1      10.513   3.397   1.361  0.00  0.00    +0.036 A 
ATOM     26  C   UNL     1      10.469   4.613   0.691  0.00  0.00    +0.024 A 
ATOM     27  C   UNL     1      11.393   5.596   0.986  0.00  0.00    +0.017 A 
ATOM     28  C   UNL     1      12.361   5.371   1.949  0.00  0.00    +0.018 A 
ATOM     29  C   UNL     1      12.407   4.160   2.618  0.00  0.00    +0.020 A 
ATOM     30  C   UNL     1      11.482   3.176   2.330  0.00  0.00    -0.028 A 
ATOM     31  C   UNL     1      11.528   1.860   3.063  0.00  0.00    +0.046 C 
ATOM     32 BR   UNL     1      13.624   6.720   2.351  0.00  0.00    -0.050 Br
ENDBRANCH  23  25
ENDBRANCH  20  21
ENDBRANCH  17  20
ENDBRANCH   1  17
TORSDOF 6
