REMARK  Name = ZINC04083684
REMARK  14 active torsions:
REMARK  status: ('A' for Active; 'I' for Inactive)
REMARK    1  A    between atoms: C_1  and  C_2
REMARK    2  A    between atoms: C_2  and  C_3
REMARK    3  A    between atoms: C_2  and  C_4
REMARK    4  A    between atoms: C_4  and  C_5
REMARK    5  A    between atoms: C_5  and  C_7
REMARK    6  A    between atoms: C_5  and  N_69
REMARK    7  A    between atoms: C_12  and  C_15
REMARK    8  A    between atoms: N_17  and  C_18
REMARK    9  A    between atoms: C_18  and  C_20
REMARK   10  A    between atoms: C_18  and  C_21
REMARK   11  A    between atoms: N_23  and  C_24
REMARK   12  A    between atoms: C_27  and  C_30
REMARK   13  A    between atoms: C_30  and  C_31
REMARK   14  A    between atoms: C_30  and  C_32
REMARK                            x       y       z     vdW  Elec       q    Type
REMARK                         _______ _______ _______ _____ _____    ______ ____
ROOT
ATOM      1  C   UNL     1       4.897  -5.301  -0.123  0.00  0.00    +0.217 C 
ATOM      2  O   UNL     1       3.929  -6.020  -0.253  0.00  0.00    -0.275 OA
ATOM      3  N   UNL     1       4.744  -4.038   0.320  0.00  0.00    -0.304 N 
ATOM      4  H   UNL     1       5.519  -3.463   0.423  0.00  0.00    +0.149 HD
ENDROOT
BRANCH   1  10
ATOM      5  C   UNL     1       8.743  -7.383  -3.343  0.00  0.00    +0.201 C 
ATOM      6  O   UNL     1       8.675  -8.567  -3.594  0.00  0.00    -0.277 OA
ATOM      7  N   UNL     1       8.222  -6.906  -2.195  0.00  0.00    -0.303 N 
ATOM      8  C   UNL     1       7.568  -7.809  -1.238  0.00  0.00    +0.108 C 
ATOM      9  C   UNL     1       6.166  -7.272  -0.933  0.00  0.00    +0.032 C 
ATOM     10  C   UNL     1       6.271  -5.822  -0.457  0.00  0.00    +0.078 C 
ATOM     11  C   UNL     1       6.886  -4.963  -1.565  0.00  0.00    +0.032 C 
ATOM     12  C   UNL     1       8.297  -5.473  -1.877  0.00  0.00    +0.108 C 
BRANCH   5  13
ATOM     13  C   UNL     1       9.411  -6.444  -4.315  0.00  0.00    +0.013 C 
BRANCH  13  16
ATOM     14  H   UNL     1       9.756  -7.823  -5.803  0.00  0.00    -0.089 HD
ATOM     15  H   UNL     1      10.874  -6.592  -5.755  0.00  0.00    -0.089 HD
ATOM     16  N   UNL     1      10.304  -7.221  -5.191  0.00  0.00    +0.386 N 
ATOM     17  H   UNL     1      10.921  -7.804  -4.613  0.00  0.00    -0.089 HD
ENDBRANCH  13  16
BRANCH  13  18
ATOM     18  C   UNL     1       8.344  -5.724  -5.143  0.00  0.00    -0.004 C 
BRANCH  18  20
ATOM     19  C   UNL     1       7.963  -4.031  -6.940  0.00  0.00    +0.007 C 
ATOM     20  C   UNL     1       9.011  -4.668  -6.026  0.00  0.00    -0.018 C 
ATOM     21  C   UNL     1       9.641  -3.588  -5.143  0.00  0.00    +0.007 C 
ENDBRANCH  18  20
ENDBRANCH  13  18
ENDBRANCH   5  13
ENDBRANCH   1  10
BRANCH   3  22
ATOM     22  C   UNL     1       3.408  -3.532   0.644  0.00  0.00    +0.156 C 
ATOM     23  C   UNL     1       3.049  -3.922   2.079  0.00  0.00    +0.038 C 
BRANCH  22  24
ATOM     24  C   UNL     1       3.394  -2.031   0.513  0.00  0.00    +0.237 C 
ATOM     25  O   UNL     1       4.401  -1.441   0.182  0.00  0.00    -0.273 OA
ATOM     26  N   UNL     1       2.262  -1.343   0.765  0.00  0.00    -0.284 N 
ATOM     27  H   UNL     1       1.478  -1.806   1.099  0.00  0.00    +0.155 HD
BRANCH  26  28
ATOM     28  C   UNL     1       2.219   0.038   0.544  0.00  0.00    +0.033 A 
ATOM     29  C   UNL     1       2.965   0.602  -0.483  0.00  0.00    +0.023 A 
ATOM     30  C   UNL     1       2.920   1.965  -0.699  0.00  0.00    +0.006 A 
ATOM     31  C   UNL     1       2.133   2.769   0.106  0.00  0.00    -0.045 A 
ATOM     32  C   UNL     1       1.389   2.210   1.129  0.00  0.00    +0.006 A 
ATOM     33  C   UNL     1       1.430   0.847   1.351  0.00  0.00    +0.023 A 
BRANCH  31  34
ATOM     34  C   UNL     1       2.086   4.256  -0.132  0.00  0.00    +0.013 C 
ATOM     35  C   UNL     1       0.649   4.677  -0.446  0.00  0.00    +0.012 C 
ATOM     36  C   UNL     1       2.570   4.989   1.121  0.00  0.00    +0.012 C 
ENDBRANCH  31  34
ENDBRANCH  26  28
ENDBRANCH  22  24
ENDBRANCH   3  22
TORSDOF 9
