REMARK  Name = ZINC19715554
REMARK  7 active torsions:
REMARK  status: ('A' for Active; 'I' for Inactive)
REMARK    1  A    between atoms: C_1  and  O_2
REMARK    2  A    between atoms: O_2  and  C_3
REMARK    3  A    between atoms: C_6  and  C_9
REMARK    4  A    between atoms: N_14  and  C_15
REMARK    5  A    between atoms: C_15  and  C_16
REMARK    6  A    between atoms: N_18  and  C_19
REMARK    7  A    between atoms: C_20  and  C_27
REMARK                            x       y       z     vdW  Elec       q    Type
REMARK                         _______ _______ _______ _____ _____    ______ ____
ROOT
ATOM      1  C   UNL     1      -2.500   1.938  -5.450  0.00  0.00    +0.201 C 
ATOM      2  O   UNL     1      -2.925   2.344  -6.511  0.00  0.00    -0.278 OA
ATOM      3  N   UNL     1      -1.618   2.678  -4.749  0.00  0.00    -0.281 N 
ATOM      4  H   UNL     1      -1.233   2.309  -3.787  0.00  0.00    +0.155 HD
ENDROOT
BRANCH   3   5
ATOM      5  C   UNL     1      -1.197   3.904  -5.241  0.00  0.00    +0.084 A 
ATOM      6  C   UNL     1      -0.306   4.799  -4.673  0.00  0.00    +0.068 A 
ATOM      7  C   UNL     1      -0.035   6.038  -5.400  0.00  0.00    -0.023 A 
ATOM      8  C   UNL     1      -0.684   6.167  -6.571  0.00  0.00    -0.004 A 
ATOM      9  S   UNL     1      -1.657   4.688  -6.714  0.00  0.00    -0.077 S 
ATOM     10  C   UNL     1      -0.347   7.460  -7.264  0.00  0.00    +0.043 C 
ATOM     11  C   UNL     1       0.949   7.943  -6.576  0.00  0.00    +0.010 C 
ATOM     12  C   UNL     1       0.836   7.277  -5.190  0.00  0.00    +0.037 C 
BRANCH   6  13
ATOM     13  C   UNL     1       0.337   4.517  -3.385  0.00  0.00    +0.244 C 
ATOM     14  O   UNL     1       1.400   3.926  -3.353  0.00  0.00    -0.270 OA
ATOM     15  N   UNL     1      -0.250   4.912  -2.238  0.00  0.00    -0.325 N 
ATOM     16  H   UNL     1       0.232   4.700  -1.272  0.00  0.00    +0.145 HD
ATOM     17  H   UNL     1      -1.212   5.446  -2.268  0.00  0.00    +0.145 HD
ENDBRANCH   6  13
ENDBRANCH   3   5
BRANCH   1  18
ATOM     18  C   UNL     1      -2.958   0.605  -4.915  0.00  0.00    +0.020 C 
BRANCH  18  23
ATOM     19  C   UNL     1      -4.444  -1.280  -5.326  0.00  0.00    -0.037 C 
ATOM     20  C   UNL     1      -5.845  -1.443  -5.966  0.00  0.00    -0.013 C 
ATOM     21  C   UNL     1      -6.443  -0.022  -5.856  0.00  0.00    -0.020 C 
ATOM     22  C   UNL     1      -5.230   0.916  -5.718  0.00  0.00    -0.077 C 
ATOM     23  N   UNL     1      -4.018   0.070  -5.779  0.00  0.00    +0.390 N 
ATOM     24  H   UNL     1      -3.594   0.045  -6.794  0.00  0.00    -0.080 HD
BRANCH  19  28
ATOM     25  C   UNL     1      -1.763  -4.274  -6.778  0.00  0.00    +0.120 A 
ATOM     26  C   UNL     1      -2.267  -4.359  -5.489  0.00  0.00    +0.046 A 
ATOM     27  C   UNL     1      -3.133  -3.390  -5.021  0.00  0.00    +0.005 A 
ATOM     28  C   UNL     1      -3.498  -2.335  -5.838  0.00  0.00    -0.061 A 
ATOM     29  C   UNL     1      -3.002  -2.251  -7.126  0.00  0.00    +0.005 A 
ATOM     30  C   UNL     1      -2.131  -3.215  -7.596  0.00  0.00    +0.046 A 
BRANCH  25  32
ATOM     31  C   UNL     1      -0.431  -5.074  -8.578  0.00  0.00    +0.277 C 
ATOM     32  O   UNL     1      -0.910  -5.226  -7.240  0.00  0.00    -0.495 OA
ENDBRANCH  25  32
ENDBRANCH  19  28
ENDBRANCH  18  23
ENDBRANCH   1  18
TORSDOF 6
