REMARK  Name = ZINC60349441
REMARK  7 active torsions:
REMARK  status: ('A' for Active; 'I' for Inactive)
REMARK    1  A    between atoms: C_4  and  O_27
REMARK    2  A    between atoms: C_5  and  C_7
REMARK    3  A    between atoms: C_7  and  C_8
REMARK    4  A    between atoms: N_10  and  C_11
REMARK    5  A    between atoms: C_11  and  C_12
REMARK    6  A    between atoms: C_12  and  C_14
REMARK    7  A    between atoms: C_12  and  N_22
REMARK                            x       y       z     vdW  Elec       q    Type
REMARK                         _______ _______ _______ _____ _____    ______ ____
ROOT
ATOM      1  C   UNL     1       1.648  -6.040   3.091  0.00  0.00    -0.016 C 
ENDROOT
BRANCH   1   2
ATOM      2  C   UNL     1       1.719  -6.659   4.463  0.00  0.00    -0.006 A 
ATOM      3  C   UNL     1       2.923  -6.695   5.146  0.00  0.00    +0.126 A 
ATOM      4  C   UNL     1       2.987  -7.264   6.406  0.00  0.00    +0.038 A 
ATOM      5  C   UNL     1       1.849  -7.796   6.983  0.00  0.00    +0.004 A 
ATOM      6  C   UNL     1       0.647  -7.760   6.302  0.00  0.00    +0.020 A 
ATOM      7  C   UNL     1       0.580  -7.187   5.044  0.00  0.00    +0.045 A 
ATOM      8 CL   UNL     1      -0.932  -7.136   4.192  0.00  0.00    -0.083 Cl
ATOM      9  F   UNL     1       4.035  -6.175   4.581  0.00  0.00    -0.205 F 
ENDBRANCH   1   2
BRANCH   1  10
ATOM     10  N   UNL     1       2.781  -6.510   2.283  0.00  0.00    +0.385 N 
ATOM     11  C   UNL     1       2.764  -7.993   2.191  0.00  0.00    -0.078 C 
ATOM     12  C   UNL     1       3.602  -8.279   0.920  0.00  0.00    -0.020 C 
ATOM     13  C   UNL     1       3.195  -7.128  -0.029  0.00  0.00    -0.020 C 
ATOM     14  C   UNL     1       2.654  -6.019   0.893  0.00  0.00    -0.078 C 
ATOM     15  H   UNL     1       3.651  -6.195   2.685  0.00  0.00    -0.081 HD
ENDBRANCH   1  10
BRANCH   1  16
ATOM     16  C   UNL     1       1.708  -4.516   3.215  0.00  0.00    +0.093 C 
BRANCH  16  19
ATOM     17  C   UNL     1       0.389  -2.730   4.218  0.00  0.00    +0.217 C 
ATOM     18  O   UNL     1       1.277  -1.954   3.934  0.00  0.00    -0.275 OA
ATOM     19  N   UNL     1       0.507  -4.035   3.902  0.00  0.00    -0.316 N 
ATOM     20  H   UNL     1      -0.203  -4.655   4.130  0.00  0.00    +0.149 HD
BRANCH  17  21
ATOM     21  C   UNL     1      -0.847  -2.235   4.925  0.00  0.00    +0.134 C 
BRANCH  21  26
ATOM     22  C   UNL     1      -0.144   1.083   6.585  0.00  0.00    +0.001 A 
ATOM     23  C   UNL     1      -0.515   1.975   5.595  0.00  0.00    +0.004 A 
ATOM     24  C   UNL     1      -0.994   1.507   4.387  0.00  0.00    +0.046 A 
ATOM     25  C   UNL     1      -1.103   0.141   4.167  0.00  0.00    +0.120 A 
ATOM     26  C   UNL     1      -0.730  -0.751   5.161  0.00  0.00    +0.003 A 
ATOM     27  C   UNL     1      -0.252  -0.278   6.368  0.00  0.00    +0.008 A 
BRANCH  25  28
ATOM     28  O   UNL     1      -1.574  -0.321   2.979  0.00  0.00    -0.506 OA
ATOM     29  H   UNL     1      -0.887  -0.468   2.314  0.00  0.00    +0.292 HD
ENDBRANCH  25  28
ENDBRANCH  21  26
ENDBRANCH  17  21
ENDBRANCH  16  19
ENDBRANCH   1  16
TORSDOF 7
