REMARK  Name = ZINC40538985
REMARK  4 active torsions:
REMARK  status: ('A' for Active; 'I' for Inactive)
REMARK    1  A    between atoms: C_1  and  N_2
REMARK    2  A    between atoms: C_4  and  C_9
REMARK    3  A    between atoms: N_11  and  C_12
REMARK    4  A    between atoms: N_11  and  C_13
REMARK                            x       y       z     vdW  Elec       q    Type
REMARK                         _______ _______ _______ _____ _____    ______ ____
ROOT
ATOM      1  C   UNL     1      -2.396  -2.798  -0.062  0.00  0.00    +0.252 C 
ATOM      2  O   UNL     1      -3.427  -2.155  -0.007  0.00  0.00    -0.270 OA
ATOM      3  N   UNL     1      -2.443  -4.144  -0.111  0.00  0.00    -0.270 N 
ATOM      4  C   UNL     1      -1.202  -4.922  -0.082  0.00  0.00    +0.138 C 
ENDROOT
BRANCH   1   8
ATOM      5  C   UNL     1       0.325   1.071  -1.354  0.00  0.00    +0.152 C 
ATOM      6  N   UNL     1       0.216  -0.236  -0.701  0.00  0.00    -0.318 N 
ATOM      7  C   UNL     1      -0.970  -0.873  -0.686  0.00  0.00    +0.101 A 
ATOM      8  C   UNL     1      -1.095  -2.105  -0.077  0.00  0.00    +0.054 A 
ATOM      9  C   UNL     1       0.037  -2.698   0.534  0.00  0.00    +0.020 A 
ATOM     10  C   UNL     1       1.224  -2.036   0.507  0.00  0.00    +0.071 A 
ATOM     11  C   UNL     1       1.305  -0.784  -0.131  0.00  0.00    +0.251 A 
ATOM     12  O   UNL     1       2.369  -0.189  -0.163  0.00  0.00    -0.268 OA
ENDBRANCH   1   8
BRANCH   3  13
ATOM     13  C   UNL     1      -3.677  -4.798  -0.189  0.00  0.00    +0.036 A 
ATOM     14  C   UNL     1      -4.856  -4.075  -0.074  0.00  0.00    +0.023 A 
ATOM     15  C   UNL     1      -6.073  -4.724  -0.151  0.00  0.00    +0.002 A 
ATOM     16  C   UNL     1      -6.117  -6.093  -0.342  0.00  0.00    +0.000 A 
ATOM     17  C   UNL     1      -4.944  -6.816  -0.456  0.00  0.00    +0.002 A 
ATOM     18  C   UNL     1      -3.725  -6.172  -0.386  0.00  0.00    +0.023 A 
ENDBRANCH   3  13
TORSDOF 2
