REMARK  Name = ZINC39634844
REMARK  11 active torsions:
REMARK  status: ('A' for Active; 'I' for Inactive)
REMARK    1  A    between atoms: C_1  and  C_2
REMARK    2  A    between atoms: C_2  and  C_3
REMARK    3  A    between atoms: C_2  and  N_4
REMARK    4  A    between atoms: N_4  and  C_5
REMARK    5  A    between atoms: N_4  and  C_34
REMARK    6  A    between atoms: C_5  and  C_6
REMARK    7  A    between atoms: C_6  and  N_7
REMARK    8  A    between atoms: C_8  and  C_10
REMARK    9  A    between atoms: C_21  and  C_23
REMARK   10  A    between atoms: C_34  and  C_35
REMARK   11  A    between atoms: C_34  and  C_36
REMARK                            x       y       z     vdW  Elec       q    Type
REMARK                         _______ _______ _______ _____ _____    ______ ____
ROOT
ATOM      1  C   UNL     1      -3.944   3.573  -3.831  0.00  0.00    +0.100 C 
ATOM      2  C   UNL     1      -5.422   3.125  -3.768  0.00  0.00    +0.121 C 
ATOM      3  N   UNL     1      -6.153   4.313  -3.269  0.00  0.00    -0.297 N 
ATOM      4  C   UNL     1      -5.502   5.459  -3.949  0.00  0.00    +0.115 C 
ATOM      5  C   UNL     1      -4.002   5.105  -3.953  0.00  0.00    -0.004 C 
ATOM      6  C   UNL     1      -3.304   5.757  -2.763  0.00  0.00    -0.010 C 
ATOM      7  C   UNL     1      -3.325   7.278  -2.935  0.00  0.00    -0.082 C 
ATOM      8  N   UNL     1      -2.644   7.640  -4.185  0.00  0.00    +0.379 N 
ATOM      9  C   UNL     1      -3.375   7.086  -5.331  0.00  0.00    -0.082 C 
ATOM     10  C   UNL     1      -3.357   5.556  -5.260  0.00  0.00    -0.010 C 
ATOM     11  C   UNL     1      -7.178   4.345  -2.394  0.00  0.00    +0.260 C 
ATOM     12  O   UNL     1      -7.543   3.325  -1.849  0.00  0.00    -0.271 OA
ATOM     13  H   UNL     1      -2.605   8.645  -4.266  0.00  0.00    -0.086 HD
ATOM     14  H   UNL     1      -1.706   7.269  -4.175  0.00  0.00    -0.086 HD
ENDROOT
BRANCH  11  15
ATOM     15  C   UNL     1      -7.871   5.649  -2.093  0.00  0.00    +0.296 C 
ATOM     16  C   UNL     1      -8.674   6.103  -3.320  0.00  0.00    +0.283 C 
ATOM     17  O   UNL     1      -9.329   7.334  -2.995  0.00  0.00    -0.484 OA
ATOM     18  C   UNL     1      -9.970   7.388  -1.796  0.00  0.00    +0.162 A 
ATOM     19  C   UNL     1     -10.911   8.383  -1.571  0.00  0.00    +0.049 A 
ATOM     20  C   UNL     1     -11.568   8.453  -0.357  0.00  0.00    +0.004 A 
ATOM     21  C   UNL     1     -11.290   7.532   0.636  0.00  0.00    +0.004 A 
ATOM     22  C   UNL     1     -10.355   6.538   0.418  0.00  0.00    +0.049 A 
ATOM     23  C   UNL     1      -9.693   6.461  -0.798  0.00  0.00    +0.163 A 
ATOM     24  O   UNL     1      -8.780   5.472  -1.001  0.00  0.00    -0.473 OA
ENDBRANCH  11  15
BRANCH   1  26
ATOM     25  N   UNL     1      -1.876   3.075  -2.568  0.00  0.00    -0.317 N 
ATOM     26  C   UNL     1      -3.221   3.174  -2.571  0.00  0.00    +0.218 C 
ATOM     27  O   UNL     1      -3.848   2.942  -1.559  0.00  0.00    -0.275 OA
ATOM     28  H   UNL     1      -1.375   3.261  -3.377  0.00  0.00    +0.149 HD
BRANCH  25  29
ATOM     29  C   UNL     1      -1.173   2.687  -1.343  0.00  0.00    +0.085 C 
BRANCH  29  30
ATOM     30  C   UNL     1       0.333   2.651  -1.610  0.00  0.00    -0.059 C 
BRANCH  30  31
ATOM     31  N   UNL     1       1.027   2.118  -0.429  0.00  0.00    +0.384 N 
ATOM     32  H   UNL     1       0.621   1.230  -0.173  0.00  0.00    -0.081 HD
BRANCH  31  34
ATOM     33  C   UNL     1       0.749   4.483   0.141  0.00  0.00    -0.014 C 
ATOM     34  C   UNL     1       0.887   3.061   0.688  0.00  0.00    -0.074 C 
ATOM     35  C   UNL     1      -0.357   2.705   1.504  0.00  0.00    -0.014 C 
ENDBRANCH  31  34
BRANCH  31  36
ATOM     36  C   UNL     1       2.451   1.934  -0.740  0.00  0.00    -0.074 C 
ATOM     37  C   UNL     1       3.149   1.264   0.446  0.00  0.00    -0.014 C 
ATOM     38  C   UNL     1       2.592   1.050  -1.981  0.00  0.00    -0.014 C 
ENDBRANCH  31  36
ENDBRANCH  30  31
ENDBRANCH  29  30
ENDBRANCH  25  29
ENDBRANCH   1  26
TORSDOF 7
