REMARK  Name = ZINC22418425
REMARK  13 active torsions:
REMARK  status: ('A' for Active; 'I' for Inactive)
REMARK    1  A    between atoms: C_1  and  C_2
REMARK    2  A    between atoms: C_2  and  C_3
REMARK    3  A    between atoms: C_3  and  C_4
REMARK    4  A    between atoms: C_4  and  O_5
REMARK    5  A    between atoms: O_5  and  C_6
REMARK    6  A    between atoms: C_9  and  N_12
REMARK    7  A    between atoms: N_15  and  C_16
REMARK    8  A    between atoms: C_16  and  C_17
REMARK    9  A    between atoms: C_17  and  C_19
REMARK   10  A    between atoms: C_17  and  N_28
REMARK   11  A    between atoms: C_22  and  N_25
REMARK   12  A    between atoms: N_25  and  C_26
REMARK   13  A    between atoms: N_25  and  C_27
REMARK                            x       y       z     vdW  Elec       q    Type
REMARK                         _______ _______ _______ _____ _____    ______ ____
ROOT
ATOM      1  N   UNL     1      -0.749   3.699   1.498  0.00  0.00    -0.269 N 
ATOM      2  C   UNL     1      -1.012   2.508   0.925  0.00  0.00    +0.304 C 
ATOM      3  O   UNL     1      -2.139   2.252   0.547  0.00  0.00    -0.253 OA
ATOM      4  N   UNL     1      -0.027   1.601   0.771  0.00  0.00    -0.300 N 
ATOM      5  H   UNL     1       0.286   3.968   1.756  0.00  0.00    +0.156 HD
ATOM      6  H   UNL     1       0.992   1.833   1.114  0.00  0.00    +0.150 HD
ENDROOT
BRANCH   1  10
ATOM      7  C   UNL     1      -3.856   6.364   2.295  0.00  0.00    +0.121 A 
ATOM      8  C   UNL     1      -4.075   4.997   2.384  0.00  0.00    +0.047 A 
ATOM      9  C   UNL     1      -3.046   4.114   2.120  0.00  0.00    +0.027 A 
ATOM     10  C   UNL     1      -1.793   4.595   1.766  0.00  0.00    +0.035 A 
ATOM     11  C   UNL     1      -1.573   5.963   1.682  0.00  0.00    +0.027 A 
ATOM     12  C   UNL     1      -2.604   6.845   1.940  0.00  0.00    +0.047 A 
BRANCH   7  13
ATOM     13  O   UNL     1      -4.869   7.233   2.554  0.00  0.00    -0.492 OA
BRANCH  13  14
ATOM     14  C   UNL     1      -4.574   8.626   2.443  0.00  0.00    +0.229 C 
BRANCH  14  15
ATOM     15  C   UNL     1      -5.827   9.441   2.769  0.00  0.00    +0.041 C 
BRANCH  15  17
ATOM     16  C   UNL     1      -6.763  11.748   2.977  0.00  0.00    +0.004 C 
ATOM     17  C   UNL     1      -5.510  10.933   2.651  0.00  0.00    -0.000 C 
ENDBRANCH  15  17
ENDBRANCH  14  15
ENDBRANCH  13  14
ENDBRANCH   7  13
ENDBRANCH   1  10
BRANCH   4  18
ATOM     18  C   UNL     1      -0.314   0.307   0.148  0.00  0.00    +0.095 C 
BRANCH  18  19
ATOM     19  C   UNL     1       0.994  -0.461  -0.057  0.00  0.00    -0.020 C 
BRANCH  19  20
ATOM     20  C   UNL     1       0.686  -1.865  -0.508  0.00  0.00    -0.059 A 
ATOM     21  C   UNL     1       0.289  -2.099  -1.812  0.00  0.00    +0.004 A 
ATOM     22  C   UNL     1       0.012  -3.386  -2.231  0.00  0.00    +0.023 A 
ATOM     23  C   UNL     1       0.121  -4.444  -1.337  0.00  0.00    +0.029 A 
ATOM     24  C   UNL     1       0.514  -4.205  -0.027  0.00  0.00    +0.023 A 
ATOM     25  C   UNL     1       0.796  -2.916   0.384  0.00  0.00    +0.004 A 
BRANCH  23  26
ATOM     26  N   UNL     1      -0.165  -5.746  -1.756  0.00  0.00    -0.336 N 
ATOM     27  C   UNL     1      -0.050  -6.860  -0.812  0.00  0.00    +0.129 C 
ATOM     28  C   UNL     1      -0.580  -5.997  -3.138  0.00  0.00    +0.129 C 
ENDBRANCH  23  26
ENDBRANCH  19  20
BRANCH  19  29
ATOM     29  N   UNL     1       1.804   0.216  -1.079  0.00  0.00    +0.385 N 
ATOM     30  C   UNL     1       2.354   1.495  -0.562  0.00  0.00    -0.078 C 
ATOM     31  C   UNL     1       3.544   1.778  -1.512  0.00  0.00    -0.020 C 
ATOM     32  C   UNL     1       4.127   0.369  -1.765  0.00  0.00    -0.020 C 
ATOM     33  C   UNL     1       2.975  -0.604  -1.455  0.00  0.00    -0.078 C 
ATOM     34  H   UNL     1       1.132   0.376  -1.935  0.00  0.00    -0.081 HD
ENDBRANCH  19  29
ENDBRANCH  18  19
ENDBRANCH   4  18
TORSDOF 10
