REMARK  Name = ZINC01270692
REMARK  8 active torsions:
REMARK  status: ('A' for Active; 'I' for Inactive)
REMARK    1  A    between atoms: C_1  and  C_2
REMARK    2  A    between atoms: C_2  and  C_3
REMARK    3  A    between atoms: C_3  and  C_5
REMARK    4  A    between atoms: C_3  and  C_6
REMARK    5  A    between atoms: C_9  and  N_12
REMARK    6  A    between atoms: C_14  and  N_23
REMARK    7  A    between atoms: N_23  and  S_24
REMARK    8  A    between atoms: S_24  and  C_27
REMARK                            x       y       z     vdW  Elec       q    Type
REMARK                         _______ _______ _______ _____ _____    ______ ____
ROOT
ATOM      1  N   UNL     1       3.811   4.355  -3.901  0.00  0.00    -0.297 N 
ATOM      2  C   UNL     1       3.144   4.880  -2.803  0.00  0.00    +0.167 A 
ATOM      3  C   UNL     1       3.224   4.224  -1.551  0.00  0.00    +0.203 A 
ATOM      4  N   UNL     1       2.590   4.708  -0.503  0.00  0.00    -0.224 NA
ATOM      5  C   UNL     1       1.873   5.836  -0.620  0.00  0.00    +0.092 A 
ATOM      6  C   UNL     1       1.193   6.374   0.484  0.00  0.00    +0.030 A 
ATOM      7  C   UNL     1       0.467   7.517   0.338  0.00  0.00    +0.002 A 
ATOM      8  C   UNL     1       0.388   8.163  -0.893  0.00  0.00    +0.002 A 
ATOM      9  C   UNL     1       1.035   7.668  -1.985  0.00  0.00    +0.030 A 
ATOM     10  C   UNL     1       1.793   6.492  -1.872  0.00  0.00    +0.091 A 
ATOM     11  N   UNL     1       2.439   5.985  -2.933  0.00  0.00    -0.227 NA
ATOM     12  H   UNL     1       4.468   3.481  -3.779  0.00  0.00    +0.154 HD
ENDROOT
BRANCH   1  16
ATOM     13  C   UNL     1       3.329   6.089  -7.656  0.00  0.00    -0.044 A 
ATOM     14  C   UNL     1       4.539   5.514  -7.312  0.00  0.00    +0.006 A 
ATOM     15  C   UNL     1       4.702   4.939  -6.067  0.00  0.00    +0.023 A 
ATOM     16  C   UNL     1       3.650   4.938  -5.160  0.00  0.00    +0.032 A 
ATOM     17  C   UNL     1       2.434   5.511  -5.511  0.00  0.00    +0.023 A 
ATOM     18  C   UNL     1       2.279   6.090  -6.756  0.00  0.00    +0.006 A 
BRANCH  13  19
ATOM     19  C   UNL     1       3.154   6.716  -9.015  0.00  0.00    +0.016 C 
ATOM     20  C   UNL     1       2.024   6.005  -9.763  0.00  0.00    +0.012 C 
BRANCH  19  22
ATOM     21  C   UNL     1       2.751   8.862 -10.230  0.00  0.00    +0.004 C 
ATOM     22  C   UNL     1       2.806   8.197  -8.853  0.00  0.00    +0.004 C 
ENDBRANCH  19  22
ENDBRANCH  13  19
ENDBRANCH   1  16
BRANCH   3  23
ATOM     23  N   UNL     1       3.970   3.061  -1.429  0.00  0.00    -0.074 NA
BRANCH  23  24
ATOM     24  S   UNL     1       3.951   2.211  -0.008  0.00  0.00    +0.095 S 
ATOM     25  O   UNL     1       4.842   1.117  -0.178  0.00  0.00    -0.148 OA
ATOM     26  O   UNL     1       2.586   2.034   0.343  0.00  0.00    -0.148 OA
BRANCH  24  27
ATOM     27  C   UNL     1       4.658   3.249   1.228  0.00  0.00    +0.138 A 
ATOM     28  C   UNL     1       3.896   3.695   2.255  0.00  0.00    +0.031 A 
ATOM     29  C   UNL     1       4.422   4.517   3.251  0.00  0.00    +0.004 A 
ATOM     30  C   UNL     1       5.719   4.907   3.237  0.00  0.00    +0.031 A 
ATOM     31  C   UNL     1       6.577   4.478   2.191  0.00  0.00    +0.102 A 
ATOM     32  C   UNL     1       6.027   3.617   1.148  0.00  0.00    +0.126 A 
ATOM     33  N   UNL     1       6.939   3.292   0.234  0.00  0.00    -0.189 NA
ATOM     34  S   UNL     1       8.269   3.993   0.675  0.00  0.00    +0.117 S 
ATOM     35  N   UNL     1       7.866   4.746   1.989  0.00  0.00    -0.191 NA
ENDBRANCH  24  27
ENDBRANCH  23  24
ENDBRANCH   3  23
TORSDOF 6
