REMARK  Name = ZINC53972566
REMARK  8 active torsions:
REMARK  status: ('A' for Active; 'I' for Inactive)
REMARK    1  A    between atoms: C_3  and  C_8
REMARK    2  A    between atoms: C_8  and  C_10
REMARK    3  A    between atoms: C_8  and  O_22
REMARK    4  A    between atoms: C_10  and  C_11
REMARK    5  A    between atoms: C_11  and  N_12
REMARK    6  A    between atoms: C_17  and  C_19
REMARK    7  A    between atoms: C_19  and  C_20
REMARK    8  A    between atoms: C_20  and  O_21
REMARK                            x       y       z     vdW  Elec       q    Type
REMARK                         _______ _______ _______ _____ _____    ______ ____
ROOT
ATOM      1  C   UNL     1       5.428   2.983  -1.655  0.00  0.00    -0.076 C 
ENDROOT
BRANCH   1   2
ATOM      2  N   UNL     1       5.938   3.309  -2.994  0.00  0.00    +0.382 N 
ATOM      3  C   UNL     1       4.865   3.918  -3.789  0.00  0.00    -0.078 C 
ATOM      4  C   UNL     1       5.367   4.186  -5.210  0.00  0.00    -0.019 C 
ATOM      5  C   UNL     1       6.565   5.139  -5.151  0.00  0.00    -0.003 C 
ATOM      6  C   UNL     1       7.648   4.527  -4.258  0.00  0.00    -0.015 C 
ATOM      7  C   UNL     1       7.061   4.246  -2.873  0.00  0.00    -0.066 C 
ATOM      8  H   UNL     1       6.253   2.465  -3.447  0.00  0.00    -0.081 HD
BRANCH   7   9
ATOM      9  C   UNL     1       8.140   3.635  -1.977  0.00  0.00    +0.012 C 
BRANCH   9  10
ATOM     10  C   UNL     1       9.282   4.637  -1.796  0.00  0.00    +0.154 C 
BRANCH  10  11
ATOM     11  O   UNL     1      10.335   4.030  -1.045  0.00  0.00    -0.395 OA
ATOM     12  H   UNL     1      11.094   4.610  -0.892  0.00  0.00    +0.209 HD
ENDBRANCH  10  11
ENDBRANCH   9  10
ENDBRANCH   7   9
ENDBRANCH   1   2
BRANCH   1  13
ATOM     13  C   UNL     1       4.344   1.909  -1.770  0.00  0.00    +0.017 C 
BRANCH  13  14
ATOM     14  C   UNL     1       3.813   1.569  -0.376  0.00  0.00    +0.143 C 
BRANCH  14  17
ATOM     15  C   UNL     1       0.308   0.189  -0.630  0.00  0.00    +0.001 A 
ATOM     16  C   UNL     1       1.364   1.075  -0.517  0.00  0.00    +0.006 A 
ATOM     17  C   UNL     1       2.663   0.603  -0.498  0.00  0.00    -0.018 A 
ATOM     18  C   UNL     1       2.907  -0.754  -0.592  0.00  0.00    +0.021 A 
ATOM     19  C   UNL     1       1.852  -1.640  -0.704  0.00  0.00    +0.018 A 
ATOM     20  C   UNL     1       0.551  -1.168  -0.723  0.00  0.00    +0.015 A 
ATOM     21 BR   UNL     1       2.185  -3.497  -0.833  0.00  0.00    -0.050 Br
ENDBRANCH  14  17
BRANCH  14  22
ATOM     22  O   UNL     1       4.856   0.973   0.399  0.00  0.00    -0.387 OA
ATOM     23  H   UNL     1       5.208   0.156   0.020  0.00  0.00    +0.210 HD
ENDBRANCH  14  22
ENDBRANCH  13  14
ENDBRANCH   1  13
TORSDOF 8
