REMARK  Name = ZINC63384927
REMARK  12 active torsions:
REMARK  status: ('A' for Active; 'I' for Inactive)
REMARK    1  A    between atoms: C_1  and  C_2
REMARK    2  A    between atoms: C_2  and  C_3
REMARK    3  A    between atoms: C_10  and  O_20
REMARK    4  A    between atoms: C_16  and  C_18
REMARK    5  A    between atoms: C_16  and  C_19
REMARK    6  A    between atoms: O_20  and  C_21
REMARK    7  A    between atoms: C_21  and  C_22
REMARK    8  A    between atoms: N_24  and  C_25
REMARK    9  A    between atoms: C_25  and  C_26
REMARK   10  A    between atoms: C_26  and  C_27
REMARK   11  A    between atoms: C_30  and  O_36
REMARK   12  A    between atoms: O_36  and  C_37
REMARK                            x       y       z     vdW  Elec       q    Type
REMARK                         _______ _______ _______ _____ _____    ______ ____
ROOT
ATOM      1  O   UNL     1      -2.076  -0.091  -1.389  0.00  0.00    -0.482 OA
ENDROOT
BRANCH   1   9
ATOM      2  C   UNL     1       0.707  -0.490  -1.238  0.00  0.00    -0.027 A 
ATOM      3  C   UNL     1       2.049  -0.708  -1.230  0.00  0.00    +0.096 A 
ATOM      4  C   UNL     1       2.692  -1.163  -2.398  0.00  0.00    +0.337 A 
ATOM      5  O   UNL     1       3.895  -1.355  -2.384  0.00  0.00    -0.245 OA
ATOM      6  O   UNL     1       2.000  -1.390  -3.528  0.00  0.00    -0.422 OA
ATOM      7  C   UNL     1       0.665  -1.183  -3.577  0.00  0.00    +0.149 A 
ATOM      8  C   UNL     1      -0.017  -0.734  -2.432  0.00  0.00    +0.063 A 
ATOM      9  C   UNL     1      -1.407  -0.528  -2.486  0.00  0.00    +0.136 A 
ATOM     10  C   UNL     1      -2.085  -0.772  -3.662  0.00  0.00    +0.092 A 
ATOM     11  C   UNL     1      -1.404  -1.221  -4.795  0.00  0.00    +0.131 A 
ATOM     12  C   UNL     1      -0.035  -1.414  -4.754  0.00  0.00    +0.038 A 
ATOM     13  C   UNL     1       0.730  -1.886  -5.966  0.00  0.00    +0.046 C 
ATOM     14  C   UNL     1      -0.240  -2.489  -6.985  0.00  0.00    +0.052 C 
ATOM     15  C   UNL     1      -1.412  -1.516  -7.167  0.00  0.00    +0.105 C 
ATOM     16  O   UNL     1      -2.124  -1.450  -5.924  0.00  0.00    -0.486 OA
ATOM     17  C   UNL     1      -2.347  -2.034  -8.261  0.00  0.00    +0.055 C 
ATOM     18  C   UNL     1      -0.881  -0.135  -7.553  0.00  0.00    +0.055 C 
BRANCH   2  20
ATOM     19  C   UNL     1      -0.599  -1.197   0.748  0.00  0.00    +0.009 C 
ATOM     20  C   UNL     1       0.002  -0.004   0.002  0.00  0.00    +0.033 C 
ENDBRANCH   2  20
ENDBRANCH   1   9
BRANCH   1  21
ATOM     21  C   UNL     1      -3.487   0.095  -1.521  0.00  0.00    +0.324 C 
BRANCH  21  22
ATOM     22  C   UNL     1      -4.054   0.579  -0.212  0.00  0.00    +0.251 C 
ATOM     23  O   UNL     1      -3.323   0.748   0.741  0.00  0.00    -0.272 OA
ATOM     24  N   UNL     1      -5.375   0.825  -0.099  0.00  0.00    -0.312 N 
ATOM     25  H   UNL     1      -5.960   0.690  -0.861  0.00  0.00    +0.149 HD
BRANCH  24  26
ATOM     26  C   UNL     1      -5.926   1.295   1.174  0.00  0.00    +0.108 C 
BRANCH  26  27
ATOM     27  C   UNL     1      -7.437   1.495   1.032  0.00  0.00    +0.052 C 
BRANCH  27  28
ATOM     28  C   UNL     1      -8.004   1.979   2.342  0.00  0.00    -0.040 C 
ATOM     29  C   UNL     1      -8.238   3.261   2.702  0.00  0.00    +0.002 A 
ATOM     30  C   UNL     1      -8.042   4.540   2.011  0.00  0.00    +0.055 A 
ATOM     31  C   UNL     1      -8.376   5.694   2.638  0.00  0.00    +0.121 A 
ATOM     32  C   UNL     1      -8.908   5.715   3.939  0.00  0.00    +0.047 A 
ATOM     33  C   UNL     1      -9.124   4.591   4.654  0.00  0.00    +0.029 A 
ATOM     34  C   UNL     1      -8.799   3.285   4.072  0.00  0.00    +0.043 A 
ATOM     35  N   UNL     1      -8.908   2.066   4.540  0.00  0.00    -0.380 N 
ATOM     36  C   UNL     1      -8.433   1.128   3.517  0.00  0.00    +0.144 C 
ATOM     37  H   UNL     1      -9.249   1.824   5.416  0.00  0.00    +0.160 HD
BRANCH  31  38
ATOM     38  O   UNL     1      -8.188   6.872   1.986  0.00  0.00    -0.495 OA
ATOM     39  C   UNL     1      -8.553   8.065   2.684  0.00  0.00    +0.277 C 
ENDBRANCH  31  38
ENDBRANCH  27  28
ENDBRANCH  26  27
ENDBRANCH  24  26
ENDBRANCH  21  22
ENDBRANCH   1  21
TORSDOF 8
