REMARK  Name = ZINC39630626
REMARK  10 active torsions:
REMARK  status: ('A' for Active; 'I' for Inactive)
REMARK    1  A    between atoms: C_1  and  C_2
REMARK    2  A    between atoms: C_2  and  C_3
REMARK    3  A    between atoms: C_2  and  C_4
REMARK    4  A    between atoms: C_2  and  C_31
REMARK    5  A    between atoms: C_4  and  N_5
REMARK    6  A    between atoms: C_6  and  C_8
REMARK    7  A    between atoms: C_19  and  C_21
REMARK    8  A    between atoms: C_31  and  N_32
REMARK    9  A    between atoms: N_32  and  C_33
REMARK   10  A    between atoms: N_32  and  C_34
REMARK                            x       y       z     vdW  Elec       q    Type
REMARK                         _______ _______ _______ _____ _____    ______ ____
ROOT
ATOM      1  C   UNL     1      -2.755   0.119   4.394  0.00  0.00    +0.100 C 
ATOM      2  C   UNL     1      -2.693   1.655   4.242  0.00  0.00    +0.121 C 
ATOM      3  N   UNL     1      -4.106   2.072   4.077  0.00  0.00    -0.296 N 
ATOM      4  C   UNL     1      -4.857   1.207   5.018  0.00  0.00    +0.115 C 
ATOM      5  C   UNL     1      -4.175  -0.171   4.906  0.00  0.00    -0.004 C 
ATOM      6  C   UNL     1      -4.117  -0.844   6.274  0.00  0.00    -0.010 C 
ATOM      7  C   UNL     1      -5.538  -1.175   6.737  0.00  0.00    -0.082 C 
ATOM      8  N   UNL     1      -6.178  -2.063   5.760  0.00  0.00    +0.379 N 
ATOM      9  C   UNL     1      -6.315  -1.374   4.471  0.00  0.00    -0.082 C 
ATOM     10  C   UNL     1      -4.926  -1.052   3.912  0.00  0.00    -0.010 C 
ATOM     11  C   UNL     1      -4.596   3.023   3.258  0.00  0.00    +0.247 C 
ATOM     12  O   UNL     1      -3.862   3.578   2.463  0.00  0.00    -0.270 OA
ATOM     13  H   UNL     1      -5.614  -2.891   5.639  0.00  0.00    -0.086 HD
ATOM     14  H   UNL     1      -7.092  -2.329   6.096  0.00  0.00    -0.086 HD
ENDROOT
BRANCH  11  15
ATOM     15  C   UNL     1      -6.026   3.392   3.326  0.00  0.00    +0.037 A 
ATOM     16  C   UNL     1      -6.762   3.119   4.492  0.00  0.00    +0.013 A 
ATOM     17  C   UNL     1      -8.076   3.447   4.579  0.00  0.00    +0.009 A 
ATOM     18  C   UNL     1      -8.719   4.069   3.493  0.00  0.00    -0.018 A 
ATOM     19  C   UNL     1     -10.078   4.419   3.559  0.00  0.00    +0.008 A 
ATOM     20  C   UNL     1     -10.673   5.020   2.492  0.00  0.00    +0.001 A 
ATOM     21  C   UNL     1      -9.954   5.295   1.330  0.00  0.00    +0.001 A 
ATOM     22  C   UNL     1      -8.636   4.971   1.229  0.00  0.00    +0.008 A 
ATOM     23  C   UNL     1      -7.987   4.350   2.311  0.00  0.00    -0.017 A 
ATOM     24  C   UNL     1      -6.628   4.008   2.242  0.00  0.00    +0.021 A 
ENDBRANCH  11  15
BRANCH   1  26
ATOM     25  N   UNL     1      -1.979  -1.777   3.007  0.00  0.00    -0.315 N 
ATOM     26  C   UNL     1      -2.531  -0.549   3.061  0.00  0.00    +0.218 C 
ATOM     27  O   UNL     1      -2.849   0.019   2.038  0.00  0.00    -0.275 OA
ATOM     28  H   UNL     1      -1.725  -2.231   3.826  0.00  0.00    +0.149 HD
BRANCH  25  29
ATOM     29  C   UNL     1      -1.762  -2.426   1.712  0.00  0.00    +0.108 C 
BRANCH  29  31
ATOM     30  C   UNL     1       0.214  -3.635   2.649  0.00  0.00    +0.010 C 
ATOM     31  C   UNL     1      -1.126  -3.800   1.930  0.00  0.00    -0.034 C 
ATOM     32  C   UNL     1      -2.058  -4.663   2.783  0.00  0.00    +0.010 C 
BRANCH  31  33
ATOM     33  C   UNL     1      -0.899  -4.478   0.578  0.00  0.00    -0.072 C 
BRANCH  33  34
ATOM     34  N   UNL     1      -0.285  -5.796   0.787  0.00  0.00    +0.376 N 
ATOM     35  C   UNL     1      -1.337  -6.794   1.027  0.00  0.00    -0.097 C 
ATOM     36  C   UNL     1       0.484  -6.173  -0.406  0.00  0.00    -0.097 C 
ATOM     37  H   UNL     1       0.330  -5.757   1.585  0.00  0.00    -0.083 HD
ENDBRANCH  33  34
ENDBRANCH  31  33
ENDBRANCH  29  31
ENDBRANCH  25  29
ENDBRANCH   1  26
TORSDOF 6
