REMARK  Name = ZINC52066981
REMARK  9 active torsions:
REMARK  status: ('A' for Active; 'I' for Inactive)
REMARK    1  A    between atoms: C_1  and  C_2
REMARK    2  A    between atoms: C_2  and  C_4
REMARK    3  A    between atoms: C_2  and  C_18
REMARK    4  A    between atoms: C_4  and  O_5
REMARK    5  A    between atoms: O_5  and  C_6
REMARK    6  A    between atoms: C_11  and  C_12
REMARK    7  A    between atoms: C_12  and  C_14
REMARK    8  A    between atoms: C_12  and  N_15
REMARK    9  A    between atoms: N_15  and  C_16
REMARK                            x       y       z     vdW  Elec       q    Type
REMARK                         _______ _______ _______ _____ _____    ______ ____
ROOT
ATOM      1  C   UNL     1       0.535  -0.527   3.610  0.00  0.00    +0.122 A 
ATOM      2  C   UNL     1       1.732  -1.226   3.653  0.00  0.00    +0.047 A 
ATOM      3  C   UNL     1       2.264  -1.609   4.870  0.00  0.00    +0.019 A 
ATOM      4  C   UNL     1       1.602  -1.296   6.044  0.00  0.00    +0.018 A 
ATOM      5  C   UNL     1       0.408  -0.599   6.003  0.00  0.00    +0.020 A 
ATOM      6  C   UNL     1      -0.124  -0.209   4.789  0.00  0.00    -0.019 A 
ATOM      7 BR   UNL     1       2.332  -1.821   7.707  0.00  0.00    -0.050 Br
ENDROOT
BRANCH   6   8
ATOM      8  C   UNL     1      -1.421   0.557   4.745  0.00  0.00    -0.041 C 
ATOM      9  C   UNL     1      -2.581  -0.418   4.532  0.00  0.00    -0.009 C 
BRANCH   8  10
ATOM     10  N   UNL     1      -1.610   1.273   6.013  0.00  0.00    +0.382 N 
ATOM     11  C   UNL     1      -2.812   2.113   5.927  0.00  0.00    -0.100 C 
ATOM     12  H   UNL     1      -1.718   0.607   6.763  0.00  0.00    -0.085 HD
ATOM     13  H   UNL     1      -0.805   1.855   6.194  0.00  0.00    -0.085 HD
ENDBRANCH   8  10
ENDBRANCH   6   8
BRANCH   1  14
ATOM     14  O   UNL     1       0.010  -0.149   2.414  0.00  0.00    -0.491 OA
BRANCH  14  15
ATOM     15  C   UNL     1       0.742  -0.511   1.242  0.00  0.00    +0.241 C 
BRANCH  15  17
ATOM     16  C   UNL     1      -0.019   1.526   0.010  0.00  0.00    +0.020 C 
ATOM     17  C   UNL     1       0.002  -0.004   0.002  0.00  0.00    +0.109 C 
BRANCH  17  18
ATOM     18  C   UNL     1       0.707  -0.490  -1.238  0.00  0.00    +0.217 C 
ATOM     19  O   UNL     1       1.704  -1.174  -1.140  0.00  0.00    -0.276 OA
ATOM     20  N   UNL     1       0.231  -0.164  -2.456  0.00  0.00    -0.329 N 
ATOM     21  H   UNL     1      -0.566   0.383  -2.534  0.00  0.00    +0.145 HD
ATOM     22  H   UNL     1       0.685  -0.477  -3.254  0.00  0.00    +0.145 HD
ENDBRANCH  17  18
ENDBRANCH  15  17
ENDBRANCH  14  15
ENDBRANCH   1  14
TORSDOF 6
