REMARK  Name = ZINC13573928
REMARK  8 active torsions:
REMARK  status: ('A' for Active; 'I' for Inactive)
REMARK    1  A    between atoms: C_1  and  C_2
REMARK    2  A    between atoms: C_2  and  N_3
REMARK    3  A    between atoms: C_11  and  C_29
REMARK    4  A    between atoms: C_14  and  N_19
REMARK    5  A    between atoms: N_19  and  C_20
REMARK    6  A    between atoms: C_20  and  N_21
REMARK    7  A    between atoms: N_21  and  C_22
REMARK    8  A    between atoms: C_22  and  C_23
REMARK                            x       y       z     vdW  Elec       q    Type
REMARK                         _______ _______ _______ _____ _____    ______ ____
ROOT
ATOM      1  N   UNL     1       0.567  -0.548  -1.408  0.00  0.00    +0.382 N 
ATOM      2  C   UNL     1       1.973  -0.134  -1.312  0.00  0.00    -0.060 C 
ATOM      3  C   UNL     1       2.697  -0.483  -2.616  0.00  0.00    +0.088 C 
ATOM      4  N   UNL     1       2.503  -1.915  -2.889  0.00  0.00    -0.319 N 
ATOM      5  C   UNL     1       1.134  -2.450  -2.844  0.00  0.00    +0.088 C 
ATOM      6  C   UNL     1       0.483  -2.009  -1.529  0.00  0.00    -0.060 C 
ATOM      7  C   UNL     1       3.582  -2.739  -3.180  0.00  0.00    +0.122 A 
ATOM      8  C   UNL     1       4.833  -2.162  -3.443  0.00  0.00    +0.047 A 
ATOM      9  C   UNL     1       5.900  -2.958  -3.730  0.00  0.00    -0.038 A 
ATOM     10  C   UNL     1       5.706  -4.354  -3.753  0.00  0.00    +0.005 A 
ATOM     11  C   UNL     1       6.763  -5.230  -4.042  0.00  0.00    +0.033 A 
ATOM     12  C   UNL     1       6.534  -6.588  -4.055  0.00  0.00    +0.033 A 
ATOM     13  C   UNL     1       5.260  -7.098  -3.784  0.00  0.00    +0.025 A 
ATOM     14  C   UNL     1       4.220  -6.268  -3.502  0.00  0.00    +0.030 A 
ATOM     15  C   UNL     1       4.418  -4.876  -3.480  0.00  0.00    +0.073 A 
ATOM     16  N   UNL     1       3.408  -4.044  -3.198  0.00  0.00    -0.232 NA
ATOM     17  C   UNL     1       7.254  -2.361  -4.016  0.00  0.00    +0.044 C 
ATOM     18  H   UNL     1       0.148  -0.120  -2.220  0.00  0.00    -0.082 HD
ENDROOT
BRANCH   1  20
ATOM     19  C   UNL     1      -0.172   1.413  -0.142  0.00  0.00    -0.017 C 
ATOM     20  C   UNL     1      -0.152  -0.116  -0.203  0.00  0.00    -0.082 C 
ENDBRANCH   1  20
BRANCH  12  21
ATOM     21  N   UNL     1       7.586  -7.467  -4.342  0.00  0.00    -0.297 N 
ATOM     22  H   UNL     1       8.177  -7.287  -5.090  0.00  0.00    +0.154 HD
BRANCH  21  23
ATOM     23  C   UNL     1       7.777  -8.561  -3.579  0.00  0.00    +0.135 C 
ATOM     24  S   UNL     1       6.671  -8.936  -2.328  0.00  0.00    -0.019 S 
BRANCH  23  25
ATOM     25  N   UNL     1       8.840  -9.360  -3.801  0.00  0.00    -0.322 N 
ATOM     26  H   UNL     1       9.467  -9.147  -4.510  0.00  0.00    +0.148 HD
BRANCH  25  27
ATOM     27  C   UNL     1       9.048 -10.550  -2.971  0.00  0.00    +0.145 C 
BRANCH  27  28
ATOM     28  C   UNL     1      10.296 -11.264  -3.422  0.00  0.00    +0.007 A 
ATOM     29  C   UNL     1      11.573 -11.101  -2.997  0.00  0.00    +0.013 A 
ATOM     30  C   UNL     1      12.570 -11.877  -3.559  0.00  0.00    +0.008 A 
ATOM     31  C   UNL     1      12.241 -12.777  -4.518  0.00  0.00    +0.045 A 
ATOM     32  S   UNL     1      10.475 -12.549  -4.648  0.00  0.00    -0.100 S 
ENDBRANCH  27  28
ENDBRANCH  25  27
ENDBRANCH  23  25
ENDBRANCH  21  23
ENDBRANCH  12  21
TORSDOF 6
