REMARK  Name = ZINC32905013
REMARK  7 active torsions:
REMARK  status: ('A' for Active; 'I' for Inactive)
REMARK    1  A    between atoms: C_1  and  C_2
REMARK    2  A    between atoms: C_5  and  C_8
REMARK    3  A    between atoms: C_8  and  C_10
REMARK    4  A    between atoms: C_8  and  N_13
REMARK    5  A    between atoms: C_14  and  C_16
REMARK    6  A    between atoms: C_16  and  N_17
REMARK    7  A    between atoms: C_26  and  C_28
REMARK                            x       y       z     vdW  Elec       q    Type
REMARK                         _______ _______ _______ _____ _____    ______ ____
ROOT
ATOM      1  C   UNL     1       3.612   6.146   0.050  0.00  0.00    +0.020 C 
ENDROOT
BRANCH   1   2
ATOM      2  N   UNL     1       2.411   5.344  -0.220  0.00  0.00    +0.396 N 
ATOM      3  C   UNL     1       2.447   4.079   0.520  0.00  0.00    -0.041 C 
ATOM      4  C   UNL     1       1.168   3.311   0.314  0.00  0.00    -0.061 A 
ATOM      5  C   UNL     1       1.153   1.958   0.620  0.00  0.00    +0.002 A 
ATOM      6  C   UNL     1       0.002   1.216   0.451  0.00  0.00    +0.000 A 
ATOM      7  C   UNL     1      -1.143   1.823  -0.031  0.00  0.00    +0.000 A 
ATOM      8  C   UNL     1      -1.132   3.170  -0.332  0.00  0.00    +0.004 A 
ATOM      9  C   UNL     1       0.025   3.916  -0.164  0.00  0.00    -0.047 A 
ATOM     10  C   UNL     1      -0.006   5.380  -0.516  0.00  0.00    +0.029 C 
ATOM     11  C   UNL     1       1.190   6.095   0.114  0.00  0.00    +0.024 C 
ATOM     12  H   UNL     1       2.398   5.114  -1.296  0.00  0.00    -0.080 HD
BRANCH  11  13
ATOM     13  C   UNL     1       1.290   7.495  -0.435  0.00  0.00    +0.197 C 
ATOM     14  O   UNL     1       1.869   7.696  -1.482  0.00  0.00    -0.278 OA
ATOM     15  N   UNL     1       0.737   8.523   0.238  0.00  0.00    -0.331 N 
ATOM     16  H   UNL     1       0.810   9.545  -0.163  0.00  0.00    +0.145 HD
ATOM     17  H   UNL     1       0.212   8.341   1.187  0.00  0.00    +0.145 HD
ENDBRANCH  11  13
ENDBRANCH   1   2
BRANCH   1  19
ATOM     18  N   UNL     1       5.995   6.148  -0.614  0.00  0.00    -0.310 N 
ATOM     19  C   UNL     1       4.780   5.572  -0.709  0.00  0.00    +0.197 C 
ATOM     20  O   UNL     1       4.628   4.591  -1.406  0.00  0.00    -0.278 OA
ATOM     21  H   UNL     1       6.133   7.037   0.018  0.00  0.00    +0.149 HD
BRANCH  18  22
ATOM     22  C   UNL     1       7.131   5.589  -1.352  0.00  0.00    +0.106 C 
BRANCH  22  27
ATOM     23  C   UNL     1      11.052   9.732  -2.276  0.00  0.00    +0.044 C 
ATOM     24  C   UNL     1      10.029   8.652  -2.035  0.00  0.00    -0.050 A 
ATOM     25  C   UNL     1       9.750   7.731  -3.027  0.00  0.00    +0.004 A 
ATOM     26  C   UNL     1       8.812   6.740  -2.806  0.00  0.00    +0.006 A 
ATOM     27  C   UNL     1       8.153   6.670  -1.593  0.00  0.00    -0.027 A 
ATOM     28  C   UNL     1       8.428   7.594  -0.603  0.00  0.00    +0.006 A 
ATOM     29  C   UNL     1       9.370   8.583  -0.822  0.00  0.00    +0.004 A 
ENDBRANCH  22  27
BRANCH  22  30
ATOM     30  C   UNL     1       7.764   4.461  -0.535  0.00  0.00    +0.014 C 
ATOM     31  C   UNL     1       7.985   3.119  -1.237  0.00  0.00    +0.006 C 
ATOM     32  C   UNL     1       6.882   3.261  -0.186  0.00  0.00    +0.006 C 
ENDBRANCH  22  30
ENDBRANCH  18  22
ENDBRANCH   1  19
TORSDOF 6
