REMARK  Name = ZINC08940072
REMARK  11 active torsions:
REMARK  status: ('A' for Active; 'I' for Inactive)
REMARK    1  A    between atoms: C_1  and  C_2
REMARK    2  A    between atoms: C_2  and  O_3
REMARK    3  A    between atoms: O_3  and  C_4
REMARK    4  A    between atoms: C_4  and  C_6
REMARK    5  A    between atoms: C_7  and  C_33
REMARK    6  A    between atoms: C_8  and  C_29
REMARK    7  A    between atoms: C_10  and  N_11
REMARK    8  A    between atoms: C_12  and  C_14
REMARK    9  A    between atoms: C_14  and  N_15
REMARK   10  A    between atoms: C_23  and  C_25
REMARK   11  A    between atoms: N_31  and  C_32
REMARK                            x       y       z     vdW  Elec       q    Type
REMARK                         _______ _______ _______ _____ _____    ______ ____
ROOT
ATOM      1  N   UNL     1      -0.889   0.065   6.824  0.00  0.00    -0.278 N 
ATOM      2  C   UNL     1      -1.041   0.502   5.558  0.00  0.00    +0.236 C 
ATOM      3  O   UNL     1      -1.463   1.619   5.349  0.00  0.00    -0.274 OA
ATOM      4  H   UNL     1      -0.551  -0.829   6.991  0.00  0.00    +0.155 HD
ENDROOT
BRANCH   1   9
ATOM      5  C   UNL     1      -1.134   0.620   9.254  0.00  0.00    +0.091 A 
ATOM      6  C   UNL     1      -1.518   1.623  10.131  0.00  0.00    -0.015 A 
ATOM      7  C   UNL     1      -1.960   2.802   9.595  0.00  0.00    +0.079 A 
ATOM      8  S   UNL     1      -1.830   2.509   7.842  0.00  0.00    -0.068 S 
ATOM      9  C   UNL     1      -1.214   0.889   7.883  0.00  0.00    +0.087 A 
ATOM     10  C   UNL     1      -1.458   1.419  11.623  0.00  0.00    +0.046 C 
BRANCH   7  11
ATOM     11  C   UNL     1      -2.426   4.004  10.289  0.00  0.00    +0.251 C 
ATOM     12  O   UNL     1      -2.451   4.034  11.506  0.00  0.00    -0.270 OA
ATOM     13  N   UNL     1      -2.827   5.079   9.581  0.00  0.00    -0.314 N 
ATOM     14  C   UNL     1      -3.292   6.282  10.275  0.00  0.00    +0.128 C 
ATOM     15  H   UNL     1      -2.807   5.055   8.611  0.00  0.00    +0.149 HD
ENDBRANCH   7  11
BRANCH   5  16
ATOM     16  C   UNL     1      -0.654  -0.676   9.746  0.00  0.00    +0.342 C 
ATOM     17  O   UNL     1       0.530  -0.843   9.965  0.00  0.00    -0.245 OA
BRANCH  16  18
ATOM     18  O   UNL     1      -1.527  -1.682   9.955  0.00  0.00    -0.461 OA
BRANCH  18  20
ATOM     19  C   UNL     1      -2.115  -3.950  10.619  0.00  0.00    +0.048 C 
ATOM     20  C   UNL     1      -0.982  -2.937  10.443  0.00  0.00    +0.229 C 
ENDBRANCH  18  20
ENDBRANCH  16  18
ENDBRANCH   5  16
ENDBRANCH   1   9
BRANCH   2  21
ATOM     21  C   UNL     1      -0.686  -0.398   4.402  0.00  0.00    +0.214 C 
BRANCH  21  22
ATOM     22  N   UNL     1      -0.938   0.304   3.142  0.00  0.00    -0.215 N 
ATOM     23  C   UNL     1      -0.026   1.064   2.501  0.00  0.00    +0.247 C 
ATOM     24  O   UNL     1       1.115   1.288   2.845  0.00  0.00    -0.273 OA
ATOM     25  C   UNL     1      -0.725   1.577   1.263  0.00  0.00    +0.115 C 
ATOM     26  C   UNL     1      -0.013   1.086   0.008  0.00  0.00    +0.035 C 
ATOM     27  C   UNL     1      -0.752   1.592  -1.233  0.00  0.00    +0.003 C 
ATOM     28  C   UNL     1      -0.790   3.122  -1.213  0.00  0.00    +0.000 C 
ATOM     29  C   UNL     1      -1.529   3.598   0.039  0.00  0.00    +0.006 C 
ATOM     30  C   UNL     1      -0.793   3.100   1.285  0.00  0.00    +0.018 C 
ATOM     31  C   UNL     1      -1.542   3.559   2.537  0.00  0.00    +0.010 C 
ATOM     32  N   UNL     1      -2.073   1.000   1.350  0.00  0.00    -0.285 N 
ATOM     33  C   UNL     1      -2.103   0.271   2.482  0.00  0.00    +0.310 C 
ATOM     34  O   UNL     1      -3.077  -0.348   2.862  0.00  0.00    -0.252 OA
ATOM     35  H   UNL     1      -2.798   1.120   0.717  0.00  0.00    +0.151 HD
ENDBRANCH  21  22
ENDBRANCH   2  21
TORSDOF 7
