REMARK  Name = ZINC27322223
REMARK  16 active torsions:
REMARK  status: ('A' for Active; 'I' for Inactive)
REMARK    1  A    between atoms: C_1  and  C_2
REMARK    2  A    between atoms: C_2  and  C_3
REMARK    3  A    between atoms: C_3  and  C_4
REMARK    4  A    between atoms: C_4  and  N_5
REMARK    5  A    between atoms: C_6  and  N_37
REMARK    6  A    between atoms: C_7  and  N_14
REMARK    7  A    between atoms: N_14  and  C_15
REMARK    8  A    between atoms: N_14  and  C_33
REMARK    9  A    between atoms: C_15  and  C_16
REMARK   10  A    between atoms: C_18  and  O_19
REMARK   11  A    between atoms: C_28  and  O_30
REMARK   12  A    between atoms: O_30  and  C_31
REMARK   13  A    between atoms: C_31  and  C_32
REMARK   14  A    between atoms: C_33  and  C_34
REMARK   15  A    between atoms: C_34  and  C_35
REMARK   16  A    between atoms: C_34  and  C_36
REMARK                            x       y       z     vdW  Elec       q    Type
REMARK                         _______ _______ _______ _____ _____    ______ ____
ROOT
ATOM      1  N   UNL     1       1.190   3.697  -0.248  0.00  0.00    -0.319 N 
ENDROOT
BRANCH   1   4
ATOM      2  N   UNL     1      -0.126   0.314  -0.790  0.00  0.00    -0.280 N 
ATOM      3  C   UNL     1      -0.087   1.676  -0.599  0.00  0.00    +0.127 A 
ATOM      4  C   UNL     1       1.123   2.298  -0.445  0.00  0.00    +0.134 A 
ATOM      5  C   UNL     1       2.297   1.525  -0.486  0.00  0.00    +0.277 A 
ATOM      6  O   UNL     1       3.386   2.057  -0.351  0.00  0.00    -0.266 OA
ATOM      7  N   UNL     1       2.211   0.194  -0.675  0.00  0.00    -0.273 N 
ATOM      8  H   UNL     1       3.125  -0.417  -0.709  0.00  0.00    +0.173 HD
ATOM      9  C   UNL     1       1.014  -0.401  -0.826  0.00  0.00    +0.331 A 
ATOM     10  O   UNL     1       0.961  -1.604  -0.996  0.00  0.00    -0.246 OA
BRANCH   3  11
ATOM     11  N   UNL     1      -1.253   2.407  -0.569  0.00  0.00    -0.343 N 
ATOM     12  H   UNL     1      -1.216   3.495  -0.416  0.00  0.00    +0.144 HD
ATOM     13  H   UNL     1      -2.221   1.902  -0.698  0.00  0.00    +0.144 HD
ENDBRANCH   3  11
BRANCH   2  14
ATOM     14  C   UNL     1      -1.415  -0.362  -0.956  0.00  0.00    +0.128 C 
BRANCH  14  15
ATOM     15  C   UNL     1      -1.783  -0.400  -2.440  0.00  0.00    +0.021 C 
BRANCH  15  17
ATOM     16  C   UNL     1      -3.498  -1.143  -4.098  0.00  0.00    +0.004 C 
ATOM     17  C   UNL     1      -3.130  -1.106  -2.614  0.00  0.00    -0.002 C 
ENDBRANCH  15  17
ENDBRANCH  14  15
ENDBRANCH   2  14
ENDBRANCH   1   4
BRANCH   1  18
ATOM     18  C   UNL     1       1.748   4.016   1.073  0.00  0.00    +0.141 C 
BRANCH  18  19
ATOM     19  C   UNL     1       1.579   5.488   1.348  0.00  0.00    -0.013 A 
ATOM     20  C   UNL     1       2.612   6.353   1.174  0.00  0.00    +0.093 A 
ATOM     21  C   UNL     1       2.430   7.726   1.437  0.00  0.00    +0.285 A 
ATOM     22  O   UNL     1       1.252   8.212   1.858  0.00  0.00    -0.425 OA
ATOM     23  C   UNL     1       0.185   7.407   2.051  0.00  0.00    +0.141 A 
ATOM     24  C   UNL     1       0.295   6.026   1.803  0.00  0.00    +0.022 A 
ATOM     25  C   UNL     1      -0.806   5.187   2.007  0.00  0.00    +0.014 A 
ATOM     26  C   UNL     1      -1.989   5.713   2.436  0.00  0.00    +0.024 A 
ATOM     27  C   UNL     1      -2.107   7.081   2.680  0.00  0.00    +0.040 A 
ATOM     28  C   UNL     1      -1.024   7.926   2.488  0.00  0.00    +0.070 A 
ATOM     29  N   UNL     1      -3.324   7.604   3.119  0.00  0.00    -0.251 N 
ATOM     30  C   UNL     1      -3.703   8.840   2.737  0.00  0.00    +0.405 C 
ATOM     31  O   UNL     1      -3.034   9.460   1.935  0.00  0.00    -0.226 OA
ATOM     32  H   UNL     1      -3.973   7.008   3.777  0.00  0.00    +0.158 HD
BRANCH  21  33
ATOM     33  O   UNL     1       3.365   8.490   1.277  0.00  0.00    -0.480 OA
ATOM     34  H   UNL     1       3.237   9.564   1.478  0.00  0.00    +0.295 HD
ENDBRANCH  21  33
BRANCH  30  35
ATOM     35  O   UNL     1      -4.824   9.387   3.246  0.00  0.00    -0.450 OA
BRANCH  35  36
ATOM     36  C   UNL     1      -5.171  10.721   2.789  0.00  0.00    +0.230 C 
ATOM     37  C   UNL     1      -6.465  11.172   3.471  0.00  0.00    +0.048 C 
ENDBRANCH  35  36
ENDBRANCH  30  35
ENDBRANCH  18  19
ENDBRANCH   1  18
BRANCH   1  38
ATOM     38  C   UNL     1       1.966   4.342  -1.316  0.00  0.00    +0.108 C 
BRANCH  38  39
ATOM     39  C   UNL     1       1.176   4.284  -2.625  0.00  0.00    +0.000 C 
ATOM     40  C   UNL     1      -0.099   5.119  -2.490  0.00  0.00    +0.009 C 
ATOM     41  C   UNL     1       2.033   4.843  -3.763  0.00  0.00    +0.009 C 
ENDBRANCH  38  39
ENDBRANCH   1  38
TORSDOF 12
