REMARK  Name = ZINC63697400
REMARK  10 active torsions:
REMARK  status: ('A' for Active; 'I' for Inactive)
REMARK    1  A    between atoms: C_1  and  C_2
REMARK    2  A    between atoms: C_2  and  O_3
REMARK    3  A    between atoms: O_3  and  C_4
REMARK    4  A    between atoms: C_8  and  C_13
REMARK    5  A    between atoms: C_9  and  O_10
REMARK    6  A    between atoms: O_10  and  C_11
REMARK    7  A    between atoms: C_11  and  C_12
REMARK    8  A    between atoms: C_13  and  C_14
REMARK    9  A    between atoms: C_29  and  C_31
REMARK   10  A    between atoms: C_34  and  C_37
REMARK                            x       y       z     vdW  Elec       q    Type
REMARK                         _______ _______ _______ _____ _____    ______ ____
ROOT
ATOM      1  C   UNL     1       3.624  -4.496  -3.768  0.00  0.00    +0.221 C 
ATOM      2  O   UNL     1       3.955  -4.016  -2.705  0.00  0.00    -0.275 OA
ATOM      3  N   UNL     1       4.562  -4.951  -4.623  0.00  0.00    -0.292 N 
ATOM      4  C   UNL     1       4.153  -5.525  -5.909  0.00  0.00    +0.113 C 
ATOM      5  C   UNL     1       4.689  -6.964  -6.021  0.00  0.00    +0.052 C 
ATOM      6  C   UNL     1       6.128  -6.926  -5.571  0.00  0.00    -0.035 C 
ATOM      7  C   UNL     1       7.240  -7.366  -6.148  0.00  0.00    -0.001 A 
ATOM      8  C   UNL     1       7.464  -8.143  -7.377  0.00  0.00    +0.010 A 
ATOM      9  C   UNL     1       8.760  -8.410  -7.690  0.00  0.00    +0.001 A 
ATOM     10  C   UNL     1       9.842  -7.985  -6.912  0.00  0.00    +0.002 A 
ATOM     11  C   UNL     1       9.727  -7.273  -5.762  0.00  0.00    +0.026 A 
ATOM     12  C   UNL     1       8.413  -6.939  -5.325  0.00  0.00    +0.043 A 
ATOM     13  N   UNL     1       8.016  -6.296  -4.267  0.00  0.00    -0.375 N 
ATOM     14  C   UNL     1       6.553  -6.289  -4.254  0.00  0.00    +0.131 C 
ATOM     15  C   UNL     1       5.984  -4.861  -4.258  0.00  0.00    +0.133 C 
ATOM     16  H   UNL     1       8.592  -5.891  -3.600  0.00  0.00    +0.160 HD
ENDROOT
BRANCH  15  17
ATOM     17  C   UNL     1       6.718  -4.019  -5.270  0.00  0.00    -0.025 A 
ATOM     18  C   UNL     1       6.694  -4.368  -6.607  0.00  0.00    +0.006 A 
ATOM     19  C   UNL     1       7.368  -3.595  -7.535  0.00  0.00    +0.004 A 
ATOM     20  C   UNL     1       8.065  -2.474  -7.125  0.00  0.00    -0.050 A 
ATOM     21  C   UNL     1       8.088  -2.125  -5.788  0.00  0.00    +0.004 A 
ATOM     22  C   UNL     1       7.411  -2.895  -4.861  0.00  0.00    +0.006 A 
ATOM     23  C   UNL     1       8.799  -1.633  -8.137  0.00  0.00    +0.044 C 
ENDBRANCH  15  17
BRANCH   1  24
ATOM     24  C   UNL     1       2.165  -4.584  -4.133  0.00  0.00    +0.135 C 
BRANCH  24  29
ATOM     25  C   UNL     1       0.328  -2.122  -1.921  0.00  0.00    +0.162 A 
ATOM     26  C   UNL     1      -0.201  -2.966  -0.957  0.00  0.00    +0.049 A 
ATOM     27  C   UNL     1       0.036  -4.326  -1.024  0.00  0.00    +0.004 A 
ATOM     28  C   UNL     1       0.801  -4.848  -2.051  0.00  0.00    +0.008 A 
ATOM     29  C   UNL     1       1.331  -4.012  -3.016  0.00  0.00    +0.007 A 
ATOM     30  C   UNL     1       1.092  -2.648  -2.958  0.00  0.00    +0.165 A 
BRANCH  25  31
ATOM     31  O   UNL     1       0.095  -0.784  -1.857  0.00  0.00    -0.489 OA
BRANCH  31  33
ATOM     32  C   UNL     1      -0.851   1.204  -0.861  0.00  0.00    +0.048 C 
ATOM     33  C   UNL     1      -0.698  -0.315  -0.765  0.00  0.00    +0.226 C 
ENDBRANCH  31  33
ENDBRANCH  25  31
BRANCH  30  34
ATOM     34  O   UNL     1       1.609  -1.825  -3.909  0.00  0.00    -0.488 OA
BRANCH  34  35
ATOM     35  C   UNL     1       2.908  -1.283  -3.663  0.00  0.00    +0.226 C 
ATOM     36  C   UNL     1       3.318  -0.388  -4.835  0.00  0.00    +0.048 C 
ENDBRANCH  34  35
ENDBRANCH  30  34
ENDBRANCH  24  29
ENDBRANCH   1  24
TORSDOF 7
