REMARK  Name = ZINC03066363
REMARK  8 active torsions:
REMARK  status: ('A' for Active; 'I' for Inactive)
REMARK    1  A    between atoms: C_2  and  S_14
REMARK    2  A    between atoms: C_5  and  O_8
REMARK    3  A    between atoms: O_8  and  C_9
REMARK    4  A    between atoms: C_9  and  C_10
REMARK    5  A    between atoms: S_14  and  C_17
REMARK    6  A    between atoms: C_20  and  O_24
REMARK    7  A    between atoms: O_24  and  C_25
REMARK    8  A    between atoms: C_25  and  C_26
REMARK                            x       y       z     vdW  Elec       q    Type
REMARK                         _______ _______ _______ _____ _____    ______ ____
ROOT
ATOM      1  S   UNL     1       1.627  -0.033   6.366  0.00  0.00    +0.025 S 
ATOM      2  O   UNL     1       1.481  -1.443   6.463  0.00  0.00    -0.164 OA
ATOM      3  O   UNL     1       2.891   0.610   6.461  0.00  0.00    -0.164 OA
ENDROOT
BRANCH   1   5
ATOM      4  C   UNL     1      -0.012  -0.363   4.210  0.00  0.00    +0.051 A 
ATOM      5  C   UNL     1       0.937   0.440   4.816  0.00  0.00    +0.097 A 
ATOM      6  C   UNL     1       1.344   1.612   4.207  0.00  0.00    +0.051 A 
ATOM      7  C   UNL     1       0.804   1.986   2.991  0.00  0.00    +0.086 A 
ATOM      8  C   UNL     1      -0.149   1.182   2.380  0.00  0.00    +0.158 A 
ATOM      9  C   UNL     1      -0.560   0.008   2.996  0.00  0.00    +0.086 A 
ATOM     10 CL   UNL     1      -1.757  -0.996   2.239  0.00  0.00    -0.080 Cl
ATOM     11 CL   UNL     1       1.317   3.458   2.227  0.00  0.00    -0.080 Cl
BRANCH   8  12
ATOM     12  O   UNL     1      -0.682   1.547   1.184  0.00  0.00    -0.480 OA
BRANCH  12  13
ATOM     13  C   UNL     1      -0.013   1.086   0.008  0.00  0.00    +0.324 C 
BRANCH  13  14
ATOM     14  C   UNL     1      -0.742   1.585  -1.213  0.00  0.00    +0.248 C 
ATOM     15  O   UNL     1      -1.736   2.268  -1.088  0.00  0.00    -0.272 OA
ATOM     16  N   UNL     1      -0.288   1.272  -2.443  0.00  0.00    -0.327 N 
ATOM     17  H   UNL     1      -0.820   1.637  -3.334  0.00  0.00    +0.145 HD
ATOM     18  H   UNL     1       0.614   0.653  -2.556  0.00  0.00    +0.145 HD
ENDBRANCH  13  14
ENDBRANCH  12  13
ENDBRANCH   8  12
ENDBRANCH   1   5
BRANCH   1  19
ATOM     19  C   UNL     1       0.611   0.666   7.624  0.00  0.00    +0.097 A 
ATOM     20  C   UNL     1       0.895   1.925   8.120  0.00  0.00    +0.051 A 
ATOM     21  C   UNL     1       0.097   2.479   9.104  0.00  0.00    +0.086 A 
ATOM     22  C   UNL     1      -0.984   1.764   9.601  0.00  0.00    +0.158 A 
ATOM     23  C   UNL     1      -1.264   0.499   9.106  0.00  0.00    +0.086 A 
ATOM     24  C   UNL     1      -0.465  -0.047   8.118  0.00  0.00    +0.051 A 
ATOM     25 CL   UNL     1      -2.615  -0.398   9.725  0.00  0.00    -0.080 Cl
ATOM     26 CL   UNL     1       0.449   4.063   9.720  0.00  0.00    -0.080 Cl
BRANCH  22  27
ATOM     27  O   UNL     1      -1.768   2.304  10.572  0.00  0.00    -0.480 OA
BRANCH  27  28
ATOM     28  C   UNL     1      -1.392   2.047  11.927  0.00  0.00    +0.324 C 
BRANCH  28  29
ATOM     29  C   UNL     1      -2.370   2.720  12.856  0.00  0.00    +0.248 C 
ATOM     30  O   UNL     1      -3.297   3.357  12.402  0.00  0.00    -0.272 OA
ATOM     31  N   UNL     1      -2.214   2.614  14.190  0.00  0.00    -0.327 N 
ATOM     32  H   UNL     1      -2.927   3.105  14.868  0.00  0.00    +0.145 HD
ATOM     33  H   UNL     1      -1.373   2.037  14.601  0.00  0.00    +0.145 HD
ENDBRANCH  28  29
ENDBRANCH  27  28
ENDBRANCH  22  27
ENDBRANCH   1  19
TORSDOF 8
