REMARK  Name = ZINC00173162
REMARK  8 active torsions:
REMARK  status: ('A' for Active; 'I' for Inactive)
REMARK    1  A    between atoms: C_1  and  C_2
REMARK    2  A    between atoms: C_2  and  C_20
REMARK    3  A    between atoms: C_4  and  N_9
REMARK    4  A    between atoms: C_6  and  C_7
REMARK    5  A    between atoms: C_6  and  C_8
REMARK    6  A    between atoms: N_9  and  C_10
REMARK    7  A    between atoms: C_10  and  N_12
REMARK    8  A    between atoms: N_12  and  C_13
REMARK                            x       y       z     vdW  Elec       q    Type
REMARK                         _______ _______ _______ _____ _____    ______ ____
ROOT
ATOM      1  N   UNL     1       2.420  -4.080  -0.247  0.00  0.00    -0.324 N 
ATOM      2  H   UNL     1       1.586  -4.575  -0.242  0.00  0.00    +0.148 HD
ENDROOT
BRANCH   1   6
ATOM      3  C   UNL     1       5.813  -6.556   1.083  0.00  0.00    -0.010 C 
ATOM      4  C   UNL     1       4.833  -7.000  -0.009  0.00  0.00    -0.072 C 
ATOM      5  C   UNL     1       3.525  -6.226   0.132  0.00  0.00    +0.009 C 
ATOM      6  C   UNL     1       3.697  -4.794  -0.374  0.00  0.00    +0.069 C 
ATOM      7  C   UNL     1       4.101  -4.845  -1.847  0.00  0.00    +0.009 C 
ATOM      8  C   UNL     1       5.417  -5.601  -2.011  0.00  0.00    -0.072 C 
ATOM      9  C   UNL     1       6.579  -4.715  -1.547  0.00  0.00    -0.010 C 
ATOM     10  C   UNL     1       5.617  -5.864  -3.521  0.00  0.00    -0.010 C 
ATOM     11  C   UNL     1       4.519  -8.493   0.239  0.00  0.00    -0.010 C 
ATOM     12  N   UNL     1       5.457  -6.937  -1.359  0.00  0.00    +0.386 N 
ATOM     13  H   UNL     1       4.966  -7.603  -1.967  0.00  0.00    -0.084 HD
ATOM     14  H   UNL     1       6.440  -7.217  -1.268  0.00  0.00    -0.084 HD
ENDBRANCH   1   6
BRANCH   1  15
ATOM     15  C   UNL     1       2.408  -2.736  -0.138  0.00  0.00    +0.135 C 
ATOM     16  S   UNL     1       3.880  -1.863  -0.147  0.00  0.00    -0.019 S 
BRANCH  15  17
ATOM     17  N   UNL     1       1.236  -2.081  -0.021  0.00  0.00    -0.297 N 
ATOM     18  H   UNL     1       0.408  -2.579   0.065  0.00  0.00    +0.154 HD
BRANCH  17  19
ATOM     19  C   UNL     1       1.213  -0.681  -0.025  0.00  0.00    +0.033 A 
ATOM     20  C   UNL     1       2.012   0.025  -0.915  0.00  0.00    +0.026 A 
ATOM     21  C   UNL     1       1.988   1.406  -0.916  0.00  0.00    +0.040 A 
ATOM     22  C   UNL     1       1.170   2.087  -0.030  0.00  0.00    +0.124 A 
ATOM     23  C   UNL     1       0.373   1.384   0.859  0.00  0.00    +0.040 A 
ATOM     24  C   UNL     1       0.393   0.003   0.863  0.00  0.00    +0.026 A 
ATOM     25  F   UNL     1       1.149   3.437  -0.033  0.00  0.00    -0.205 F 
ENDBRANCH  17  19
ENDBRANCH  15  17
ENDBRANCH   1  15
TORSDOF 4
