REMARK  Name = ZINC67269548
REMARK  9 active torsions:
REMARK  status: ('A' for Active; 'I' for Inactive)
REMARK    1  A    between atoms: C_1  and  C_2
REMARK    2  A    between atoms: C_2  and  N_3
REMARK    3  A    between atoms: N_6  and  C_7
REMARK    4  A    between atoms: C_7  and  C_12
REMARK    5  A    between atoms: N_14  and  C_15
REMARK    6  A    between atoms: C_15  and  C_16
REMARK    7  A    between atoms: C_16  and  C_18
REMARK    8  A    between atoms: C_16  and  N_19
REMARK    9  A    between atoms: C_22  and  C_25
REMARK                            x       y       z     vdW  Elec       q    Type
REMARK                         _______ _______ _______ _____ _____    ______ ____
ROOT
ATOM      1  C   UNL     1       0.078  -4.102   2.932  0.00  0.00    +0.237 C 
ATOM      2  O   UNL     1      -0.292  -4.799   3.853  0.00  0.00    -0.273 OA
ATOM      3  N   UNL     1      -0.777  -3.788   1.939  0.00  0.00    -0.315 N 
ATOM      4  H   UNL     1      -0.506  -3.167   1.244  0.00  0.00    +0.149 HD
ENDROOT
BRANCH   1   5
ATOM      5  C   UNL     1       1.493  -3.586   2.899  0.00  0.00    +0.112 C 
ATOM      6  C   UNL     1       2.421  -4.628   2.240  0.00  0.00    +0.035 C 
ATOM      7  C   UNL     1       3.739  -4.527   3.046  0.00  0.00    +0.003 C 
ATOM      8  C   UNL     1       3.238  -4.303   4.495  0.00  0.00    +0.003 C 
ATOM      9  C   UNL     1       2.013  -3.380   4.333  0.00  0.00    +0.035 C 
BRANCH   5  13
ATOM     10  N   UNL     1       1.218  -1.127   0.181  0.00  0.00    -0.300 N 
ATOM     11  C   UNL     1       1.268  -2.302   0.841  0.00  0.00    +0.300 C 
ATOM     12  O   UNL     1       1.060  -3.342   0.246  0.00  0.00    -0.253 OA
ATOM     13  N   UNL     1       1.550  -2.323   2.159  0.00  0.00    -0.285 N 
ATOM     14  H   UNL     1       1.384  -0.298   0.655  0.00  0.00    +0.150 HD
ATOM     15  H   UNL     1       1.790  -1.503   2.617  0.00  0.00    +0.151 HD
BRANCH  10  17
ATOM     16  C   UNL     1       0.917   0.342  -1.750  0.00  0.00    +0.024 C 
ATOM     17  C   UNL     1       0.912  -1.104  -1.251  0.00  0.00    +0.102 C 
ENDBRANCH  10  17
ENDBRANCH   5  13
ENDBRANCH   1   5
BRANCH   3  18
ATOM     18  C   UNL     1      -2.115  -4.383   1.908  0.00  0.00    +0.089 C 
BRANCH  18  19
ATOM     19  C   UNL     1      -2.843  -3.938   0.638  0.00  0.00    -0.054 C 
ATOM     20  C   UNL     1      -3.019  -2.418   0.657  0.00  0.00    -0.012 C 
BRANCH  19  21
ATOM     21  N   UNL     1      -4.162  -4.582   0.578  0.00  0.00    +0.382 N 
ATOM     22  C   UNL     1      -3.990  -6.039   0.529  0.00  0.00    -0.078 C 
ATOM     23  C   UNL     1      -5.361  -6.719   0.547  0.00  0.00    -0.016 C 
ATOM     24  C   UNL     1      -6.170  -6.257  -0.668  0.00  0.00    -0.018 C 
ATOM     25  C   UNL     1      -6.279  -4.730  -0.647  0.00  0.00    -0.016 C 
ATOM     26  C   UNL     1      -4.874  -4.124  -0.621  0.00  0.00    -0.078 C 
ATOM     27  C   UNL     1      -7.571  -6.871  -0.614  0.00  0.00    +0.007 C 
ATOM     28  H   UNL     1      -4.694  -4.336   1.399  0.00  0.00    -0.081 HD
ENDBRANCH  19  21
ENDBRANCH  18  19
ENDBRANCH   3  18
TORSDOF 6
