REMARK  Name = ZINC49147849
REMARK  9 active torsions:
REMARK  status: ('A' for Active; 'I' for Inactive)
REMARK    1  A    between atoms: C_1  and  C_2
REMARK    2  A    between atoms: C_2  and  C_3
REMARK    3  A    between atoms: C_3  and  C_5
REMARK    4  A    between atoms: C_3  and  N_8
REMARK    5  A    between atoms: C_5  and  C_6
REMARK    6  A    between atoms: C_5  and  C_7
REMARK    7  A    between atoms: N_11  and  C_12
REMARK    8  A    between atoms: C_12  and  C_20
REMARK    9  A    between atoms: C_16  and  C_19
REMARK                            x       y       z     vdW  Elec       q    Type
REMARK                         _______ _______ _______ _____ _____    ______ ____
ROOT
ATOM      1  N   UNL     1       2.125  -0.091  -1.209  0.00  0.00    -0.296 N 
ATOM      2  C   UNL     1       2.487   1.134  -1.640  0.00  0.00    +0.301 C 
ATOM      3  O   UNL     1       1.647   1.901  -2.067  0.00  0.00    -0.253 OA
ATOM      4  N   UNL     1       3.781   1.508  -1.596  0.00  0.00    -0.284 N 
ATOM      5  H   UNL     1       2.795  -0.703  -0.868  0.00  0.00    +0.151 HD
ATOM      6  H   UNL     1       4.452   0.895  -1.255  0.00  0.00    +0.151 HD
ENDROOT
BRANCH   4   7
ATOM      7  C   UNL     1       4.176   2.839  -2.064  0.00  0.00    +0.137 C 
ATOM      8  C   UNL     1       3.455   3.904  -1.236  0.00  0.00    +0.037 C 
ATOM      9  C   UNL     1       3.835   3.748   0.238  0.00  0.00    +0.003 C 
ATOM     10  C   UNL     1       5.348   3.917   0.395  0.00  0.00    +0.003 C 
ATOM     11  C   UNL     1       6.068   2.852  -0.433  0.00  0.00    -0.012 C 
ATOM     12  C   UNL     1       5.688   3.007  -1.907  0.00  0.00    +0.040 C 
ATOM     13  C   UNL     1       7.581   3.020  -0.276  0.00  0.00    +0.007 C 
BRANCH   7  14
ATOM     14  C   UNL     1       3.801   2.993  -3.515  0.00  0.00    +0.379 C 
ATOM     15  O   UNL     1       3.255   2.075  -4.104  0.00  0.00    -0.244 OA
ATOM     16  O   UNL     1       4.043   4.034  -4.101  0.00  0.00    -0.244 OA
ENDBRANCH   7  14
ENDBRANCH   4   7
BRANCH   1  17
ATOM     17  C   UNL     1       0.718  -0.497  -1.257  0.00  0.00    +0.077 C 
BRANCH  17  18
ATOM     18  C   UNL     1       0.630  -2.023  -1.329  0.00  0.00    +0.003 C 
ATOM     19  C   UNL     1      -0.839  -2.448  -1.378  0.00  0.00    +0.009 C 
ATOM     20  C   UNL     1       1.347  -2.517  -2.587  0.00  0.00    +0.009 C 
ENDBRANCH  17  18
BRANCH  17  22
ATOM     21  C   UNL     1      -0.019   1.526   0.010  0.00  0.00    +0.006 C 
ATOM     22  C   UNL     1       0.002  -0.004   0.002  0.00  0.00    +0.019 C 
ENDBRANCH  17  22
ENDBRANCH   1  17
TORSDOF 5
