REMARK  Name = ZINC56298795
REMARK  9 active torsions:
REMARK  status: ('A' for Active; 'I' for Inactive)
REMARK    1  A    between atoms: C_1  and  N_2
REMARK    2  A    between atoms: C_8  and  C_10
REMARK    3  A    between atoms: C_13  and  N_16
REMARK    4  A    between atoms: C_17  and  C_19
REMARK    5  A    between atoms: C_19  and  C_21
REMARK    6  A    between atoms: C_19  and  N_25
REMARK    7  A    between atoms: C_21  and  C_22
REMARK    8  A    between atoms: C_22  and  S_23
REMARK    9  A    between atoms: S_23  and  C_24
REMARK                            x       y       z     vdW  Elec       q    Type
REMARK                         _______ _______ _______ _____ _____    ______ ____
ROOT
ATOM      1  C   UNL     1      -0.097  -4.218   2.761  0.00  0.00    +0.037 A 
ATOM      2  C   UNL     1       1.152  -3.668   3.060  0.00  0.00    +0.015 A 
ATOM      3  C   UNL     1       1.950  -4.255   4.016  0.00  0.00    +0.024 A 
ATOM      4  C   UNL     1       1.514  -5.395   4.684  0.00  0.00    +0.033 A 
ATOM      5  C   UNL     1       0.270  -5.945   4.389  0.00  0.00    +0.024 A 
ATOM      6  C   UNL     1      -0.535  -5.360   3.438  0.00  0.00    +0.015 A 
ENDROOT
BRANCH   1  14
ATOM      7  C   UNL     1       0.762  -3.993  -3.380  0.00  0.00    -0.096 C 
ATOM      8  N   UNL     1       0.475  -3.360  -2.086  0.00  0.00    +0.380 N 
ATOM      9  C   UNL     1       1.226  -4.050  -1.028  0.00  0.00    -0.060 C 
ATOM     10  C   UNL     1       1.018  -3.320   0.303  0.00  0.00    +0.089 C 
ATOM     11  N   UNL     1      -0.428  -3.213   0.555  0.00  0.00    -0.301 N 
ATOM     12  C   UNL     1      -1.281  -2.682  -0.519  0.00  0.00    +0.089 C 
ATOM     13  C   UNL     1      -0.965  -3.441  -1.811  0.00  0.00    -0.060 C 
ATOM     14  C   UNL     1      -0.955  -3.591   1.736  0.00  0.00    +0.246 C 
ATOM     15  O   UNL     1      -2.138  -3.416   1.958  0.00  0.00    -0.270 OA
ATOM     16  H   UNL     1       0.756  -2.391  -2.117  0.00  0.00    -0.082 HD
ENDBRANCH   1  14
BRANCH   4  17
ATOM     17  N   UNL     1       2.325  -5.987   5.652  0.00  0.00    -0.284 N 
ATOM     18  C   UNL     1       1.768  -6.664   6.676  0.00  0.00    +0.238 C 
ATOM     19  O   UNL     1       0.562  -6.677   6.809  0.00  0.00    -0.273 OA
ATOM     20  H   UNL     1       3.290  -5.912   5.588  0.00  0.00    +0.155 HD
BRANCH  18  21
ATOM     21  C   UNL     1       2.642  -7.403   7.655  0.00  0.00    +0.161 C 
BRANCH  21  22
ATOM     22  N   UNL     1       1.846  -8.415   8.354  0.00  0.00    -0.288 N 
ATOM     23  C   UNL     1       0.778  -8.043   9.088  0.00  0.00    +0.298 C 
ATOM     24  O   UNL     1       0.476  -6.868   9.169  0.00  0.00    -0.253 OA
ATOM     25  N   UNL     1       0.046  -8.973   9.731  0.00  0.00    -0.313 N 
ATOM     26  H   UNL     1       2.087  -9.352   8.289  0.00  0.00    +0.151 HD
ATOM     27  H   UNL     1       0.287  -9.910   9.666  0.00  0.00    +0.146 HD
ATOM     28  H   UNL     1      -0.723  -8.705  10.259  0.00  0.00    +0.146 HD
ENDBRANCH  21  22
BRANCH  21  29
ATOM     29  C   UNL     1       3.219  -6.415   8.671  0.00  0.00    +0.042 C 
BRANCH  29  30
ATOM     30  C   UNL     1       4.204  -7.143   9.588  0.00  0.00    +0.071 C 
BRANCH  30  31
ATOM     31  S   UNL     1       4.886  -5.972  10.793  0.00  0.00    -0.164 S 
ATOM     32  C   UNL     1       6.019  -6.978  11.790  0.00  0.00    +0.084 C 
ENDBRANCH  30  31
ENDBRANCH  29  30
ENDBRANCH  21  29
ENDBRANCH  18  21
ENDBRANCH   4  17
TORSDOF 7
