REMARK  Name = ZINC13400771
REMARK  8 active torsions:
REMARK  status: ('A' for Active; 'I' for Inactive)
REMARK    1  A    between atoms: C_1  and  C_2
REMARK    2  A    between atoms: C_2  and  O_3
REMARK    3  A    between atoms: O_3  and  C_4
REMARK    4  A    between atoms: C_7  and  C_13
REMARK    5  A    between atoms: C_9  and  N_10
REMARK    6  A    between atoms: N_18  and  S_21
REMARK    7  A    between atoms: S_21  and  C_24
REMARK    8  A    between atoms: C_26  and  C_29
REMARK                            x       y       z     vdW  Elec       q    Type
REMARK                         _______ _______ _______ _____ _____    ______ ____
ROOT
ATOM      1  C   UNL     1      -0.014   1.212   0.009  0.00  0.00    +0.247 C 
ATOM      2  O   UNL     1      -0.801   1.809  -0.701  0.00  0.00    -0.270 OA
ATOM      3  N   UNL     1       0.893   1.895   0.733  0.00  0.00    -0.295 N 
ATOM      4  C   UNL     1       1.032   3.350   0.577  0.00  0.00    +0.125 C 
ATOM      5  C   UNL     1       0.867   4.005   1.959  0.00  0.00    +0.128 C 
ATOM      6  N   UNL     1       1.740   3.308   2.914  0.00  0.00    -0.173 NA
ATOM      7  C   UNL     1       1.605   1.853   3.066  0.00  0.00    +0.128 C 
ATOM      8  C   UNL     1       1.766   1.199   1.688  0.00  0.00    +0.125 C 
ENDROOT
BRANCH   1  12
ATOM      9  C   UNL     1      -0.140  -3.028   0.218  0.00  0.00    +0.151 A 
ATOM     10  C   UNL     1       1.084  -2.369   0.238  0.00  0.00    +0.049 A 
ATOM     11  C   UNL     1       1.129  -0.995   0.165  0.00  0.00    +0.017 A 
ATOM     12  C   UNL     1      -0.058  -0.262   0.082  0.00  0.00    +0.039 A 
ATOM     13  C   UNL     1      -1.286  -0.928   0.062  0.00  0.00    +0.049 A 
ATOM     14  C   UNL     1      -1.323  -2.303   0.130  0.00  0.00    +0.168 A 
BRANCH  14  15
ATOM     15  N   UNL     1      -2.623  -3.010   0.109  0.00  0.00    +0.060 N 
ATOM     16  O   UNL     1      -3.660  -2.375   0.032  0.00  0.00    -0.126 OA
ATOM     17  O   UNL     1      -2.656  -4.226   0.169  0.00  0.00    -0.126 OA
ENDBRANCH  14  15
BRANCH   9  18
ATOM     18  O   UNL     1      -0.180  -4.383   0.285  0.00  0.00    -0.490 OA
BRANCH  18  20
ATOM     19  C   UNL     1       0.827  -6.574   0.441  0.00  0.00    +0.048 C 
ATOM     20  C   UNL     1       1.072  -5.065   0.375  0.00  0.00    +0.226 C 
ENDBRANCH  18  20
ENDBRANCH   9  18
ENDBRANCH   1  12
BRANCH   6  21
ATOM     21  S   UNL     1       2.856   4.148   3.804  0.00  0.00    +0.067 S 
ATOM     22  O   UNL     1       2.393   5.490   3.874  0.00  0.00    -0.152 OA
ATOM     23  O   UNL     1       3.119   3.371   4.964  0.00  0.00    -0.152 OA
BRANCH  21  24
ATOM     24  C   UNL     1       4.350   4.180   2.869  0.00  0.00    +0.143 A 
ATOM     25  C   UNL     1       4.749   5.089   1.959  0.00  0.00    +0.051 A 
ATOM     26  C   UNL     1       6.032   4.875   1.337  0.00  0.00    +0.072 A 
ATOM     27  C   UNL     1       6.735   3.751   1.721  0.00  0.00    +0.062 A 
ATOM     28  S   UNL     1       5.695   3.013   2.892  0.00  0.00    -0.076 S 
BRANCH  26  29
ATOM     29  C   UNL     1       6.565   5.810   0.335  0.00  0.00    +0.387 C 
ATOM     30  O   UNL     1       5.923   6.792   0.017  0.00  0.00    -0.241 OA
ATOM     31  O   UNL     1       7.766   5.577  -0.232  0.00  0.00    -0.241 OA
ENDBRANCH  26  29
ENDBRANCH  21  24
ENDBRANCH   6  21
TORSDOF 7
