REMARK  Name = ZINC57779115
REMARK  8 active torsions:
REMARK  status: ('A' for Active; 'I' for Inactive)
REMARK    1  A    between atoms: C_1  and  C_2
REMARK    2  A    between atoms: N_5  and  C_8
REMARK    3  A    between atoms: C_11  and  N_14
REMARK    4  A    between atoms: C_21  and  C_23
REMARK    5  A    between atoms: C_23  and  S_24
REMARK    6  A    between atoms: S_24  and  C_25
REMARK    7  A    between atoms: C_25  and  C_26
REMARK    8  A    between atoms: C_25  and  C_27
REMARK                            x       y       z     vdW  Elec       q    Type
REMARK                         _______ _______ _______ _____ _____    ______ ____
ROOT
ATOM      1  N   UNL     1       2.117  -7.984  -0.054  0.00  0.00    -0.285 N 
ATOM      2  C   UNL     1       3.154  -8.564  -0.737  0.00  0.00    +0.200 A 
ATOM      3  N   UNL     1       3.220  -9.920  -0.828  0.00  0.00    -0.295 N 
ATOM      4  H   UNL     1       2.537 -10.469  -0.412  0.00  0.00    +0.172 HD
ATOM      5  C   UNL     1       4.239 -10.498  -1.499  0.00  0.00    +0.253 A 
ATOM      6  O   UNL     1       4.313 -11.713  -1.591  0.00  0.00    -0.268 OA
ATOM      7  C   UNL     1       5.212  -9.674  -2.091  0.00  0.00    +0.094 A 
ATOM      8  C   UNL     1       5.094  -8.320  -1.967  0.00  0.00    +0.060 A 
ATOM      9  N   UNL     1       4.068  -7.798  -1.299  0.00  0.00    -0.220 NA
ATOM     10  H   UNL     1       1.396  -8.534   0.292  0.00  0.00    +0.155 HD
ENDROOT
BRANCH   1  14
ATOM     11  C   UNL     1       2.057  -3.861   0.537  0.00  0.00    +0.014 A 
ATOM     12  C   UNL     1       0.871  -4.551   0.364  0.00  0.00    +0.023 A 
ATOM     13  C   UNL     1       0.887  -5.918   0.168  0.00  0.00    +0.025 A 
ATOM     14  C   UNL     1       2.097  -6.600   0.144  0.00  0.00    +0.034 A 
ATOM     15  C   UNL     1       3.287  -5.904   0.317  0.00  0.00    +0.025 A 
ATOM     16  C   UNL     1       3.264  -4.537   0.508  0.00  0.00    +0.023 A 
BRANCH  11  21
ATOM     17  C   UNL     1       0.815   1.586   1.256  0.00  0.00    +0.007 C 
ATOM     18  C   UNL     1       0.703   0.077   1.032  0.00  0.00    -0.011 C 
ATOM     19  C   UNL     1       1.455  -0.309  -0.245  0.00  0.00    +0.020 C 
ATOM     20  C   UNL     1       1.407  -1.828  -0.420  0.00  0.00    +0.085 C 
ATOM     21  N   UNL     1       2.037  -2.478   0.735  0.00  0.00    -0.393 NA
ATOM     22  C   UNL     1       1.280  -2.170   1.954  0.00  0.00    +0.085 C 
ATOM     23  C   UNL     1       1.323  -0.664   2.221  0.00  0.00    +0.020 C 
ATOM     24  H   UNL     1       2.983  -2.140   0.834  0.00  0.00    +0.126 HD
ENDBRANCH  11  21
ENDBRANCH   1  14
BRANCH   8  25
ATOM     25  C   UNL     1       6.124  -7.415  -2.591  0.00  0.00    +0.125 C 
BRANCH  25  26
ATOM     26  S   UNL     1       5.431  -6.648  -4.082  0.00  0.00    -0.152 S 
BRANCH  26  27
ATOM     27  C   UNL     1       6.777  -5.604  -4.705  0.00  0.00    +0.041 C 
ATOM     28  C   UNL     1       7.950  -6.487  -5.135  0.00  0.00    +0.018 C 
ATOM     29  C   UNL     1       6.281  -4.794  -5.905  0.00  0.00    +0.018 C 
ENDBRANCH  26  27
ENDBRANCH  25  26
ENDBRANCH   8  25
TORSDOF 5
