REMARK  Name = ZINC48554229
REMARK  3 active torsions:
REMARK  status: ('A' for Active; 'I' for Inactive)
REMARK    1  A    between atoms: C_9  and  C_11
REMARK    2  A    between atoms: C_11  and  N_12
REMARK    3  A    between atoms: C_15  and  O_18
REMARK                            x       y       z     vdW  Elec       q    Type
REMARK                         _______ _______ _______ _____ _____    ______ ____
ROOT
ATOM      1  C   UNL     1      -0.019   1.541   0.011  0.00  0.00    +0.011 C 
ATOM      2  C   UNL     1       1.486   1.879  -0.002  0.00  0.00    +0.056 C 
ATOM      3  C   UNL     1       2.181   0.676   0.631  0.00  0.00    +0.054 A 
ATOM      4  C   UNL     1       1.320  -0.368   0.615  0.00  0.00    +0.014 A 
ATOM      5  S   UNL     1       2.273  -1.663   1.372  0.00  0.00    -0.057 S 
ATOM      6  C   UNL     1       3.677  -0.776   1.646  0.00  0.00    +0.165 A 
ATOM      7  N   UNL     1       3.377   0.409   1.173  0.00  0.00    -0.229 NA
ATOM      8  N   UNL     1       4.865  -1.198   2.232  0.00  0.00    -0.266 N 
ATOM      9  C   UNL     1       5.892  -0.336   2.369  0.00  0.00    +0.202 C 
ATOM     10  O   UNL     1       5.780   0.808   1.980  0.00  0.00    -0.277 OA
ATOM     11  C   UNL     1       0.002  -0.004   0.002  0.00  0.00    +0.045 C 
ATOM     12  H   UNL     1       4.955  -2.112   2.543  0.00  0.00    +0.157 HD
ENDROOT
BRANCH   9  13
ATOM     13  C   UNL     1       7.180  -0.793   3.004  0.00  0.00    +0.019 C 
BRANCH  13  14
ATOM     14  N   UNL     1       8.134   0.324   3.035  0.00  0.00    +0.386 N 
ATOM     15  C   UNL     1       8.483   0.706   1.662  0.00  0.00    -0.076 C 
ATOM     16  C   UNL     1       9.413   1.921   1.687  0.00  0.00    +0.013 C 
ATOM     17  C   UNL     1      10.687   1.566   2.459  0.00  0.00    +0.111 C 
ATOM     18  C   UNL     1      10.306   1.098   3.866  0.00  0.00    +0.013 C 
ATOM     19  C   UNL     1       9.342  -0.087   3.760  0.00  0.00    -0.076 C 
ATOM     20  H   UNL     1       7.713   1.112   3.505  0.00  0.00    -0.081 HD
BRANCH  17  21
ATOM     21  O   UNL     1      11.527   2.718   2.550  0.00  0.00    -0.392 OA
ATOM     22  H   UNL     1      12.354   2.565   3.027  0.00  0.00    +0.210 HD
ENDBRANCH  17  21
ENDBRANCH  13  14
ENDBRANCH   9  13
TORSDOF 3
