REMARK  Name = ZINC52796727
REMARK  8 active torsions:
REMARK  status: ('A' for Active; 'I' for Inactive)
REMARK    1  A    between atoms: C_1  and  C_2
REMARK    2  A    between atoms: C_4  and  N_8
REMARK    3  A    between atoms: N_5  and  C_7
REMARK    4  A    between atoms: N_11  and  N_12
REMARK    5  A    between atoms: C_13  and  C_15
REMARK    6  A    between atoms: C_15  and  C_17
REMARK    7  A    between atoms: C_15  and  O_18
REMARK    8  A    between atoms: O_18  and  C_19
REMARK                            x       y       z     vdW  Elec       q    Type
REMARK                         _______ _______ _______ _____ _____    ______ ____
ROOT
ATOM      1  N   UNL     1      -0.223  -5.483  -3.135  0.00  0.00    -0.230 N 
ATOM      2  C   UNL     1      -0.173  -6.583  -3.913  0.00  0.00    +0.270 C 
ATOM      3  O   UNL     1      -0.348  -6.488  -5.109  0.00  0.00    -0.270 OA
ATOM      4  H   UNL     1      -0.083  -5.558  -2.179  0.00  0.00    +0.173 HD
ENDROOT
BRANCH   1   8
ATOM      5  N   UNL     1      -0.333  -3.235  -1.603  0.00  0.00    -0.253 N 
ATOM      6  C   UNL     1      -0.528  -3.130  -2.932  0.00  0.00    +0.321 C 
ATOM      7  O   UNL     1      -0.750  -2.044  -3.430  0.00  0.00    -0.251 OA
ATOM      8  N   UNL     1      -0.478  -4.230  -3.709  0.00  0.00    -0.218 N 
ATOM      9  H   UNL     1      -0.157  -4.102  -1.205  0.00  0.00    +0.158 HD
ATOM     10  H   UNL     1      -0.618  -4.155  -4.666  0.00  0.00    +0.174 HD
BRANCH   5  14
ATOM     11  C   UNL     1      -0.801   1.502  -0.104  0.00  0.00    +0.067 C 
ATOM     12  C   UNL     1      -0.590   0.010  -0.099  0.00  0.00    +0.062 A 
ATOM     13  C   UNL     1      -0.623  -0.825  -1.220  0.00  0.00    +0.068 A 
ATOM     14  C   UNL     1      -0.385  -2.097  -0.798  0.00  0.00    +0.124 A 
ATOM     15  N   UNL     1      -0.210  -2.057   0.542  0.00  0.00    -0.253 N 
ATOM     16  N   UNL     1      -0.338  -0.724   0.954  0.00  0.00    -0.175 NA
ATOM     17  C   UNL     1       0.070  -3.204   1.410  0.00  0.00    +0.174 C 
ENDBRANCH   5  14
ENDBRANCH   1   8
BRANCH   2  18
ATOM     18  C   UNL     1       0.101  -7.930  -3.295  0.00  0.00    +0.257 C 
ATOM     19  C   UNL     1      -1.051  -8.307  -2.362  0.00  0.00    +0.062 C 
BRANCH  18  20
ATOM     20  O   UNL     1       0.220  -8.911  -4.327  0.00  0.00    -0.480 OA
BRANCH  20  21
ATOM     21  C   UNL     1       0.951 -10.021  -4.041  0.00  0.00    +0.122 A 
ATOM     22  C   UNL     1       1.205 -10.959  -5.032  0.00  0.00    +0.048 A 
ATOM     23  C   UNL     1       1.948 -12.086  -4.740  0.00  0.00    +0.042 A 
ATOM     24  C   UNL     1       2.438 -12.282  -3.460  0.00  0.00    +0.124 A 
ATOM     25  C   UNL     1       2.184 -11.347  -2.470  0.00  0.00    +0.042 A 
ATOM     26  C   UNL     1       1.447 -10.215  -2.761  0.00  0.00    +0.048 A 
ATOM     27  F   UNL     1       3.164 -13.385  -3.176  0.00  0.00    -0.205 F 
ENDBRANCH  20  21
ENDBRANCH  18  20
ENDBRANCH   2  18
TORSDOF 5
