REMARK  Name = ZINC30499546
REMARK  13 active torsions:
REMARK  status: ('A' for Active; 'I' for Inactive)
REMARK    1  A    between atoms: C_1  and  C_2
REMARK    2  A    between atoms: C_2  and  C_3
REMARK    3  A    between atoms: N_5  and  C_6
REMARK    4  A    between atoms: C_9  and  C_12
REMARK    5  A    between atoms: C_12  and  C_14
REMARK    6  A    between atoms: C_12  and  N_15
REMARK    7  A    between atoms: N_15  and  C_16
REMARK    8  A    between atoms: C_16  and  C_18
REMARK    9  A    between atoms: C_16  and  C_19
REMARK   10  A    between atoms: N_21  and  C_22
REMARK   11  A    between atoms: C_25  and  O_28
REMARK   12  A    between atoms: O_28  and  C_29
REMARK   13  A    between atoms: C_29  and  C_30
REMARK                            x       y       z     vdW  Elec       q    Type
REMARK                         _______ _______ _______ _____ _____    ______ ____
ROOT
ATOM      1  N   UNL     1      -6.207  -1.915   1.485  0.00  0.00    +0.391 N 
ATOM      2  H   UNL     1      -5.635  -2.756   1.067  0.00  0.00    -0.084 HD
ATOM      3  H   UNL     1      -5.649  -1.473   2.324  0.00  0.00    -0.084 HD
ENDROOT
BRANCH   1   4
ATOM      4  C   UNL     1      -6.415  -0.899   0.445  0.00  0.00    -0.043 C 
ATOM      5  C   UNL     1      -5.156  -0.789  -0.418  0.00  0.00    -0.009 C 
BRANCH   4   9
ATOM      6  C   UNL     1      -7.218   2.876   2.280  0.00  0.00    +0.033 A 
ATOM      7  C   UNL     1      -6.251   2.035   2.814  0.00  0.00    +0.023 A 
ATOM      8  C   UNL     1      -5.998   0.813   2.222  0.00  0.00    +0.004 A 
ATOM      9  C   UNL     1      -6.698   0.432   1.092  0.00  0.00    -0.062 A 
ATOM     10  C   UNL     1      -7.658   1.270   0.555  0.00  0.00    +0.004 A 
ATOM     11  C   UNL     1      -7.920   2.490   1.146  0.00  0.00    +0.023 A 
BRANCH   6  14
ATOM     12  C   UNL     1      -8.739   4.597   2.902  0.00  0.00    +0.217 C 
ATOM     13  O   UNL     1      -9.626   4.007   2.322  0.00  0.00    -0.275 OA
ATOM     14  N   UNL     1      -7.482   4.112   2.881  0.00  0.00    -0.286 N 
ATOM     15  H   UNL     1      -6.663   4.688   3.337  0.00  0.00    +0.155 HD
BRANCH  12  17
ATOM     16  C   UNL     1     -10.534   6.193   3.520  0.00  0.00    +0.013 C 
ATOM     17  C   UNL     1      -9.044   5.870   3.649  0.00  0.00    +0.093 C 
ENDBRANCH  12  17
ENDBRANCH   6  14
ENDBRANCH   4   9
ENDBRANCH   1   4
BRANCH   1  18
ATOM     18  C   UNL     1      -7.491  -2.422   1.990  0.00  0.00    +0.014 C 
ATOM     19  C   UNL     1      -7.980  -3.558   1.088  0.00  0.00    -0.004 C 
BRANCH  18  20
ATOM     20  C   UNL     1      -7.310  -2.937   3.394  0.00  0.00    +0.203 C 
ATOM     21  O   UNL     1      -6.220  -2.887   3.923  0.00  0.00    -0.277 OA
ATOM     22  N   UNL     1      -8.361  -3.454   4.062  0.00  0.00    -0.287 N 
ATOM     23  H   UNL     1      -9.332  -3.566   3.558  0.00  0.00    +0.155 HD
BRANCH  22  24
ATOM     24  C   UNL     1      -8.215  -3.848   5.399  0.00  0.00    +0.034 A 
ATOM     25  C   UNL     1      -7.026  -4.420   5.829  0.00  0.00    +0.027 A 
ATOM     26  C   UNL     1      -6.881  -4.803   7.148  0.00  0.00    +0.047 A 
ATOM     27  C   UNL     1      -7.928  -4.627   8.040  0.00  0.00    +0.121 A 
ATOM     28  C   UNL     1      -9.119  -4.060   7.610  0.00  0.00    +0.047 A 
ATOM     29  C   UNL     1      -9.263  -3.671   6.293  0.00  0.00    +0.027 A 
BRANCH  27  30
ATOM     30  O   UNL     1      -7.788  -5.010   9.338  0.00  0.00    -0.492 OA
BRANCH  30  31
ATOM     31  C   UNL     1      -6.535  -5.586   9.711  0.00  0.00    +0.225 C 
ATOM     32  C   UNL     1      -6.564  -5.951  11.197  0.00  0.00    +0.048 C 
ENDBRANCH  30  31
ENDBRANCH  27  30
ENDBRANCH  22  24
ENDBRANCH  18  20
ENDBRANCH   1  18
TORSDOF 9
