REMARK  Name = ZINC67389760
REMARK  8 active torsions:
REMARK  status: ('A' for Active; 'I' for Inactive)
REMARK    1  A    between atoms: C_1  and  C_2
REMARK    2  A    between atoms: C_5  and  C_26
REMARK    3  A    between atoms: N_8  and  C_10
REMARK    4  A    between atoms: C_10  and  C_11
REMARK    5  A    between atoms: C_11  and  N_12
REMARK    6  A    between atoms: N_15  and  N_16
REMARK    7  A    between atoms: C_17  and  C_19
REMARK    8  A    between atoms: C_19  and  C_20
REMARK                            x       y       z     vdW  Elec       q    Type
REMARK                         _______ _______ _______ _____ _____    ______ ____
ROOT
ATOM      1  N   UNL     1       2.819  -0.203   4.893  0.00  0.00    -0.300 N 
ATOM      2  C   UNL     1       2.398   0.248   6.091  0.00  0.00    +0.316 C 
ATOM      3  O   UNL     1       1.450   1.007   6.155  0.00  0.00    -0.251 OA
ATOM      4  N   UNL     1       3.026  -0.142   7.217  0.00  0.00    -0.218 N 
ATOM      5  H   UNL     1       3.575  -0.809   4.842  0.00  0.00    +0.150 HD
ATOM      6  H   UNL     1       2.723   0.183   8.079  0.00  0.00    +0.174 HD
ENDROOT
BRANCH   4   7
ATOM      7  N   UNL     1       4.118  -1.017   7.143  0.00  0.00    -0.233 N 
ATOM      8  C   UNL     1       4.747  -1.407   8.270  0.00  0.00    +0.229 C 
ATOM      9  O   UNL     1       4.367  -1.001   9.348  0.00  0.00    -0.274 OA
ATOM     10  H   UNL     1       4.421  -1.342   6.281  0.00  0.00    +0.173 HD
BRANCH   8  11
ATOM     11  C   UNL     1       5.921  -2.349   8.190  0.00  0.00    +0.101 C 
BRANCH  11  12
ATOM     12  C   UNL     1       6.446  -2.630   9.599  0.00  0.00    -0.002 C 
ATOM     13  C   UNL     1       7.003  -1.338  10.203  0.00  0.00    +0.004 C 
ATOM     14  C   UNL     1       7.528  -1.619  11.612  0.00  0.00    +0.000 C 
ATOM     15  C   UNL     1       8.638  -2.669  11.543  0.00  0.00    +0.000 C 
ATOM     16  C   UNL     1       8.082  -3.961  10.939  0.00  0.00    +0.000 C 
ATOM     17  C   UNL     1       7.556  -3.680   9.530  0.00  0.00    +0.004 C 
ENDBRANCH  11  12
ENDBRANCH   8  11
ENDBRANCH   4   7
BRANCH   1  18
ATOM     18  C   UNL     1       2.136   0.221   3.668  0.00  0.00    +0.087 C 
BRANCH  18  19
ATOM     19  C   UNL     1       2.808  -0.431   2.458  0.00  0.00    -0.060 C 
BRANCH  19  25
ATOM     20  C   UNL     1      -0.019   1.526   0.010  0.00  0.00    +0.005 C 
ATOM     21  C   UNL     1       0.002  -0.004   0.002  0.00  0.00    -0.031 C 
ATOM     22  C   UNL     1       0.721  -0.499  -1.257  0.00  0.00    +0.003 C 
ATOM     23  C   UNL     1       2.177  -0.027  -1.220  0.00  0.00    -0.031 C 
ATOM     24  C   UNL     1       2.839  -0.534   0.063  0.00  0.00    -0.076 C 
ATOM     25  N   UNL     1       2.123  -0.005   1.230  0.00  0.00    +0.381 N 
ATOM     26  C   UNL     1       0.744  -0.512   1.240  0.00  0.00    -0.076 C 
ATOM     27  C   UNL     1       2.924  -0.581  -2.434  0.00  0.00    +0.005 C 
ATOM     28  H   UNL     1       2.109   1.003   1.187  0.00  0.00    -0.082 HD
ENDBRANCH  19  25
ENDBRANCH  18  19
ENDBRANCH   1  18
TORSDOF 6
