REMARK  Name = ZINC20533533
REMARK  6 active torsions:
REMARK  status: ('A' for Active; 'I' for Inactive)
REMARK    1  A    between atoms: C_1  and  C_2
REMARK    2  A    between atoms: C_16  and  C_19
REMARK    3  A    between atoms: C_19  and  C_20
REMARK    4  A    between atoms: C_20  and  C_21
REMARK    5  A    between atoms: N_26  and  C_29
REMARK    6  A    between atoms: C_33  and  N_35
REMARK                            x       y       z     vdW  Elec       q    Type
REMARK                         _______ _______ _______ _____ _____    ______ ____
ROOT
ATOM      1  C   UNL     1      -0.018   1.503   0.010  0.00  0.00    +0.047 C 
ATOM      2  C   UNL     1       0.002  -0.004   0.002  0.00  0.00    -0.011 A 
ATOM      3  C   UNL     1       0.006  -0.685  -1.199  0.00  0.00    +0.046 A 
ATOM      4  C   UNL     1       0.025  -2.069  -1.215  0.00  0.00    +0.021 A 
ATOM      5  C   UNL     1       0.040  -2.770  -0.023  0.00  0.00    +0.009 A 
ATOM      6  C   UNL     1       0.035  -2.097   1.178  0.00  0.00    +0.004 A 
ATOM      7  C   UNL     1       0.023  -0.704   1.205  0.00  0.00    +0.043 A 
ATOM      8  N   UNL     1       0.033  -0.246   2.525  0.00  0.00    -0.283 N 
ATOM      9  C   UNL     1       0.059  -1.258   3.413  0.00  0.00    +0.243 C 
ATOM     10  O   UNL     1       0.076  -1.161   4.622  0.00  0.00    -0.273 OA
ATOM     11  C   UNL     1       0.050  -2.533   2.614  0.00  0.00    +0.136 C 
ATOM     12  C   UNL     1      -1.101  -3.448   2.977  0.00  0.00    +0.123 C 
ATOM     13  C   UNL     1      -0.505  -4.768   2.350  0.00  0.00    +0.107 C 
ATOM     14  C   UNL     1       0.878  -4.792   2.842  0.00  0.00    +0.068 C 
ATOM     15  N   UNL     1       1.269  -3.334   2.915  0.00  0.00    -0.295 NA
ATOM     16  C   UNL     1      -1.670  -5.617   2.279  0.00  0.00    +0.232 C 
ATOM     17  O   UNL     1      -1.715  -6.821   2.414  0.00  0.00    -0.274 OA
ATOM     18  N   UNL     1      -2.715  -4.764   2.024  0.00  0.00    -0.210 N 
ATOM     19  C   UNL     1      -2.388  -3.438   2.210  0.00  0.00    +0.233 C 
ATOM     20  O   UNL     1      -3.003  -2.464   1.832  0.00  0.00    -0.274 OA
ATOM     21 CL   UNL     1      -0.014   0.197  -2.694  0.00  0.00    -0.083 Cl
ATOM     22  H   UNL     1       0.022   0.692   2.773  0.00  0.00    +0.155 HD
ATOM     23  H   UNL     1       2.012  -3.119   2.268  0.00  0.00    +0.123 HD
ENDROOT
BRANCH  18  24
ATOM     24  C   UNL     1      -3.988  -5.195   1.626  0.00  0.00    +0.046 A 
ATOM     25  C   UNL     1      -4.991  -4.266   1.381  0.00  0.00    +0.024 A 
ATOM     26  C   UNL     1      -6.245  -4.693   0.990  0.00  0.00    +0.004 A 
ATOM     27  C   UNL     1      -6.502  -6.044   0.841  0.00  0.00    +0.033 A 
ATOM     28  C   UNL     1      -5.505  -6.971   1.085  0.00  0.00    +0.128 A 
ATOM     29  C   UNL     1      -4.247  -6.549   1.471  0.00  0.00    +0.056 A 
BRANCH  28  30
ATOM     30  N   UNL     1      -5.784  -8.416   0.925  0.00  0.00    +0.056 N 
ATOM     31  O   UNL     1      -6.883  -8.785   0.582  0.00  0.00    -0.126 OA
ATOM     32  O   UNL     1      -4.913  -9.227   1.138  0.00  0.00    -0.126 OA
ENDBRANCH  28  30
ENDBRANCH  18  24
BRANCH  14  33
ATOM     33  C   UNL     1       0.944  -5.457   4.218  0.00  0.00    +0.028 C 
BRANCH  33  34
ATOM     34  C   UNL     1       2.404  -5.583   4.655  0.00  0.00    +0.097 C 
BRANCH  34  35
ATOM     35  C   UNL     1       2.469  -6.239   6.011  0.00  0.00    +0.211 C 
ATOM     36  O   UNL     1       1.447  -6.572   6.572  0.00  0.00    -0.276 OA
ATOM     37  N   UNL     1       3.662  -6.454   6.599  0.00  0.00    -0.329 N 
ATOM     38  H   UNL     1       4.479  -6.187   6.150  0.00  0.00    +0.145 HD
ATOM     39  H   UNL     1       3.703  -6.876   7.472  0.00  0.00    +0.145 HD
ENDBRANCH  34  35
ENDBRANCH  33  34
ENDBRANCH  14  33
TORSDOF 5
