REMARK  Name = ZINC36789791
REMARK  10 active torsions:
REMARK  status: ('A' for Active; 'I' for Inactive)
REMARK    1  A    between atoms: C_1  and  C_2
REMARK    2  A    between atoms: C_2  and  C_3
REMARK    3  A    between atoms: C_3  and  C_4
REMARK    4  A    between atoms: C_4  and  C_6
REMARK    5  A    between atoms: C_4  and  N_7
REMARK    6  A    between atoms: N_7  and  C_8
REMARK    7  A    between atoms: N_7  and  C_9
REMARK    8  A    between atoms: C_9  and  C_10
REMARK    9  A    between atoms: N_12  and  C_13
REMARK   10  A    between atoms: C_14  and  N_21
REMARK                            x       y       z     vdW  Elec       q    Type
REMARK                         _______ _______ _______ _____ _____    ______ ____
ROOT
ATOM      1  C   UNL     1       1.741  -2.496   2.137  0.00  0.00    +0.201 C 
ATOM      2  O   UNL     1       1.615  -3.628   2.554  0.00  0.00    -0.278 OA
ATOM      3  N   UNL     1       2.398  -1.576   2.872  0.00  0.00    -0.284 N 
ATOM      4  H   UNL     1       2.434  -0.654   2.575  0.00  0.00    +0.155 HD
ENDROOT
BRANCH   3   5
ATOM      5  C   UNL     1       3.029  -1.954   4.067  0.00  0.00    +0.073 A 
ATOM      6  C   UNL     1       4.351  -1.580   4.308  0.00  0.00    +0.049 A 
ATOM      7  C   UNL     1       4.969  -1.956   5.491  0.00  0.00    +0.044 A 
ATOM      8  C   UNL     1       4.275  -2.700   6.428  0.00  0.00    +0.044 A 
ATOM      9  C   UNL     1       2.964  -3.071   6.189  0.00  0.00    +0.042 A 
ATOM     10  C   UNL     1       2.338  -2.695   5.014  0.00  0.00    +0.065 A 
ATOM     11 CL   UNL     1       0.690  -3.157   4.722  0.00  0.00    -0.082 Cl
ATOM     12 CL   UNL     1       5.052  -3.170   7.908  0.00  0.00    -0.083 Cl
BRANCH   6  13
ATOM     13  N   UNL     1       5.051  -0.829   3.358  0.00  0.00    -0.356 N 
ATOM     14  H   UNL     1       4.617  -0.567   2.531  0.00  0.00    +0.142 HD
ATOM     15  H   UNL     1       5.970  -0.570   3.527  0.00  0.00    +0.142 HD
ENDBRANCH   6  13
ENDBRANCH   3   5
BRANCH   1  16
ATOM     16  C   UNL     1       1.164  -2.117   0.797  0.00  0.00    +0.019 C 
BRANCH  16  17
ATOM     17  N   UNL     1       0.504  -3.286   0.201  0.00  0.00    +0.385 N 
ATOM     18  C   UNL     1       1.512  -4.301  -0.131  0.00  0.00    -0.095 C 
ATOM     19  H   UNL     1      -0.158  -3.670   0.858  0.00  0.00    -0.081 HD
BRANCH  17  20
ATOM     20  C   UNL     1      -0.201  -2.878  -1.022  0.00  0.00    -0.071 C 
ATOM     21  C   UNL     1       0.817  -2.428  -2.072  0.00  0.00    -0.013 C 
BRANCH  20  22
ATOM     22  C   UNL     1      -1.004  -4.062  -1.566  0.00  0.00    -0.016 C 
BRANCH  22  24
ATOM     23  C   UNL     1      -2.994  -5.521  -1.175  0.00  0.00    +0.004 C 
ATOM     24  C   UNL     1      -2.114  -4.423  -0.576  0.00  0.00    -0.005 C 
ENDBRANCH  22  24
ENDBRANCH  20  22
ENDBRANCH  17  20
ENDBRANCH  16  17
ENDBRANCH   1  16
TORSDOF 7
