REMARK  Name = ZINC40463706
REMARK  10 active torsions:
REMARK  status: ('A' for Active; 'I' for Inactive)
REMARK    1  A    between atoms: C_1  and  C_2
REMARK    2  A    between atoms: C_2  and  C_3
REMARK    3  A    between atoms: C_2  and  C_4
REMARK    4  A    between atoms: C_2  and  C_5
REMARK    5  A    between atoms: C_5  and  C_7
REMARK    6  A    between atoms: C_5  and  N_20
REMARK    7  A    between atoms: N_9  and  C_10
REMARK    8  A    between atoms: C_15  and  N_16
REMARK    9  A    between atoms: N_16  and  C_17
REMARK   10  A    between atoms: N_16  and  C_18
REMARK                            x       y       z     vdW  Elec       q    Type
REMARK                         _______ _______ _______ _____ _____    ______ ____
ROOT
ATOM      1  C   UNL     1       2.131   0.025  -1.264  0.00  0.00    +0.203 C 
ATOM      2  O   UNL     1       3.046  -0.695  -0.923  0.00  0.00    -0.277 OA
ATOM      3  N   UNL     1       2.381   1.288  -1.662  0.00  0.00    -0.285 N 
ATOM      4  H   UNL     1       1.662   1.838  -2.011  0.00  0.00    +0.155 HD
ENDROOT
BRANCH   3   5
ATOM      5  C   UNL     1       3.680   1.808  -1.573  0.00  0.00    +0.056 A 
ATOM      6  C   UNL     1       4.575   1.286  -0.652  0.00  0.00    +0.040 A 
ATOM      7  C   UNL     1       5.857   1.799  -0.567  0.00  0.00    +0.020 A 
ATOM      8  C   UNL     1       6.248   2.834  -1.397  0.00  0.00    +0.017 A 
ATOM      9  C   UNL     1       5.362   3.360  -2.318  0.00  0.00    +0.026 A 
ATOM     10  C   UNL     1       4.076   2.847  -2.414  0.00  0.00    +0.051 A 
ATOM     11 BR   UNL     1       7.077   1.086   0.690  0.00  0.00    -0.050 Br
BRANCH  10  12
ATOM     12  N   UNL     1       3.179   3.374  -3.350  0.00  0.00    -0.335 N 
ATOM     13  C   UNL     1       3.106   2.804  -4.697  0.00  0.00    +0.129 C 
ATOM     14  C   UNL     1       2.312   4.496  -2.981  0.00  0.00    +0.129 C 
ENDBRANCH  10  12
ENDBRANCH   3   5
BRANCH   1  15
ATOM     15  C   UNL     1       0.716  -0.492  -1.242  0.00  0.00    +0.019 C 
BRANCH  15  17
ATOM     16  C   UNL     1      -0.005   1.535   0.029  0.00  0.00    +0.009 C 
ATOM     17  C   UNL     1       0.011   0.005   0.022  0.00  0.00    -0.042 C 
ATOM     18  C   UNL     1       0.759  -0.502   1.256  0.00  0.00    +0.009 C 
ATOM     19  C   UNL     1      -1.426  -0.520   0.044  0.00  0.00    +0.009 C 
ENDBRANCH  15  17
BRANCH  15  20
ATOM     20  N   UNL     1       0.732  -1.961  -1.248  0.00  0.00    +0.386 N 
ATOM     21  H   UNL     1       1.225  -2.296  -0.434  0.00  0.00    -0.089 HD
ATOM     22  H   UNL     1      -0.216  -2.307  -1.233  0.00  0.00    -0.089 HD
ATOM     23  H   UNL     1       1.196  -2.289  -2.081  0.00  0.00    -0.089 HD
ENDBRANCH  15  20
ENDBRANCH   1  15
TORSDOF 5
