REMARK  Name = ZINC15030583
REMARK  4 active torsions:
REMARK  status: ('A' for Active; 'I' for Inactive)
REMARK    1  A    between atoms: C_6  and  N_7
REMARK    2  A    between atoms: C_10  and  C_15
REMARK    3  A    between atoms: C_15  and  N_16
REMARK    4  A    between atoms: C_26  and  C_29
REMARK                            x       y       z     vdW  Elec       q    Type
REMARK                         _______ _______ _______ _____ _____    ______ ____
ROOT
ATOM      1  C   UNL     1      -3.772   5.857  -1.313  0.00  0.00    -0.001 C 
ENDROOT
BRANCH   1   2
ATOM      2  N   UNL     1      -3.020   4.641  -0.974  0.00  0.00    +0.385 N 
ATOM      3  C   UNL     1      -3.899   3.450  -0.992  0.00  0.00    -0.077 C 
ATOM      4  C   UNL     1      -3.233   2.218  -0.359  0.00  0.00    +0.000 C 
ATOM      5  C   UNL     1      -1.785   2.089  -0.758  0.00  0.00    +0.104 C 
ATOM      6  N   UNL     1      -0.955   2.768   0.261  0.00  0.00    -0.317 N 
ATOM      7  C   UNL     1      -0.901   4.160   0.117  0.00  0.00    +0.088 C 
ATOM      8  C   UNL     1      -2.292   4.811   0.264  0.00  0.00    -0.059 C 
ATOM      9  C   UNL     1       0.323   2.223   0.306  0.00  0.00    +0.121 A 
ATOM     10  C   UNL     1       0.482   0.848   0.446  0.00  0.00    +0.044 A 
ATOM     11  C   UNL     1       1.759   0.319   0.484  0.00  0.00    +0.017 A 
ATOM     12  C   UNL     1       2.839   1.185   0.382  0.00  0.00    +0.073 A 
ATOM     13  C   UNL     1       2.609   2.539   0.245  0.00  0.00    +0.125 A 
ATOM     14  N   UNL     1       1.379   3.017   0.211  0.00  0.00    -0.240 NA
ATOM     15  H   UNL     1      -2.241   4.474  -1.732  0.00  0.00    -0.081 HD
BRANCH  12  16
ATOM     16  C   UNL     1       4.248   0.653   0.419  0.00  0.00    +0.419 C 
ATOM     17  F   UNL     1       4.668   0.352  -0.881  0.00  0.00    -0.166 F 
ATOM     18  F   UNL     1       5.097   1.618   0.972  0.00  0.00    -0.166 F 
ATOM     19  F   UNL     1       4.288  -0.506   1.201  0.00  0.00    -0.166 F 
ENDBRANCH  12  16
ENDBRANCH   1   2
BRANCH   1  23
ATOM     20  N   UNL     1      -8.263   5.197   0.244  0.00  0.00    -0.284 N 
ATOM     21  C   UNL     1      -7.011   5.749   0.434  0.00  0.00    +0.224 A 
ATOM     22  N   UNL     1      -6.054   5.558  -0.472  0.00  0.00    -0.201 NA
ATOM     23  C   UNL     1      -4.854   6.080  -0.288  0.00  0.00    +0.120 A 
ATOM     24  N   UNL     1      -4.602   6.803   0.789  0.00  0.00    -0.202 NA
ATOM     25  C   UNL     1      -5.555   7.003   1.697  0.00  0.00    +0.217 A 
ATOM     26  N   UNL     1      -6.761   6.474   1.518  0.00  0.00    -0.181 NA
ATOM     27  N   UNL     1      -5.291   7.757   2.822  0.00  0.00    -0.327 N 
ATOM     28  H   UNL     1      -8.496   4.674  -0.695  0.00  0.00    +0.155 HD
ATOM     29  H   UNL     1      -6.079   7.921   3.571  0.00  0.00    +0.145 HD
ATOM     30  H   UNL     1      -4.292   8.193   2.969  0.00  0.00    +0.145 HD
BRANCH  20  36
ATOM     31  C   UNL     1      -8.858   5.297   2.582  0.00  0.00    +0.026 A 
ATOM     32  C   UNL     1      -9.818   5.409   3.569  0.00  0.00    +0.040 A 
ATOM     33  C   UNL     1     -11.155   5.518   3.226  0.00  0.00    +0.124 A 
ATOM     34  C   UNL     1     -11.533   5.521   1.894  0.00  0.00    +0.040 A 
ATOM     35  C   UNL     1     -10.576   5.415   0.904  0.00  0.00    +0.026 A 
ATOM     36  C   UNL     1      -9.234   5.305   1.245  0.00  0.00    +0.034 A 
ATOM     37  F   UNL     1     -12.093   5.622   4.193  0.00  0.00    -0.205 F 
ENDBRANCH  20  36
ENDBRANCH   1  23
TORSDOF 4
