REMARK  Name = ZINC43287107
REMARK  8 active torsions:
REMARK  status: ('A' for Active; 'I' for Inactive)
REMARK    1  A    between atoms: C_1  and  C_2
REMARK    2  A    between atoms: C_2  and  C_4
REMARK    3  A    between atoms: C_2  and  N_21
REMARK    4  A    between atoms: C_4  and  C_6
REMARK    5  A    between atoms: C_4  and  N_12
REMARK    6  A    between atoms: N_12  and  C_13
REMARK    7  A    between atoms: N_12  and  C_14
REMARK    8  A    between atoms: C_14  and  C_15
REMARK                            x       y       z     vdW  Elec       q    Type
REMARK                         _______ _______ _______ _____ _____    ______ ____
ROOT
ATOM      1  C   UNL     1       0.503  -0.580  -1.094  0.00  0.00    +0.079 C 
ENDROOT
BRANCH   1   2
ATOM      2  C   UNL     1       0.398  -2.083  -1.032  0.00  0.00    +0.006 A 
ATOM      3  C   UNL     1       1.214  -2.970  -0.413  0.00  0.00    +0.028 A 
ATOM      4  C   UNL     1       0.920  -4.319  -0.491  0.00  0.00    +0.025 A 
ATOM      5  C   UNL     1      -0.177  -4.713  -1.184  0.00  0.00    +0.060 A 
ATOM      6  S   UNL     1      -0.837  -3.154  -1.749  0.00  0.00    -0.099 S 
ATOM      7 BR   UNL     1       2.030  -5.595   0.356  0.00  0.00    -0.050 Br
ENDBRANCH   1   2
BRANCH   1   9
ATOM      8  C   UNL     1      -1.892  -0.291  -0.446  0.00  0.00    -0.012 C 
ATOM      9  C   UNL     1      -0.447   0.040  -0.068  0.00  0.00    -0.056 C 
BRANCH   9  10
ATOM     10  N   UNL     1      -0.153  -0.505   1.264  0.00  0.00    +0.381 N 
ATOM     11  H   UNL     1      -0.277  -1.506   1.253  0.00  0.00    -0.090 HD
ATOM     12  H   UNL     1       0.800  -0.287   1.514  0.00  0.00    -0.090 HD
ATOM     13  H   UNL     1      -0.779  -0.096   1.941  0.00  0.00    -0.090 HD
ENDBRANCH   9  10
ENDBRANCH   1   9
BRANCH   1  14
ATOM     14  N   UNL     1       0.139  -0.119  -2.440  0.00  0.00    -0.295 NA
ATOM     15  C   UNL     1       0.970  -0.769  -3.462  0.00  0.00    +0.105 C 
BRANCH  14  16
ATOM     16  C   UNL     1       0.231   1.344  -2.538  0.00  0.00    +0.127 C 
BRANCH  16  17
ATOM     17  C   UNL     1      -0.508   1.813  -3.765  0.00  0.00    +0.005 A 
ATOM     18  C   UNL     1      -1.807   2.177  -3.892  0.00  0.00    +0.027 A 
ATOM     19  C   UNL     1      -2.273   2.578  -5.130  0.00  0.00    +0.025 A 
ATOM     20  C   UNL     1      -1.417   2.595  -6.181  0.00  0.00    +0.060 A 
ATOM     21  S   UNL     1       0.103   2.039  -5.428  0.00  0.00    -0.099 S 
ATOM     22 BR   UNL     1      -4.078   3.095  -5.355  0.00  0.00    -0.050 Br
ENDBRANCH  16  17
ENDBRANCH  14  16
ENDBRANCH   1  14
TORSDOF 6
