REMARK  Name = ZINC35081880
REMARK  7 active torsions:
REMARK  status: ('A' for Active; 'I' for Inactive)
REMARK    1  A    between atoms: C_1  and  N_2
REMARK    2  A    between atoms: N_2  and  C_3
REMARK    3  A    between atoms: N_2  and  C_4
REMARK    4  A    between atoms: C_4  and  C_5
REMARK    5  A    between atoms: C_5  and  N_6
REMARK    6  A    between atoms: N_6  and  C_7
REMARK    7  A    between atoms: C_12  and  N_13
REMARK                            x       y       z     vdW  Elec       q    Type
REMARK                         _______ _______ _______ _____ _____    ______ ____
ROOT
ATOM      1  C   UNL     1       0.112  -0.354   4.904  0.00  0.00    +0.050 A 
ATOM      2  C   UNL     1      -1.081   0.333   5.036  0.00  0.00    +0.053 A 
ATOM      3  C   UNL     1      -1.607   0.567   6.306  0.00  0.00    +0.080 A 
ATOM      4  C   UNL     1      -0.913   0.099   7.445  0.00  0.00    +0.067 A 
ATOM      5  C   UNL     1       0.290  -0.592   7.300  0.00  0.00    +0.040 A 
ATOM      6  C   UNL     1       0.796  -0.821   6.036  0.00  0.00    +0.047 A 
ATOM      7  C   UNL     1      -1.497   0.366   8.766  0.00  0.00    +0.259 A 
ATOM      8  O   UNL     1      -0.950  -0.010   9.786  0.00  0.00    -0.267 OA
ATOM      9  N   UNL     1      -2.667   1.044   8.805  0.00  0.00    -0.313 N 
ATOM     10  H   UNL     1      -3.082   1.238   9.661  0.00  0.00    +0.170 HD
ATOM     11  C   UNL     1      -3.267   1.458   7.657  0.00  0.00    +0.199 A 
ATOM     12  N   UNL     1      -2.776   1.238   6.476  0.00  0.00    -0.237 NA
ENDROOT
BRANCH   6  13
ATOM     13  N   UNL     1       2.000  -1.520   5.883  0.00  0.00    -0.357 N 
ATOM     14  H   UNL     1       2.359  -1.679   4.997  0.00  0.00    +0.142 HD
ATOM     15  H   UNL     1       2.474  -1.844   6.665  0.00  0.00    +0.142 HD
ENDBRANCH   6  13
BRANCH   1  16
ATOM     16  N   UNL     1       0.637  -0.589   3.635  0.00  0.00    -0.344 N 
ATOM     17  H   UNL     1       1.472  -1.073   3.537  0.00  0.00    +0.146 HD
BRANCH  16  18
ATOM     18  C   UNL     1      -0.071  -0.103   2.448  0.00  0.00    +0.083 C 
BRANCH  18  19
ATOM     19  C   UNL     1       0.713  -0.491   1.192  0.00  0.00    -0.061 C 
BRANCH  19  21
ATOM     20  C   UNL     1      -0.018   1.465   0.010  0.00  0.00    -0.097 C 
ATOM     21  N   UNL     1       0.002  -0.004   0.002  0.00  0.00    +0.377 N 
ATOM     22  C   UNL     1       0.690  -0.478  -1.207  0.00  0.00    -0.097 C 
ATOM     23  H   UNL     1      -0.945  -0.353   0.009  0.00  0.00    -0.083 HD
ENDBRANCH  19  21
ENDBRANCH  18  19
ENDBRANCH  16  18
ENDBRANCH   1  16
TORSDOF 5
