REMARK  Name = ZINC16591693
REMARK  6 active torsions:
REMARK  status: ('A' for Active; 'I' for Inactive)
REMARK    1  A    between atoms: C_4  and  N_17
REMARK    2  A    between atoms: C_6  and  S_7
REMARK    3  A    between atoms: S_7  and  N_10
REMARK    4  A    between atoms: C_18  and  C_20
REMARK    5  A    between atoms: C_20  and  N_58
REMARK    6  A    between atoms: C_24  and  C_27
REMARK                            x       y       z     vdW  Elec       q    Type
REMARK                         _______ _______ _______ _____ _____    ______ ____
ROOT
ATOM      1  C   UNL     1      -3.335   4.465  -1.442  0.00  0.00    +0.030 A 
ATOM      2  C   UNL     1      -4.473   3.928  -2.016  0.00  0.00    +0.024 A 
ATOM      3  C   UNL     1      -5.396   3.262  -1.232  0.00  0.00    +0.062 A 
ATOM      4  C   UNL     1      -5.176   3.128   0.134  0.00  0.00    +0.054 A 
ATOM      5  C   UNL     1      -4.031   3.664   0.706  0.00  0.00    +0.053 A 
ATOM      6  C   UNL     1      -3.112   4.329  -0.084  0.00  0.00    +0.107 A 
ATOM      7 CL   UNL     1      -6.826   2.593  -1.953  0.00  0.00    -0.082 Cl
ENDROOT
BRANCH   4   8
ATOM      8  N   UNL     1      -6.109   2.455   0.931  0.00  0.00    -0.286 N 
ATOM      9  C   UNL     1      -6.194   2.730   2.248  0.00  0.00    +0.201 C 
ATOM     10  O   UNL     1      -5.533   3.630   2.723  0.00  0.00    -0.278 OA
ATOM     11  H   UNL     1      -6.695   1.790   0.536  0.00  0.00    +0.155 HD
BRANCH   9  12
ATOM     12  C   UNL     1      -7.108   1.920   3.130  0.00  0.00    +0.019 C 
BRANCH  12  18
ATOM     13  C   UNL     1      -7.551   3.777   4.617  0.00  0.00    -0.078 C 
ATOM     14  C   UNL     1      -7.578   4.203   6.087  0.00  0.00    -0.018 C 
ATOM     15  C   UNL     1      -6.158   4.141   6.657  0.00  0.00    +0.008 C 
ATOM     16  C   UNL     1      -5.611   2.721   6.490  0.00  0.00    +0.077 C 
ATOM     17  C   UNL     1      -5.641   2.339   5.009  0.00  0.00    -0.066 C 
ATOM     18  N   UNL     1      -7.037   2.394   4.527  0.00  0.00    +0.386 N 
ATOM     19  H   UNL     1      -7.617   1.785   5.116  0.00  0.00    -0.081 HD
BRANCH  16  20
ATOM     20  C   UNL     1      -4.170   2.666   7.004  0.00  0.00    +0.391 C 
ATOM     21  F   UNL     1      -4.144   3.019   8.357  0.00  0.00    -0.171 F 
ATOM     22  F   UNL     1      -3.671   1.368   6.851  0.00  0.00    -0.171 F 
ATOM     23  F   UNL     1      -3.380   3.559   6.273  0.00  0.00    -0.171 F 
ENDBRANCH  16  20
ENDBRANCH  12  18
ENDBRANCH   9  12
ENDBRANCH   4   8
BRANCH   6  24
ATOM     24  S   UNL     1      -1.658   5.010   0.642  0.00  0.00    +0.061 S 
ATOM     25  O   UNL     1      -1.953   5.227   2.015  0.00  0.00    -0.153 OA
ATOM     26  O   UNL     1      -1.226   6.055  -0.219  0.00  0.00    -0.153 OA
BRANCH  24  27
ATOM     27  N   UNL     1      -0.489   3.838   0.588  0.00  0.00    -0.177 NA
ATOM     28  C   UNL     1      -0.328   2.868   1.723  0.00  0.00    +0.109 C 
ATOM     29  C   UNL     1      -0.772   1.559   1.252  0.00  0.00    +0.017 C 
ATOM     30  C   UNL     1      -0.020   1.040   0.030  0.00  0.00    +0.001 C 
ATOM     31  C   UNL     1      -0.775   1.560  -1.158  0.00  0.00    +0.001 C 
ATOM     32  C   UNL     1      -0.114   2.846  -1.711  0.00  0.00    +0.017 C 
ATOM     33  C   UNL     1       0.386   3.733  -0.544  0.00  0.00    +0.109 C 
ENDBRANCH  24  27
ENDBRANCH   6  24
TORSDOF 6
