REMARK  Name = ZINC08712763
REMARK  10 active torsions:
REMARK  status: ('A' for Active; 'I' for Inactive)
REMARK    1  A    between atoms: C_1  and  O_2
REMARK    2  A    between atoms: O_2  and  C_3
REMARK    3  A    between atoms: C_6  and  N_9
REMARK    4  A    between atoms: C_10  and  C_12
REMARK    5  A    between atoms: C_12  and  C_14
REMARK    6  A    between atoms: C_12  and  N_21
REMARK    7  A    between atoms: N_21  and  C_22
REMARK    8  A    between atoms: C_22  and  C_23
REMARK    9  A    between atoms: C_30  and  C_32
REMARK   10  A    between atoms: C_32  and  N_33
REMARK                            x       y       z     vdW  Elec       q    Type
REMARK                         _______ _______ _______ _____ _____    ______ ____
ROOT
ATOM      1  N   UNL     1       0.434   2.217   1.207  0.00  0.00    -0.284 N 
ATOM      2  C   UNL     1      -0.822   2.173   0.719  0.00  0.00    +0.234 C 
ATOM      3  O   UNL     1      -1.060   1.541  -0.288  0.00  0.00    -0.274 OA
ENDROOT
BRANCH   1   4
ATOM      4  C   UNL     1       1.487   1.403   0.593  0.00  0.00    +0.166 C 
BRANCH   4   5
ATOM      5  C   UNL     1       2.574   2.319   0.028  0.00  0.00    +0.023 C 
ATOM      6  C   UNL     1       3.634   1.476  -0.694  0.00  0.00    +0.010 C 
ATOM      7  C   UNL     1       4.790   2.392  -1.097  0.00  0.00    +0.027 C 
ATOM      8  C   UNL     1       4.267   3.618  -1.788  0.00  0.00    -0.031 C 
ATOM      9  C   UNL     1       3.035   4.011  -1.733  0.00  0.00    -0.031 C 
ATOM     10  C   UNL     1       1.956   3.292  -0.979  0.00  0.00    +0.032 C 
ENDBRANCH   4   5
BRANCH   4  12
ATOM     11  N   UNL     1       2.731  -0.630   1.254  0.00  0.00    -0.284 N 
ATOM     12  C   UNL     1       2.087   0.492   1.632  0.00  0.00    +0.238 C 
ATOM     13  O   UNL     1       1.992   0.768   2.809  0.00  0.00    -0.273 OA
ATOM     14  H   UNL     1       2.873  -0.814   0.312  0.00  0.00    +0.155 HD
BRANCH  11  18
ATOM     15  C   UNL     1       4.113  -3.312   4.131  0.00  0.00    +0.120 A 
ATOM     16  C   UNL     1       3.533  -3.786   2.964  0.00  0.00    +0.047 A 
ATOM     17  C   UNL     1       3.075  -2.898   2.010  0.00  0.00    +0.027 A 
ATOM     18  C   UNL     1       3.196  -1.531   2.221  0.00  0.00    +0.034 A 
ATOM     19  C   UNL     1       3.781  -1.058   3.387  0.00  0.00    +0.027 A 
ATOM     20  C   UNL     1       4.233  -1.947   4.342  0.00  0.00    +0.047 A 
BRANCH  15  22
ATOM     21  C   UNL     1       5.150  -3.630   6.248  0.00  0.00    +0.277 C 
ATOM     22  O   UNL     1       4.564  -4.187   5.070  0.00  0.00    -0.495 OA
ENDBRANCH  15  22
ENDBRANCH  11  18
ENDBRANCH   4  12
ENDBRANCH   1   4
BRANCH   1  23
ATOM     23  C   UNL     1       0.746   3.078   2.350  0.00  0.00    +0.143 C 
BRANCH  23  24
ATOM     24  C   UNL     1       1.206   4.424   1.854  0.00  0.00    -0.030 A 
ATOM     25  C   UNL     1       2.557   4.702   1.761  0.00  0.00    +0.008 A 
ATOM     26  C   UNL     1       2.980   5.934   1.301  0.00  0.00    +0.038 A 
ATOM     27  C   UNL     1       2.050   6.896   0.944  0.00  0.00    +0.123 A 
ATOM     28  C   UNL     1       0.697   6.619   1.042  0.00  0.00    +0.038 A 
ATOM     29  C   UNL     1       0.277   5.383   1.497  0.00  0.00    +0.008 A 
ATOM     30  F   UNL     1       2.462   8.103   0.500  0.00  0.00    -0.205 F 
ENDBRANCH  23  24
ENDBRANCH   1  23
BRANCH   2  31
ATOM     31  C   UNL     1      -1.929   2.914   1.423  0.00  0.00    +0.210 C 
BRANCH  31  32
ATOM     32  N   UNL     1      -3.204   2.632   0.758  0.00  0.00    -0.255 N 
ATOM     33  C   UNL     1      -3.727   3.388  -0.289  0.00  0.00    +0.048 A 
ATOM     34  C   UNL     1      -3.235   4.505  -0.950  0.00  0.00    +0.024 A 
ATOM     35  C   UNL     1      -3.955   5.076  -1.982  0.00  0.00    +0.002 A 
ATOM     36  C   UNL     1      -5.171   4.543  -2.375  0.00  0.00    +0.001 A 
ATOM     37  C   UNL     1      -5.676   3.429  -1.736  0.00  0.00    +0.014 A 
ATOM     38  C   UNL     1      -4.957   2.845  -0.694  0.00  0.00    +0.048 A 
ATOM     39  C   UNL     1      -5.209   1.679   0.174  0.00  0.00    +0.250 C 
ATOM     40  O   UNL     1      -6.168   0.935   0.154  0.00  0.00    -0.282 OA
ATOM     41  C   UNL     1      -4.021   1.616   1.086  0.00  0.00    +0.292 C 
ATOM     42  O   UNL     1      -3.830   0.796   1.960  0.00  0.00    -0.266 OA
ENDBRANCH  31  32
ENDBRANCH   2  31
TORSDOF 9
