REMARK  Name = ZINC40824913
REMARK  4 active torsions:
REMARK  status: ('A' for Active; 'I' for Inactive)
REMARK    1  A    between atoms: C_1  and  C_2
REMARK    2  A    between atoms: C_6  and  C_7
REMARK    3  A    between atoms: N_9  and  C_10
REMARK    4  A    between atoms: N_21  and  N_22
REMARK                            x       y       z     vdW  Elec       q    Type
REMARK                         _______ _______ _______ _____ _____    ______ ____
ROOT
ATOM      1  C   UNL     1      -0.014   1.502   0.010  0.00  0.00    +0.048 C 
ATOM      2  C   UNL     1      -0.004  -0.005   0.002  0.00  0.00    +0.009 A 
ATOM      3  C   UNL     1      -0.007  -0.839  -1.122  0.00  0.00    +0.042 A 
ATOM      4  C   UNL     1       0.004  -2.138  -0.672  0.00  0.00    +0.115 A 
ATOM      5  O   UNL     1       0.018  -2.112   0.658  0.00  0.00    -0.454 OA
ATOM      6  C   UNL     1       0.018  -0.831   1.091  0.00  0.00    +0.193 A 
ATOM      7  C   UNL     1      -0.001  -3.327  -1.599  0.00  0.00    +0.075 C 
ATOM      8  C   UNL     1      -0.528  -2.900  -2.972  0.00  0.00    +0.014 C 
ATOM      9  C   UNL     1       0.248  -1.688  -3.496  0.00  0.00    +0.058 C 
ATOM     10  C   UNL     1      -0.018  -0.513  -2.566  0.00  0.00    +0.072 C 
ATOM     11  N   UNL     1      -0.239   0.687  -3.007  0.00  0.00    -0.175 NA
ENDROOT
BRANCH  11  12
ATOM     12  N   UNL     1      -0.238   0.938  -4.385  0.00  0.00    -0.248 N 
ATOM     13  C   UNL     1      -0.472   2.204  -4.850  0.00  0.00    +0.187 C 
ATOM     14  N   UNL     1      -0.470   2.443  -6.162  0.00  0.00    -0.370 N 
ATOM     15  N   UNL     1      -0.700   3.198  -3.992  0.00  0.00    -0.370 N 
ATOM     16  H   UNL     1      -0.072   0.215  -5.010  0.00  0.00    +0.192 HD
ATOM     17  H   UNL     1      -0.304   1.720  -6.786  0.00  0.00    +0.159 HD
ATOM     18  H   UNL     1      -0.701   3.024  -3.038  0.00  0.00    +0.159 HD
ATOM     19  H   UNL     1      -0.866   4.095  -4.322  0.00  0.00    +0.159 HD
ATOM     20  H   UNL     1      -0.636   3.340  -6.491  0.00  0.00    +0.159 HD
ENDBRANCH  11  12
BRANCH   6  21
ATOM     21  C   UNL     1       0.035  -0.400   2.493  0.00  0.00    +0.284 C 
ATOM     22  O   UNL     1       0.030   0.786   2.765  0.00  0.00    -0.266 OA
ATOM     23  N   UNL     1       0.055  -1.318   3.480  0.00  0.00    -0.279 N 
ATOM     24  H   UNL     1      -0.009  -2.262   3.266  0.00  0.00    +0.155 HD
BRANCH  23  25
ATOM     25  C   UNL     1       0.168  -0.909   4.813  0.00  0.00    +0.034 A 
ATOM     26  C   UNL     1       0.889  -1.678   5.717  0.00  0.00    +0.024 A 
ATOM     27  C   UNL     1       1.000  -1.272   7.033  0.00  0.00    +0.017 A 
ATOM     28  C   UNL     1       0.394  -0.100   7.450  0.00  0.00    +0.018 A 
ATOM     29  C   UNL     1      -0.325   0.668   6.551  0.00  0.00    +0.017 A 
ATOM     30  C   UNL     1      -0.435   0.269   5.233  0.00  0.00    +0.024 A 
ATOM     31 BR   UNL     1       0.547   0.452   9.252  0.00  0.00    -0.050 Br
ENDBRANCH  23  25
ENDBRANCH   6  21
TORSDOF 3
