REMARK  Name = ZINC59577849
REMARK  12 active torsions:
REMARK  status: ('A' for Active; 'I' for Inactive)
REMARK    1  A    between atoms: C_1  and  C_2
REMARK    2  A    between atoms: C_4  and  C_15
REMARK    3  A    between atoms: C_6  and  C_14
REMARK    4  A    between atoms: C_7  and  O_8
REMARK    5  A    between atoms: O_8  and  C_9
REMARK    6  A    between atoms: C_9  and  C_10
REMARK    7  A    between atoms: C_15  and  N_16
REMARK    8  A    between atoms: N_16  and  C_17
REMARK    9  A    between atoms: N_16  and  C_18
REMARK   10  A    between atoms: C_18  and  C_19
REMARK   11  A    between atoms: N_21  and  C_22
REMARK   12  A    between atoms: C_23  and  C_27
REMARK                            x       y       z     vdW  Elec       q    Type
REMARK                         _______ _______ _______ _____ _____    ______ ____
ROOT
ATOM      1  N   UNL     1       1.414  -3.039  -2.949  0.00  0.00    +0.386 N 
ATOM      2  C   UNL     1       2.052  -1.747  -3.235  0.00  0.00    -0.095 C 
ATOM      3  H   UNL     1       1.923  -3.511  -2.217  0.00  0.00    -0.081 HD
ENDROOT
BRANCH   1   4
ATOM      4  C   UNL     1       0.028  -2.816  -2.516  0.00  0.00    -0.043 C 
BRANCH   4   8
ATOM      5  C   UNL     1      -0.018   1.503   0.010  0.00  0.00    +0.047 C 
ATOM      6  C   UNL     1       0.002  -0.004   0.002  0.00  0.00    -0.008 A 
ATOM      7  C   UNL     1       0.006  -0.689  -1.198  0.00  0.00    +0.008 A 
ATOM      8  C   UNL     1       0.024  -2.071  -1.206  0.00  0.00    -0.063 A 
ATOM      9  C   UNL     1       0.040  -2.772  -0.014  0.00  0.00    +0.008 A 
ATOM     10  C   UNL     1       0.036  -2.092   1.188  0.00  0.00    -0.008 A 
ATOM     11  C   UNL     1       0.023  -0.705   1.199  0.00  0.00    +0.127 A 
ATOM     12  C   UNL     1       0.052  -2.856   2.487  0.00  0.00    +0.047 C 
BRANCH  11  13
ATOM     13  O   UNL     1       0.025  -0.033   2.381  0.00  0.00    -0.483 OA
BRANCH  13  14
ATOM     14  C   UNL     1      -1.246   0.270   2.957  0.00  0.00    +0.342 C 
BRANCH  14  15
ATOM     15  C   UNL     1      -1.043   1.022   4.274  0.00  0.00    +0.424 C 
ATOM     16  F   UNL     1      -0.346   2.211   4.030  0.00  0.00    -0.167 F 
ATOM     17  F   UNL     1      -2.288   1.320   4.838  0.00  0.00    -0.167 F 
ATOM     18  F   UNL     1      -0.309   0.225   5.158  0.00  0.00    -0.167 F 
ENDBRANCH  14  15
ENDBRANCH  13  14
ENDBRANCH  11  13
ENDBRANCH   4   8
ENDBRANCH   1   4
BRANCH   1  19
ATOM     19  C   UNL     1       1.421  -3.867  -4.162  0.00  0.00    +0.019 C 
BRANCH  19  20
ATOM     20  C   UNL     1       2.842  -4.198  -4.537  0.00  0.00    +0.201 C 
ATOM     21  O   UNL     1       3.760  -3.785  -3.859  0.00  0.00    -0.278 OA
ATOM     22  N   UNL     1       3.095  -4.954  -5.624  0.00  0.00    -0.281 N 
ATOM     23  H   UNL     1       2.361  -5.284  -6.166  0.00  0.00    +0.155 HD
BRANCH  22  24
ATOM     24  C   UNL     1       4.403  -5.258  -5.968  0.00  0.00    +0.084 A 
ATOM     25  C   UNL     1       4.848  -6.010  -7.045  0.00  0.00    +0.065 A 
ATOM     26  C   UNL     1       6.278  -6.175  -7.172  0.00  0.00    +0.022 A 
ATOM     27  C   UNL     1       7.023  -5.576  -6.224  0.00  0.00    +0.048 A 
ATOM     28  S   UNL     1       5.811  -4.796  -5.181  0.00  0.00    -0.081 S 
BRANCH  25  29
ATOM     29  C   UNL     1       3.916  -6.608  -8.006  0.00  0.00    +0.244 C 
ATOM     30  O   UNL     1       2.717  -6.450  -7.870  0.00  0.00    -0.270 OA
ATOM     31  N   UNL     1       4.386  -7.332  -9.041  0.00  0.00    -0.325 N 
ATOM     32  H   UNL     1       5.342  -7.458  -9.150  0.00  0.00    +0.145 HD
ATOM     33  H   UNL     1       3.769  -7.728  -9.676  0.00  0.00    +0.145 HD
ENDBRANCH  25  29
ENDBRANCH  22  24
ENDBRANCH  19  20
ENDBRANCH   1  19
TORSDOF 9
