REMARK  Name = ZINC16610826
REMARK  11 active torsions:
REMARK  status: ('A' for Active; 'I' for Inactive)
REMARK    1  A    between atoms: C_1  and  C_2
REMARK    2  A    between atoms: C_2  and  O_3
REMARK    3  A    between atoms: O_3  and  C_4
REMARK    4  A    between atoms: C_4  and  C_6
REMARK    5  A    between atoms: C_7  and  C_33
REMARK    6  A    between atoms: N_8  and  C_32
REMARK    7  A    between atoms: C_12  and  C_14
REMARK    8  A    between atoms: C_18  and  N_20
REMARK    9  A    between atoms: N_23  and  C_24
REMARK   10  A    between atoms: C_28  and  C_31
REMARK   11  A    between atoms: C_29  and  C_30
REMARK                            x       y       z     vdW  Elec       q    Type
REMARK                         _______ _______ _______ _____ _____    ______ ____
ROOT
ATOM      1  C   UNL     1       1.153   3.128  -0.032  0.00  0.00    -0.021 A 
ATOM      2  C   UNL     1       1.155   1.746  -0.079  0.00  0.00    +0.006 A 
ATOM      3  C   UNL     1      -0.040   1.050  -0.088  0.00  0.00    +0.002 A 
ATOM      4  C   UNL     1      -1.240   1.734  -0.057  0.00  0.00    +0.023 A 
ATOM      5  C   UNL     1      -1.245   3.121  -0.005  0.00  0.00    +0.035 A 
ATOM      6  C   UNL     1      -0.043   3.817   0.005  0.00  0.00    +0.029 A 
ENDROOT
BRANCH   1  13
ATOM      7  C   UNL     1       2.913   4.008   1.417  0.00  0.00    +0.078 C 
ATOM      8  C   UNL     1       4.123   3.501   1.740  0.00  0.00    +0.021 C 
ATOM      9  N   UNL     1       4.906   2.895   0.801  0.00  0.00    -0.289 N 
ATOM     10  C   UNL     1       4.553   2.757  -0.483  0.00  0.00    +0.137 C 
ATOM     11  S   UNL     1       5.632   1.976  -1.559  0.00  0.00    -0.018 S 
ATOM     12  N   UNL     1       3.377   3.212  -0.957  0.00  0.00    -0.315 N 
ATOM     13  C   UNL     1       2.457   3.883  -0.022  0.00  0.00    +0.141 C 
ATOM     14  C   UNL     1       6.206   2.367   1.222  0.00  0.00    +0.137 C 
ATOM     15  C   UNL     1       4.615   3.605   3.161  0.00  0.00    +0.061 C 
ATOM     16  H   UNL     1       3.141   3.101  -1.891  0.00  0.00    +0.149 HD
BRANCH   7  17
ATOM     17  C   UNL     1       2.101   4.636   2.389  0.00  0.00    +0.339 C 
ATOM     18  O   UNL     1       2.487   4.726   3.540  0.00  0.00    -0.245 OA
BRANCH  17  19
ATOM     19  O   UNL     1       0.896   5.136   2.042  0.00  0.00    -0.462 OA
BRANCH  19  21
ATOM     20  C   UNL     1      -1.195   6.259   2.495  0.00  0.00    +0.048 C 
ATOM     21  C   UNL     1       0.129   5.757   3.075  0.00  0.00    +0.229 C 
ENDBRANCH  19  21
ENDBRANCH  17  19
ENDBRANCH   7  17
ENDBRANCH   1  13
BRANCH   5  22
ATOM     22  N   UNL     1      -2.459   3.817   0.033  0.00  0.00    -0.269 N 
ATOM     23  C   UNL     1      -3.558   3.226   0.541  0.00  0.00    +0.308 C 
ATOM     24  O   UNL     1      -3.474   2.132   1.065  0.00  0.00    -0.252 OA
ATOM     25  N   UNL     1      -4.752   3.848   0.468  0.00  0.00    -0.269 N 
ATOM     26  H   UNL     1      -2.508   4.724  -0.306  0.00  0.00    +0.156 HD
ATOM     27  H   UNL     1      -4.832   4.689  -0.008  0.00  0.00    +0.156 HD
BRANCH  25  28
ATOM     28  C   UNL     1      -5.875   3.279   1.079  0.00  0.00    +0.038 A 
ATOM     29  C   UNL     1      -6.024   1.899   1.115  0.00  0.00    +0.023 A 
ATOM     30  C   UNL     1      -7.134   1.341   1.718  0.00  0.00    +0.002 A 
ATOM     31  C   UNL     1      -8.097   2.156   2.286  0.00  0.00    +0.004 A 
ATOM     32  C   UNL     1      -7.952   3.530   2.251  0.00  0.00    -0.046 A 
ATOM     33  C   UNL     1      -6.841   4.094   1.654  0.00  0.00    -0.026 A 
ATOM     34  C   UNL     1      -6.680   5.592   1.623  0.00  0.00    +0.046 C 
ATOM     35  C   UNL     1      -9.003   4.414   2.872  0.00  0.00    +0.044 C 
ENDBRANCH  25  28
ENDBRANCH   5  22
TORSDOF 6
