REMARK  Name = ZINC58951713
REMARK  5 active torsions:
REMARK  status: ('A' for Active; 'I' for Inactive)
REMARK    1  A    between atoms: C_2  and  C_10
REMARK    2  A    between atoms: C_5  and  O_8
REMARK    3  A    between atoms: N_11  and  N_12
REMARK    4  A    between atoms: C_13  and  C_15
REMARK    5  A    between atoms: C_15  and  C_16
REMARK                            x       y       z     vdW  Elec       q    Type
REMARK                         _______ _______ _______ _____ _____    ______ ____
ROOT
ATOM      1  N   UNL     1       2.273   5.623   0.010  0.00  0.00    -0.207 N 
ATOM      2  C   UNL     1       3.433   6.309   0.002  0.00  0.00    +0.238 C 
ATOM      3  O   UNL     1       4.490   5.713  -0.011  0.00  0.00    -0.274 OA
ATOM      4  H   UNL     1       1.428   6.100   0.020  0.00  0.00    +0.177 HD
ENDROOT
BRANCH   1   6
ATOM      5  C   UNL     1       1.170   3.562   0.009  0.00  0.00    +0.138 C 
ATOM      6  N   UNL     1       2.287   4.222   0.002  0.00  0.00    -0.188 NA
BRANCH   5   8
ATOM      7  C   UNL     1      -0.017   1.375   0.010  0.00  0.00    +0.028 A 
ATOM      8  C   UNL     1       1.185   2.088   0.002  0.00  0.00    -0.003 A 
ATOM      9  C   UNL     1       2.401   1.400  -0.013  0.00  0.00    +0.028 A 
ATOM     10  C   UNL     1       2.411   0.021  -0.021  0.00  0.00    +0.061 A 
ATOM     11  C   UNL     1       1.214  -0.684  -0.013  0.00  0.00    +0.145 A 
ATOM     12  C   UNL     1       0.002  -0.004   0.002  0.00  0.00    +0.061 A 
ATOM     13 BR   UNL     1      -1.623  -0.970   0.013  0.00  0.00    -0.046 Br
ATOM     14 BR   UNL     1       4.056  -0.912  -0.042  0.00  0.00    -0.046 Br
BRANCH  11  15
ATOM     15  O   UNL     1       1.227  -2.043  -0.021  0.00  0.00    -0.505 OA
ATOM     16  H   UNL     1       1.240  -2.441   0.861  0.00  0.00    +0.292 HD
ENDBRANCH  11  15
ENDBRANCH   5   8
ENDBRANCH   1   6
BRANCH   2  17
ATOM     17  C   UNL     1       3.417   7.816   0.010  0.00  0.00    +0.153 C 
BRANCH  17  18
ATOM     18  C   UNL     1       4.833   8.333  -0.001  0.00  0.00    +0.059 A 
ATOM     19  C   UNL     1       5.260   9.207  -0.944  0.00  0.00    +0.072 A 
ATOM     20  S   UNL     1       6.958   9.435  -0.442  0.00  0.00    -0.061 S 
ATOM     21  C   UNL     1       6.947   8.411   0.893  0.00  0.00    +0.156 A 
ATOM     22  N   UNL     1       5.711   7.958   0.913  0.00  0.00    -0.230 NA
ATOM     23  N   UNL     1       7.985   8.120   1.764  0.00  0.00    -0.338 N 
ATOM     24  H   UNL     1       8.855   8.530   1.637  0.00  0.00    +0.144 HD
ATOM     25  H   UNL     1       7.842   7.505   2.501  0.00  0.00    +0.144 HD
ENDBRANCH  17  18
ENDBRANCH   2  17
TORSDOF 5
