REMARK  Name = ZINC23244612
REMARK  9 active torsions:
REMARK  status: ('A' for Active; 'I' for Inactive)
REMARK    1  A    between atoms: C_1  and  C_2
REMARK    2  A    between atoms: C_2  and  O_3
REMARK    3  A    between atoms: O_3  and  C_4
REMARK    4  A    between atoms: C_7  and  C_10
REMARK    5  A    between atoms: N_15  and  C_17
REMARK    6  A    between atoms: C_17  and  C_18
REMARK    7  A    between atoms: C_18  and  N_19
REMARK    8  A    between atoms: N_22  and  S_25
REMARK    9  A    between atoms: S_25  and  C_28
REMARK                            x       y       z     vdW  Elec       q    Type
REMARK                         _______ _______ _______ _____ _____    ______ ____
ROOT
ATOM      1  N   UNL     1      -0.895   3.043   1.186  0.00  0.00    +0.383 N 
ATOM      2  C   UNL     1      -0.738   1.584   1.263  0.00  0.00    -0.061 C 
ATOM      3  C   UNL     1      -0.013   1.086   0.008  0.00  0.00    +0.091 C 
ATOM      4  N   UNL     1      -0.732   1.577  -1.178  0.00  0.00    -0.180 NA
ATOM      5  C   UNL     1      -1.043   3.012  -1.258  0.00  0.00    +0.091 C 
ATOM      6  C   UNL     1      -1.732   3.434   0.044  0.00  0.00    -0.061 C 
ATOM      7  H   UNL     1       0.104   3.478   1.030  0.00  0.00    -0.082 HD
ENDROOT
BRANCH   4   8
ATOM      8  S   UNL     1      -1.178   0.541  -2.390  0.00  0.00    +0.061 S 
ATOM      9  O   UNL     1      -1.315   1.327  -3.566  0.00  0.00    -0.153 OA
ATOM     10  O   UNL     1      -0.298  -0.573  -2.317  0.00  0.00    -0.153 OA
BRANCH   8  11
ATOM     11  C   UNL     1      -2.786  -0.060  -1.996  0.00  0.00    +0.106 A 
ATOM     12  C   UNL     1      -2.931  -1.213  -1.246  0.00  0.00    +0.029 A 
ATOM     13  C   UNL     1      -4.194  -1.675  -0.938  0.00  0.00    +0.006 A 
ATOM     14  C   UNL     1      -5.322  -1.000  -1.386  0.00  0.00    -0.044 A 
ATOM     15  C   UNL     1      -5.178   0.146  -2.135  0.00  0.00    -0.042 A 
ATOM     16  C   UNL     1      -3.905   0.614  -2.439  0.00  0.00    +0.032 A 
ATOM     17  C   UNL     1      -6.355   0.935  -2.645  0.00  0.00    +0.035 C 
ATOM     18  C   UNL     1      -7.626   0.089  -2.606  0.00  0.00    +0.005 C 
ATOM     19  C   UNL     1      -7.762  -0.516  -1.204  0.00  0.00    +0.005 C 
ATOM     20  C   UNL     1      -6.669  -1.568  -1.026  0.00  0.00    +0.035 C 
ENDBRANCH   8  11
ENDBRANCH   4   8
BRANCH   1  21
ATOM     21  C   UNL     1      -1.434   3.580   2.443  0.00  0.00    -0.055 C 
BRANCH  21  22
ATOM     22  C   UNL     1      -0.417   3.369   3.566  0.00  0.00    +0.129 C 
BRANCH  22  28
ATOM     23  C   UNL     1      -1.176   5.675   6.229  0.00  0.00    +0.092 A 
ATOM     24  C   UNL     1      -1.946   4.910   7.137  0.00  0.00    +0.035 A 
ATOM     25  C   UNL     1      -2.200   3.607   6.829  0.00  0.00    +0.074 A 
ATOM     26  C   UNL     1      -1.682   3.101   5.617  0.00  0.00    +0.267 A 
ATOM     27  O   UNL     1      -1.887   1.941   5.296  0.00  0.00    -0.266 OA
ATOM     28  N   UNL     1      -0.955   3.905   4.819  0.00  0.00    -0.231 N 
ATOM     29  N   UNL     1      -0.725   5.131   5.124  0.00  0.00    -0.168 NA
BRANCH  23  33
ATOM     30  C   UNL     1      -0.320   9.752   7.087  0.00  0.00    +0.121 A 
ATOM     31  C   UNL     1       0.157   9.175   5.918  0.00  0.00    +0.046 A 
ATOM     32  C   UNL     1      -0.119   7.854   5.637  0.00  0.00    +0.013 A 
ATOM     33  C   UNL     1      -0.878   7.097   6.528  0.00  0.00    +0.002 A 
ATOM     34  C   UNL     1      -1.360   7.681   7.699  0.00  0.00    +0.013 A 
ATOM     35  C   UNL     1      -1.077   9.001   7.977  0.00  0.00    +0.046 A 
BRANCH  30  36
ATOM     36  O   UNL     1      -0.047  11.054   7.361  0.00  0.00    -0.492 OA
BRANCH  36  38
ATOM     37  C   UNL     1      -0.160  13.052   8.716  0.00  0.00    +0.048 C 
ATOM     38  C   UNL     1      -0.568  11.584   8.582  0.00  0.00    +0.225 C 
ENDBRANCH  36  38
ENDBRANCH  30  36
ENDBRANCH  23  33
ENDBRANCH  22  28
ENDBRANCH  21  22
ENDBRANCH   1  21
TORSDOF 8
