REMARK  Name = ZINC67548102
REMARK  13 active torsions:
REMARK  status: ('A' for Active; 'I' for Inactive)
REMARK    1  A    between atoms: C_1  and  C_2
REMARK    2  A    between atoms: C_2  and  C_3
REMARK    3  A    between atoms: C_3  and  C_4
REMARK    4  A    between atoms: C_4  and  O_5
REMARK    5  A    between atoms: O_5  and  C_6
REMARK    6  A    between atoms: C_9  and  N_13
REMARK    7  A    between atoms: C_10  and  C_12
REMARK    8  A    between atoms: N_16  and  C_17
REMARK    9  A    between atoms: C_17  and  C_18
REMARK   10  A    between atoms: C_18  and  C_20
REMARK   11  A    between atoms: C_18  and  O_28
REMARK   12  A    between atoms: C_20  and  N_21
REMARK   13  A    between atoms: C_24  and  C_27
REMARK                            x       y       z     vdW  Elec       q    Type
REMARK                         _______ _______ _______ _____ _____    ______ ____
ROOT
ATOM      1  N   UNL     1       1.897  -7.994   2.985  0.00  0.00    -0.269 N 
ATOM      2  C   UNL     1       1.283  -8.818   2.112  0.00  0.00    +0.304 C 
ATOM      3  O   UNL     1       0.709  -8.360   1.144  0.00  0.00    -0.253 OA
ATOM      4  N   UNL     1       1.306 -10.151   2.314  0.00  0.00    -0.297 N 
ATOM      5  H   UNL     1       2.409  -8.363   3.721  0.00  0.00    +0.156 HD
ATOM      6  H   UNL     1       1.764 -10.517   3.087  0.00  0.00    +0.150 HD
ENDROOT
BRANCH   1  10
ATOM      7  C   UNL     1       1.589  -3.862   2.518  0.00  0.00    +0.121 A 
ATOM      8  C   UNL     1       1.640  -4.684   1.401  0.00  0.00    +0.047 A 
ATOM      9  C   UNL     1       1.742  -6.052   1.555  0.00  0.00    +0.027 A 
ATOM     10  C   UNL     1       1.793  -6.605   2.828  0.00  0.00    +0.038 A 
ATOM     11  C   UNL     1       1.742  -5.782   3.945  0.00  0.00    -0.026 A 
ATOM     12  C   UNL     1       1.645  -4.413   3.789  0.00  0.00    +0.050 A 
ATOM     13  C   UNL     1       1.798  -6.382   5.326  0.00  0.00    +0.046 C 
BRANCH   7  14
ATOM     14  O   UNL     1       1.488  -2.514   2.366  0.00  0.00    -0.492 OA
BRANCH  14  15
ATOM     15  C   UNL     1       1.435  -2.015   1.028  0.00  0.00    +0.229 C 
BRANCH  15  16
ATOM     16  C   UNL     1       1.323  -0.489   1.058  0.00  0.00    +0.041 C 
BRANCH  16  18
ATOM     17  C   UNL     1       1.155   1.572  -0.345  0.00  0.00    +0.004 C 
ATOM     18  C   UNL     1       1.266   0.046  -0.375  0.00  0.00    -0.000 C 
ENDBRANCH  16  18
ENDBRANCH  15  16
ENDBRANCH  14  15
ENDBRANCH   7  14
ENDBRANCH   1  10
BRANCH   4  19
ATOM     19  C   UNL     1       0.639 -11.046   1.366  0.00  0.00    +0.135 C 
BRANCH  19  20
ATOM     20  C   UNL     1       0.814 -12.496   1.823  0.00  0.00    +0.115 C 
BRANCH  20  21
ATOM     21  O   UNL     1       2.206 -12.813   1.879  0.00  0.00    -0.392 OA
ATOM     22  H   UNL     1       2.664 -12.724   1.032  0.00  0.00    +0.210 HD
ENDBRANCH  20  21
BRANCH  20  23
ATOM     23  C   UNL     1       0.117 -13.431   0.833  0.00  0.00    -0.046 C 
BRANCH  23  24
ATOM     24  N   UNL     1       0.182 -14.811   1.334  0.00  0.00    +0.381 N 
ATOM     25  C   UNL     1      -0.584 -14.913   2.582  0.00  0.00    -0.078 C 
ATOM     26  C   UNL     1      -0.453 -16.327   3.151  0.00  0.00    -0.016 C 
ATOM     27  C   UNL     1      -0.997 -17.334   2.133  0.00  0.00    -0.018 C 
ATOM     28  C   UNL     1      -0.240 -17.167   0.811  0.00  0.00    -0.016 C 
ATOM     29  C   UNL     1      -0.379 -15.722   0.329  0.00  0.00    -0.078 C 
ATOM     30  C   UNL     1      -0.796 -18.755   2.661  0.00  0.00    +0.007 C 
ATOM     31  H   UNL     1       1.144 -15.058   1.511  0.00  0.00    -0.082 HD
ENDBRANCH  23  24
ENDBRANCH  20  23
ENDBRANCH  19  20
ENDBRANCH   4  19
TORSDOF 10
