REMARK  Name = ZINC09935239
REMARK  6 active torsions:
REMARK  status: ('A' for Active; 'I' for Inactive)
REMARK    1  A    between atoms: C_1  and  C_2
REMARK    2  A    between atoms: C_5  and  N_8
REMARK    3  A    between atoms: C_17  and  C_19
REMARK    4  A    between atoms: C_19  and  S_20
REMARK    5  A    between atoms: S_20  and  C_21
REMARK    6  A    between atoms: C_24  and  C_26
REMARK                            x       y       z     vdW  Elec       q    Type
REMARK                         _______ _______ _______ _____ _____    ______ ____
ROOT
ATOM      1  N   UNL     1      -2.987  -0.989   0.266  0.00  0.00    -0.328 N 
ATOM      2  C   UNL     1      -2.181   0.027   0.724  0.00  0.00    +0.180 C 
ATOM      3  N   UNL     1      -1.064  -0.266   1.480  0.00  0.00    -0.298 N 
ATOM      4  C   UNL     1      -0.221   0.743   1.880  0.00  0.00    +0.211 A 
ATOM      5  N   UNL     1       0.876   0.441   2.625  0.00  0.00    -0.293 N 
ATOM      6  H   UNL     1       1.060  -0.479   2.869  0.00  0.00    +0.172 HD
ATOM      7  C   UNL     1       1.709   1.427   3.022  0.00  0.00    +0.253 A 
ATOM      8  O   UNL     1       2.698   1.174   3.690  0.00  0.00    -0.268 OA
ATOM      9  C   UNL     1       1.414   2.751   2.650  0.00  0.00    +0.094 A 
ATOM     10  C   UNL     1       0.299   2.993   1.902  0.00  0.00    +0.060 A 
ATOM     11  N   UNL     1      -0.490   1.986   1.536  0.00  0.00    -0.218 NA
ATOM     12  H   UNL     1      -3.818  -0.781  -0.189  0.00  0.00    +0.169 HD
ATOM     13  H   UNL     1      -3.271   1.578  -0.018  0.00  0.00    +0.159 HD
ATOM     14  H   UNL     1      -0.874  -1.184   1.729  0.00  0.00    +0.172 HD
ATOM     15  N   UNL     1      -2.418   1.305   0.469  0.00  0.00    -0.371 N 
ATOM     16  H   UNL     1      -1.742   2.021   0.762  0.00  0.00    +0.159 HD
ENDROOT
BRANCH   1  21
ATOM     17  C   UNL     1      -1.451  -6.396   1.033  0.00  0.00    +0.044 C 
ATOM     18  C   UNL     1      -1.859  -4.959   0.829  0.00  0.00    -0.050 A 
ATOM     19  C   UNL     1      -3.199  -4.621   0.798  0.00  0.00    +0.005 A 
ATOM     20  C   UNL     1      -3.577  -3.305   0.612  0.00  0.00    +0.026 A 
ATOM     21  C   UNL     1      -2.608  -2.322   0.455  0.00  0.00    +0.042 A 
ATOM     22  C   UNL     1      -1.263  -2.666   0.482  0.00  0.00    +0.026 A 
ATOM     23  C   UNL     1      -0.892  -3.983   0.675  0.00  0.00    +0.005 A 
ENDBRANCH   1  21
BRANCH  10  24
ATOM     24  C   UNL     1      -0.039   4.402   1.490  0.00  0.00    +0.132 C 
BRANCH  24  25
ATOM     25  S   UNL     1       0.349   4.628  -0.263  0.00  0.00    -0.091 S 
BRANCH  25  26
ATOM     26  C   UNL     1      -0.130   6.311  -0.469  0.00  0.00    +0.159 A 
ATOM     27  N   UNL     1      -0.632   7.170   0.410  0.00  0.00    -0.135 NA
ATOM     28  N   UNL     1      -0.923   8.354   0.090  0.00  0.00    -0.146 NA
ATOM     29  C   UNL     1      -0.749   8.814  -1.132  0.00  0.00    +0.100 A 
ATOM     30  S   UNL     1      -0.072   7.357  -1.921  0.00  0.00    -0.044 S 
ATOM     31  C   UNL     1      -1.032  10.181  -1.702  0.00  0.00    +0.075 C 
ENDBRANCH  25  26
ENDBRANCH  24  25
ENDBRANCH  10  24
TORSDOF 4
