REMARK  Name = ZINC49128931
REMARK  9 active torsions:
REMARK  status: ('A' for Active; 'I' for Inactive)
REMARK    1  A    between atoms: C_1  and  C_2
REMARK    2  A    between atoms: C_2  and  C_4
REMARK    3  A    between atoms: C_2  and  N_10
REMARK    4  A    between atoms: N_10  and  C_11
REMARK    5  A    between atoms: C_11  and  C_12
REMARK    6  A    between atoms: C_12  and  C_14
REMARK    7  A    between atoms: C_12  and  O_23
REMARK    8  A    between atoms: C_14  and  O_15
REMARK    9  A    between atoms: O_15  and  C_16
REMARK                            x       y       z     vdW  Elec       q    Type
REMARK                         _______ _______ _______ _____ _____    ______ ____
ROOT
ATOM      1  C   UNL     1      -0.040  -0.119   2.398  0.00  0.00    -0.047 C 
ENDROOT
BRANCH   1   2
ATOM      2  N   UNL     1       0.713  -0.491   1.192  0.00  0.00    +0.385 N 
ATOM      3  H   UNL     1       0.798  -1.495   1.145  0.00  0.00    -0.085 HD
ATOM      4  H   UNL     1       1.632  -0.076   1.228  0.00  0.00    -0.085 HD
BRANCH   2   6
ATOM      5  C   UNL     1      -0.019   1.526   0.010  0.00  0.00    -0.008 C 
ATOM      6  C   UNL     1       0.002  -0.004   0.002  0.00  0.00    -0.037 C 
BRANCH   6   7
ATOM      7  C   UNL     1       0.707  -0.490  -1.238  0.00  0.00    -0.023 A 
ATOM      8  C   UNL     1       0.176  -0.943  -2.400  0.00  0.00    +0.011 A 
ATOM      9  C   UNL     1       1.026  -1.341  -3.415  0.00  0.00    +0.028 A 
ATOM     10  C   UNL     1       2.366  -1.267  -3.218  0.00  0.00    +0.078 A 
ATOM     11  S   UNL     1       2.459  -0.612  -1.560  0.00  0.00    -0.083 S 
ATOM     12 CL   UNL     1       3.656  -1.693  -4.299  0.00  0.00    -0.076 Cl
ENDBRANCH   6   7
ENDBRANCH   2   6
ENDBRANCH   1   2
BRANCH   1  13
ATOM     13  C   UNL     1       0.700  -0.626   3.637  0.00  0.00    +0.135 C 
BRANCH  13  14
ATOM     14  O   UNL     1       1.955   0.049   3.752  0.00  0.00    -0.390 OA
ATOM     15  H   UNL     1       1.879   1.009   3.837  0.00  0.00    +0.210 HD
ENDBRANCH  13  14
BRANCH  13  16
ATOM     16  C   UNL     1      -0.143  -0.349   4.883  0.00  0.00    +0.258 C 
BRANCH  16  17
ATOM     17  O   UNL     1       0.492  -0.925   6.026  0.00  0.00    -0.488 OA
BRANCH  17  18
ATOM     18  C   UNL     1      -0.132  -0.768   7.224  0.00  0.00    +0.139 A 
ATOM     19  C   UNL     1      -1.334  -0.080   7.296  0.00  0.00    +0.047 A 
ATOM     20  C   UNL     1      -1.966   0.077   8.514  0.00  0.00    +0.004 A 
ATOM     21  C   UNL     1      -1.402  -0.450   9.661  0.00  0.00    +0.002 A 
ATOM     22  C   UNL     1      -0.204  -1.137   9.593  0.00  0.00    +0.023 A 
ATOM     23  C   UNL     1       0.430  -1.302   8.376  0.00  0.00    +0.083 A 
ATOM     24 CL   UNL     1       1.931  -2.170   8.289  0.00  0.00    -0.080 Cl
ENDBRANCH  17  18
ENDBRANCH  16  17
ENDBRANCH  13  16
ENDBRANCH   1  13
TORSDOF 8
