REMARK  Name = ZINC41752579
REMARK  12 active torsions:
REMARK  status: ('A' for Active; 'I' for Inactive)
REMARK    1  A    between atoms: C_1  and  C_2
REMARK    2  A    between atoms: C_2  and  C_3
REMARK    3  A    between atoms: C_2  and  C_10
REMARK    4  A    between atoms: C_2  and  N_13
REMARK    5  A    between atoms: N_13  and  C_14
REMARK    6  A    between atoms: C_14  and  C_15
REMARK    7  A    between atoms: C_15  and  C_16
REMARK    8  A    between atoms: C_15  and  C_17
REMARK    9  A    between atoms: C_15  and  C_18
REMARK   10  A    between atoms: C_18  and  N_19
REMARK   11  A    between atoms: N_19  and  C_20
REMARK   12  A    between atoms: N_19  and  C_21
REMARK                            x       y       z     vdW  Elec       q    Type
REMARK                         _______ _______ _______ _____ _____    ______ ____
ROOT
ATOM      1  C   UNL     1       0.337   0.212   0.083  0.00  0.00    +0.006 C 
ATOM      2  C   UNL     1       0.078  -1.294   0.004  0.00  0.00    +0.058 C 
ENDROOT
BRANCH   2   3
ATOM      3  C   UNL     1       0.376  -1.925   1.339  0.00  0.00    -0.048 A 
ATOM      4  C   UNL     1      -0.618  -2.603   2.020  0.00  0.00    +0.004 A 
ATOM      5  C   UNL     1      -0.346  -3.183   3.245  0.00  0.00    +0.015 A 
ATOM      6  C   UNL     1       0.922  -3.085   3.789  0.00  0.00    +0.018 A 
ATOM      7  C   UNL     1       1.917  -2.407   3.107  0.00  0.00    +0.015 A 
ATOM      8  C   UNL     1       1.645  -1.832   1.880  0.00  0.00    +0.004 A 
ATOM      9 BR   UNL     1       1.296  -3.878   5.465  0.00  0.00    -0.050 Br
ENDBRANCH   2   3
BRANCH   2  10
ATOM     10  C   UNL     1       0.969  -1.902  -1.049  0.00  0.00    +0.349 C 
ATOM     11  O   UNL     1       2.170  -1.696  -1.024  0.00  0.00    -0.248 OA
ATOM     12  O   UNL     1       0.488  -2.599  -1.926  0.00  0.00    -0.248 OA
ENDBRANCH   2  10
BRANCH   2  13
ATOM     13  N   UNL     1      -1.328  -1.531  -0.348  0.00  0.00    +0.393 N 
ATOM     14  H   UNL     1      -1.476  -2.518  -0.496  0.00  0.00    -0.084 HD
ATOM     15  H   UNL     1      -1.921  -1.212   0.404  0.00  0.00    -0.084 HD
BRANCH  13  16
ATOM     16  C   UNL     1      -1.657  -0.797  -1.577  0.00  0.00    -0.076 C 
BRANCH  16  17
ATOM     17  C   UNL     1      -3.141  -0.978  -1.898  0.00  0.00    -0.065 C 
ATOM     18  C   UNL     1      -3.442  -2.465  -2.097  0.00  0.00    +0.007 C 
ATOM     19  C   UNL     1      -3.983  -0.438  -0.740  0.00  0.00    +0.007 C 
BRANCH  17  20
ATOM     20  C   UNL     1      -3.483  -0.213  -3.178  0.00  0.00    -0.075 C 
BRANCH  20  21
ATOM     21  N   UNL     1      -4.907  -0.396  -3.493  0.00  0.00    +0.376 N 
ATOM     22  C   UNL     1      -5.700   0.612  -2.777  0.00  0.00    -0.097 C 
ATOM     23  C   UNL     1      -5.112  -0.244  -4.939  0.00  0.00    -0.097 C 
ATOM     24  H   UNL     1      -5.198  -1.319  -3.207  0.00  0.00    -0.083 HD
ENDBRANCH  20  21
ENDBRANCH  17  20
ENDBRANCH  16  17
ENDBRANCH  13  16
ENDBRANCH   2  13
TORSDOF 7
