REMARK  Name = ZINC03670432
REMARK  11 active torsions:
REMARK  status: ('A' for Active; 'I' for Inactive)
REMARK    1  A    between atoms: C_1  and  C_2
REMARK    2  A    between atoms: C_2  and  O_3
REMARK    3  A    between atoms: O_3  and  C_4
REMARK    4  A    between atoms: C_7  and  N_10
REMARK    5  A    between atoms: C_20  and  C_21
REMARK    6  A    between atoms: C_20  and  O_29
REMARK    7  A    between atoms: N_23  and  C_24
REMARK    8  A    between atoms: C_24  and  C_25
REMARK    9  A    between atoms: C_25  and  N_26
REMARK   10  A    between atoms: N_26  and  C_27
REMARK   11  A    between atoms: N_26  and  C_28
REMARK                            x       y       z     vdW  Elec       q    Type
REMARK                         _______ _______ _______ _____ _____    ______ ____
ROOT
ATOM      1  N   UNL     1      -1.989  -5.990  -0.013  0.00  0.00    -0.214 N 
ATOM      2  C   UNL     1      -0.921  -6.802  -0.118  0.00  0.00    +0.314 C 
ATOM      3  O   UNL     1       0.183  -6.299  -0.206  0.00  0.00    -0.252 OA
ATOM      4  N   UNL     1      -1.017  -8.137  -0.130  0.00  0.00    -0.269 N 
ATOM      5  C   UNL     1      -2.235  -8.812  -0.034  0.00  0.00    +0.043 A 
ATOM      6  C   UNL     1      -2.280 -10.200  -0.052  0.00  0.00    +0.025 A 
ATOM      7  C   UNL     1      -3.495 -10.850   0.044  0.00  0.00    +0.017 A 
ATOM      8  C   UNL     1      -4.668 -10.124   0.157  0.00  0.00    +0.018 A 
ATOM      9  C   UNL     1      -4.628  -8.740   0.175  0.00  0.00    +0.025 A 
ATOM     10  C   UNL     1      -3.418  -8.091   0.080  0.00  0.00    +0.034 A 
ATOM     11  C   UNL     1      -3.332  -6.582   0.102  0.00  0.00    +0.247 C 
ATOM     12 BR   UNL     1      -6.327 -11.024   0.287  0.00  0.00    -0.050 Br
ATOM     13  H   UNL     1      -0.203  -8.660  -0.209  0.00  0.00    +0.156 HD
ENDROOT
BRANCH   1  17
ATOM     14  C   UNL     1      -1.497  -1.849   0.007  0.00  0.00    +0.121 A 
ATOM     15  C   UNL     1      -1.347  -2.571   1.183  0.00  0.00    +0.047 A 
ATOM     16  C   UNL     1      -1.510  -3.942   1.177  0.00  0.00    +0.027 A 
ATOM     17  C   UNL     1      -1.824  -4.598  -0.006  0.00  0.00    +0.042 A 
ATOM     18  C   UNL     1      -1.974  -3.876  -1.181  0.00  0.00    +0.027 A 
ATOM     19  C   UNL     1      -1.816  -2.504  -1.173  0.00  0.00    +0.047 A 
BRANCH  14  20
ATOM     20  O   UNL     1      -1.336  -0.499   0.014  0.00  0.00    -0.492 OA
BRANCH  20  22
ATOM     21  C   UNL     1      -0.869   1.621   1.075  0.00  0.00    +0.048 C 
ATOM     22  C   UNL     1      -1.008   0.109   1.265  0.00  0.00    +0.225 C 
ENDBRANCH  20  22
ENDBRANCH  14  20
ENDBRANCH   1  17
BRANCH  11  23
ATOM     23  C   UNL     1      -3.947  -6.096   1.389  0.00  0.00    +0.269 C 
ATOM     24  O   UNL     1      -5.026  -5.542   1.374  0.00  0.00    -0.270 OA
ATOM     25  N   UNL     1      -3.298  -6.276   2.556  0.00  0.00    -0.313 N 
ATOM     26  H   UNL     1      -2.435  -6.719   2.568  0.00  0.00    +0.149 HD
BRANCH  25  27
ATOM     27  C   UNL     1      -3.895  -5.803   3.807  0.00  0.00    +0.086 C 
BRANCH  27  28
ATOM     28  C   UNL     1      -2.961  -6.130   4.974  0.00  0.00    -0.061 C 
BRANCH  28  29
ATOM     29  N   UNL     1      -3.561  -5.656   6.229  0.00  0.00    +0.377 N 
ATOM     30  C   UNL     1      -2.723  -6.075   7.361  0.00  0.00    -0.097 C 
ATOM     31  C   UNL     1      -3.652  -4.190   6.204  0.00  0.00    -0.097 C 
ATOM     32  H   UNL     1      -4.484  -6.049   6.330  0.00  0.00    -0.083 HD
ENDBRANCH  28  29
ENDBRANCH  27  28
ENDBRANCH  25  27
ENDBRANCH  11  23
BRANCH  11  33
ATOM     33  O   UNL     1      -4.127  -6.085  -0.977  0.00  0.00    -0.360 OA
ATOM     34  H   UNL     1      -5.033  -6.421  -0.985  0.00  0.00    +0.213 HD
ENDBRANCH  11  33
TORSDOF 8
