REMARK  Name = ZINC63494697
REMARK  6 active torsions:
REMARK  status: ('A' for Active; 'I' for Inactive)
REMARK    1  A    between atoms: C_1  and  C_2
REMARK    2  A    between atoms: C_6  and  C_8
REMARK    3  A    between atoms: C_19  and  N_23
REMARK    4  A    between atoms: N_23  and  C_24
REMARK    5  A    between atoms: C_24  and  C_25
REMARK    6  A    between atoms: C_25  and  C_26
REMARK                            x       y       z     vdW  Elec       q    Type
REMARK                         _______ _______ _______ _____ _____    ______ ____
ROOT
ATOM      1  C   UNL     1       0.054  -2.845   2.489  0.00  0.00    +0.188 C 
ATOM      2  N   UNL     1       0.805  -2.095   3.514  0.00  0.00    -0.311 N 
ATOM      3  C   UNL     1       1.909  -2.823   3.781  0.00  0.00    +0.114 C 
ATOM      4  C   UNL     1       3.097  -2.450   4.436  0.00  0.00    +0.035 A 
ATOM      5  C   UNL     1       3.321  -1.170   4.949  0.00  0.00    +0.013 A 
ATOM      6  C   UNL     1       4.532  -0.876   5.506  0.00  0.00    +0.001 A 
ATOM      7  C   UNL     1       5.547  -1.827   5.580  0.00  0.00    +0.002 A 
ATOM      8  C   UNL     1       5.380  -3.097   5.125  0.00  0.00    +0.026 A 
ATOM      9  C   UNL     1       4.142  -3.479   4.563  0.00  0.00    +0.048 A 
ATOM     10  N   UNL     1       3.912  -4.726   4.194  0.00  0.00    -0.353 N 
ATOM     11  C   UNL     1       2.607  -5.211   3.748  0.00  0.00    +0.258 C 
ATOM     12  N   UNL     1       1.773  -4.097   3.290  0.00  0.00    -0.216 N 
ATOM     13  N   UNL     1       0.798  -4.113   2.336  0.00  0.00    -0.212 NA
ATOM     14  H   UNL     1       0.554  -1.249   3.915  0.00  0.00    +0.149 HD
ATOM     15  H   UNL     1       1.197  -4.189   1.412  0.00  0.00    +0.147 HD
ATOM     16  H   UNL     1       4.650  -5.355   4.220  0.00  0.00    +0.163 HD
ENDROOT
BRANCH   1  22
ATOM     17  C   UNL     1      -0.018   1.503   0.010  0.00  0.00    +0.044 C 
ATOM     18  C   UNL     1       0.002  -0.004   0.002  0.00  0.00    -0.050 A 
ATOM     19  C   UNL     1       0.006  -0.689  -1.199  0.00  0.00    +0.003 A 
ATOM     20  C   UNL     1       0.025  -2.071  -1.207  0.00  0.00    +0.001 A 
ATOM     21  C   UNL     1       0.040  -2.768  -0.013  0.00  0.00    +0.007 A 
ATOM     22  C   UNL     1       0.037  -2.084   1.188  0.00  0.00    -0.011 A 
ATOM     23  C   UNL     1       0.023  -0.702   1.195  0.00  0.00    +0.010 A 
ENDBRANCH   1  22
BRANCH  11  24
ATOM     24  N   UNL     1       1.935  -5.891   4.864  0.00  0.00    -0.280 NA
ATOM     25  H   UNL     1       1.960  -5.326   5.699  0.00  0.00    +0.125 HD
BRANCH  24  26
ATOM     26  C   UNL     1       2.525  -7.214   5.106  0.00  0.00    +0.089 C 
BRANCH  26  27
ATOM     27  C   UNL     1       1.802  -7.890   6.272  0.00  0.00    +0.048 C 
BRANCH  27  28
ATOM     28  C   UNL     1       2.407  -9.248   6.521  0.00  0.00    -0.040 C 
ATOM     29  C   UNL     1       3.370  -9.556   7.418  0.00  0.00    -0.001 A 
ATOM     30  C   UNL     1       4.115  -8.752   8.394  0.00  0.00    +0.010 A 
ATOM     31  C   UNL     1       5.042  -9.356   9.172  0.00  0.00    +0.001 A 
ATOM     32  C   UNL     1       5.307 -10.729   9.071  0.00  0.00    +0.002 A 
ATOM     33  C   UNL     1       4.664 -11.533   8.198  0.00  0.00    +0.026 A 
ATOM     34  C   UNL     1       3.670 -11.004   7.331  0.00  0.00    +0.043 A 
ATOM     35  N   UNL     1       2.920 -11.568   6.415  0.00  0.00    -0.380 N 
ATOM     36  C   UNL     1       2.056 -10.541   5.821  0.00  0.00    +0.144 C 
ATOM     37  H   UNL     1       2.932 -12.507   6.173  0.00  0.00    +0.160 HD
ENDBRANCH  27  28
ENDBRANCH  26  27
ENDBRANCH  24  26
ENDBRANCH  11  24
TORSDOF 5
