REMARK  Name = ZINC12530428
REMARK  7 active torsions:
REMARK  status: ('A' for Active; 'I' for Inactive)
REMARK    1  A    between atoms: C_3  and  C_6
REMARK    2  A    between atoms: N_8  and  C_9
REMARK    3  A    between atoms: C_18  and  C_21
REMARK    4  A    between atoms: C_21  and  C_22
REMARK    5  A    between atoms: C_22  and  C_23
REMARK    6  A    between atoms: N_25  and  C_26
REMARK    7  A    between atoms: C_26  and  C_27
REMARK                            x       y       z     vdW  Elec       q    Type
REMARK                         _______ _______ _______ _____ _____    ______ ____
ROOT
ATOM      1  C   UNL     1      -4.914   1.897  -0.010  0.00  0.00    +0.056 C 
ATOM      2  C   UNL     1      -5.941   2.911   0.570  0.00  0.00    +0.014 C 
ATOM      3  C   UNL     1      -7.177   2.640  -0.302  0.00  0.00    +0.021 C 
ATOM      4  C   UNL     1      -8.151   3.771  -0.383  0.00  0.00    +0.200 C 
ATOM      5  O   UNL     1      -8.357   4.473   0.584  0.00  0.00    -0.278 OA
ATOM      6  N   UNL     1      -8.798   4.001  -1.542  0.00  0.00    -0.318 N 
ATOM      7  C   UNL     1      -8.532   3.303  -2.793  0.00  0.00    +0.089 C 
ATOM      8  C   UNL     1      -7.605   2.094  -2.594  0.00  0.00    -0.050 C 
ATOM      9  C   UNL     1      -5.419   1.587  -1.442  0.00  0.00    -0.055 C 
ATOM     10  H   UNL     1      -9.490   4.680  -1.544  0.00  0.00    +0.149 HD
ATOM     11  N   UNL     1      -6.570   2.526  -1.600  0.00  0.00    +0.391 N 
ATOM     12  H   UNL     1      -6.209   3.440  -1.895  0.00  0.00    -0.080 HD
ENDROOT
BRANCH   1  15
ATOM     13  C   UNL     1      -2.485   1.709  -0.064  0.00  0.00    +0.251 C 
ATOM     14  O   UNL     1      -2.607   0.498  -0.027  0.00  0.00    -0.270 OA
ATOM     15  N   UNL     1      -3.578   2.497  -0.059  0.00  0.00    -0.310 N 
ATOM     16  H   UNL     1      -3.481   3.462  -0.088  0.00  0.00    +0.149 HD
BRANCH  13  19
ATOM     17  C   UNL     1       1.196   2.496  -0.181  0.00  0.00    +0.008 A 
ATOM     18  C   UNL     1       0.089   1.686  -0.126  0.00  0.00    +0.021 A 
ATOM     19  C   UNL     1      -1.149   2.309  -0.113  0.00  0.00    +0.074 A 
ATOM     20  S   UNL     1      -0.692   4.033  -0.170  0.00  0.00    -0.092 S 
ATOM     21  C   UNL     1       1.031   3.844  -0.215  0.00  0.00    +0.046 A 
ENDBRANCH  13  19
ENDBRANCH   1  15
BRANCH   8  22
ATOM     22  C   UNL     1      -6.971   1.700  -3.930  0.00  0.00    -0.005 C 
BRANCH  22  23
ATOM     23  C   UNL     1      -8.059   1.204  -4.884  0.00  0.00    +0.094 C 
BRANCH  23  24
ATOM     24  C   UNL     1      -7.422   0.700  -6.153  0.00  0.00    +0.213 C 
ATOM     25  O   UNL     1      -6.217   0.735  -6.282  0.00  0.00    -0.276 OA
ATOM     26  N   UNL     1      -8.192   0.211  -7.146  0.00  0.00    -0.311 N 
ATOM     27  H   UNL     1      -9.156   0.183  -7.043  0.00  0.00    +0.149 HD
BRANCH  26  28
ATOM     28  C   UNL     1      -7.573  -0.279  -8.380  0.00  0.00    +0.139 C 
BRANCH  28  29
ATOM     29  C   UNL     1      -8.645  -0.768  -9.320  0.00  0.00    -0.030 A 
ATOM     30  C   UNL     1      -9.050  -2.089  -9.278  0.00  0.00    +0.008 A 
ATOM     31  C   UNL     1     -10.036  -2.537 -10.136  0.00  0.00    +0.038 A 
ATOM     32  C   UNL     1     -10.612  -1.665 -11.044  0.00  0.00    +0.123 A 
ATOM     33  C   UNL     1     -10.201  -0.343 -11.089  0.00  0.00    +0.038 A 
ATOM     34  C   UNL     1      -9.218   0.104 -10.227  0.00  0.00    +0.008 A 
ATOM     35  F   UNL     1     -11.572  -2.103 -11.887  0.00  0.00    -0.205 F 
ENDBRANCH  28  29
ENDBRANCH  26  28
ENDBRANCH  23  24
ENDBRANCH  22  23
ENDBRANCH   8  22
TORSDOF 7
