REMARK  Name = ZINC63388089
REMARK  13 active torsions:
REMARK  status: ('A' for Active; 'I' for Inactive)
REMARK    1  A    between atoms: C_1  and  C_2
REMARK    2  A    between atoms: C_2  and  O_3
REMARK    3  A    between atoms: O_3  and  C_4
REMARK    4  A    between atoms: C_4  and  C_6
REMARK    5  A    between atoms: C_6  and  C_8
REMARK    6  A    between atoms: C_6  and  N_18
REMARK    7  A    between atoms: C_8  and  C_9
REMARK    8  A    between atoms: C_19  and  C_21
REMARK    9  A    between atoms: C_21  and  C_22
REMARK   10  A    between atoms: C_22  and  C_23
REMARK   11  A    between atoms: N_25  and  C_26
REMARK   12  A    between atoms: C_29  and  S_32
REMARK   13  A    between atoms: S_32  and  N_35
REMARK                            x       y       z     vdW  Elec       q    Type
REMARK                         _______ _______ _______ _____ _____    ______ ____
ROOT
ATOM      1  N   UNL     1       1.446  -3.816  -2.483  0.00  0.00    -0.302 N 
ATOM      2  C   UNL     1       0.374  -4.496  -2.937  0.00  0.00    +0.214 C 
ATOM      3  O   UNL     1      -0.578  -3.896  -3.389  0.00  0.00    -0.276 OA
ATOM      4  H   UNL     1       2.207  -4.296  -2.121  0.00  0.00    +0.150 HD
ENDROOT
BRANCH   1   5
ATOM      5  C   UNL     1       1.460  -2.352  -2.534  0.00  0.00    +0.186 C 
BRANCH   5   6
ATOM      6  C   UNL     1       0.772  -1.800  -1.312  0.00  0.00    +0.328 C 
ATOM      7  O   UNL     1       0.317  -2.553  -0.483  0.00  0.00    -0.249 OA
BRANCH   6   8
ATOM      8  O   UNL     1       0.665  -0.473  -1.144  0.00  0.00    -0.464 OA
BRANCH   8  10
ATOM      9  C   UNL     1      -0.023   1.510   0.054  0.00  0.00    +0.048 C 
ATOM     10  C   UNL     1       0.001  -0.020   0.037  0.00  0.00    +0.229 C 
ENDBRANCH   8  10
ENDBRANCH   6   8
ENDBRANCH   5   6
BRANCH   5  11
ATOM     11  C   UNL     1       2.907  -1.857  -2.572  0.00  0.00    +0.067 C 
BRANCH  11  12
ATOM     12  C   UNL     1       3.559  -2.308  -3.854  0.00  0.00    -0.039 C 
ATOM     13  C   UNL     1       3.672  -1.599  -5.000  0.00  0.00    -0.001 A 
ATOM     14  C   UNL     1       3.239  -0.250  -5.383  0.00  0.00    +0.010 A 
ATOM     15  C   UNL     1       3.501   0.194  -6.633  0.00  0.00    +0.001 A 
ATOM     16  C   UNL     1       4.174  -0.602  -7.571  0.00  0.00    +0.002 A 
ATOM     17  C   UNL     1       4.603  -1.851  -7.294  0.00  0.00    +0.026 A 
ATOM     18  C   UNL     1       4.382  -2.418  -6.009  0.00  0.00    +0.043 A 
ATOM     19  N   UNL     1       4.694  -3.588  -5.505  0.00  0.00    -0.380 N 
ATOM     20  C   UNL     1       4.223  -3.640  -4.117  0.00  0.00    +0.144 C 
ATOM     21  H   UNL     1       5.162  -4.298  -5.972  0.00  0.00    +0.160 HD
ENDBRANCH  11  12
ENDBRANCH   5  11
ENDBRANCH   1   5
BRANCH   2  22
ATOM     22  C   UNL     1       0.360  -6.002  -2.885  0.00  0.00    +0.105 C 
BRANCH  22  23
ATOM     23  C   UNL     1      -0.961  -6.520  -3.458  0.00  0.00    +0.105 C 
BRANCH  23  24
ATOM     24  C   UNL     1      -0.976  -8.026  -3.405  0.00  0.00    +0.218 C 
ATOM     25  O   UNL     1      -0.024  -8.626  -2.954  0.00  0.00    -0.275 OA
ATOM     26  N   UNL     1      -2.047  -8.706  -3.860  0.00  0.00    -0.285 N 
ATOM     27  H   UNL     1      -2.835  -8.225  -4.159  0.00  0.00    +0.155 HD
BRANCH  26  28
ATOM     28  C   UNL     1      -2.022 -10.104  -3.901  0.00  0.00    +0.033 A 
ATOM     29  C   UNL     1      -2.661 -10.781  -4.932  0.00  0.00    +0.025 A 
ATOM     30  C   UNL     1      -2.635 -12.162  -4.969  0.00  0.00    +0.030 A 
ATOM     31  C   UNL     1      -1.974 -12.869  -3.982  0.00  0.00    +0.105 A 
ATOM     32  C   UNL     1      -1.338 -12.198  -2.954  0.00  0.00    +0.030 A 
ATOM     33  C   UNL     1      -1.355 -10.817  -2.914  0.00  0.00    +0.025 A 
BRANCH  31  34
ATOM     34  S   UNL     1      -1.943 -14.630  -4.034  0.00  0.00    +0.056 S 
ATOM     35  O   UNL     1      -1.725 -15.072  -2.701  0.00  0.00    -0.153 OA
ATOM     36  O   UNL     1      -3.073 -15.034  -4.795  0.00  0.00    -0.153 OA
BRANCH  34  37
ATOM     37  N   UNL     1      -0.605 -15.071  -4.904  0.00  0.00    -0.204 NA
ATOM     38  H   UNL     1      -0.018 -14.390  -5.269  0.00  0.00    +0.144 HD
ATOM     39  H   UNL     1      -0.407 -16.010  -5.048  0.00  0.00    +0.144 HD
ENDBRANCH  34  37
ENDBRANCH  31  34
ENDBRANCH  26  28
ENDBRANCH  23  24
ENDBRANCH  22  23
ENDBRANCH   2  22
TORSDOF 12
