REMARK  Name = ZINC32971969
REMARK  15 active torsions:
REMARK  status: ('A' for Active; 'I' for Inactive)
REMARK    1  A    between atoms: C_1  and  C_2
REMARK    2  A    between atoms: C_9  and  C_11
REMARK    3  A    between atoms: N_13  and  C_14
REMARK    4  A    between atoms: N_13  and  C_15
REMARK    5  A    between atoms: C_15  and  C_16
REMARK    6  A    between atoms: N_18  and  C_19
REMARK    7  A    between atoms: N_18  and  C_23
REMARK    8  A    between atoms: C_19  and  C_20
REMARK    9  A    between atoms: C_20  and  C_21
REMARK   10  A    between atoms: C_20  and  C_22
REMARK   11  A    between atoms: C_24  and  N_36
REMARK   12  A    between atoms: N_25  and  C_32
REMARK   13  A    between atoms: C_32  and  C_33
REMARK   14  A    between atoms: C_33  and  C_34
REMARK   15  A    between atoms: C_33  and  C_35
REMARK                            x       y       z     vdW  Elec       q    Type
REMARK                         _______ _______ _______ _____ _____    ______ ____
ROOT
ATOM      1  C   UNL     1      -5.650   1.318   0.697  0.00  0.00    +0.237 C 
ATOM      2  O   UNL     1      -5.108   1.808  -0.271  0.00  0.00    -0.274 OA
ATOM      3  N   UNL     1      -6.639   0.415   0.532  0.00  0.00    -0.263 N 
ENDROOT
BRANCH   3   4
ATOM      4  C   UNL     1      -7.356  -0.059   1.651  0.00  0.00    +0.140 A 
ATOM      5  C   UNL     1      -8.684   0.269   1.825  0.00  0.00    +0.127 A 
ATOM      6  N   UNL     1      -9.356  -0.209   2.926  0.00  0.00    -0.280 N 
ATOM      7  C   UNL     1      -8.725  -0.987   3.823  0.00  0.00    +0.331 A 
ATOM      8  O   UNL     1      -9.336  -1.399   4.790  0.00  0.00    -0.246 OA
ATOM      9  N   UNL     1      -7.430  -1.317   3.671  0.00  0.00    -0.273 N 
ATOM     10  H   UNL     1      -6.932  -1.951   4.419  0.00  0.00    +0.173 HD
ATOM     11  C   UNL     1      -6.728  -0.880   2.607  0.00  0.00    +0.277 A 
ATOM     12  O   UNL     1      -5.556  -1.190   2.475  0.00  0.00    -0.266 OA
BRANCH   5  13
ATOM     13  N   UNL     1      -9.329   1.065   0.908  0.00  0.00    -0.343 N 
ATOM     14  H   UNL     1     -10.389   1.323   1.053  0.00  0.00    +0.144 HD
ATOM     15  H   UNL     1      -8.786   1.444   0.030  0.00  0.00    +0.144 HD
ENDBRANCH   5  13
BRANCH   6  16
ATOM     16  C   UNL     1     -10.767   0.132   3.122  0.00  0.00    +0.131 C 
BRANCH  16  17
ATOM     17  C   UNL     1     -11.645  -0.923   2.446  0.00  0.00    +0.003 C 
ATOM     18  C   UNL     1     -13.116  -0.637   2.756  0.00  0.00    +0.009 C 
ATOM     19  C   UNL     1     -11.425  -0.876   0.933  0.00  0.00    +0.009 C 
ENDBRANCH  16  17
ENDBRANCH   6  16
ENDBRANCH   3   4
BRANCH   1  20
ATOM     20  C   UNL     1      -5.218   1.717   2.085  0.00  0.00    +0.204 C 
BRANCH  20  23
ATOM     21  C   UNL     1      -4.367   3.995   1.939  0.00  0.00    +0.253 C 
ATOM     22  O   UNL     1      -5.514   4.397   2.000  0.00  0.00    -0.269 OA
ATOM     23  N   UNL     1      -4.112   2.673   1.996  0.00  0.00    -0.291 N 
ATOM     24  C   UNL     1      -2.728   2.192   1.969  0.00  0.00    +0.133 C 
BRANCH  21  32
ATOM     25  C   UNL     1      -0.507  10.397   0.711  0.00  0.00    +0.008 C 
ATOM     26  C   UNL     1      -0.647   8.875   0.776  0.00  0.00    -0.009 C 
ATOM     27  C   UNL     1       0.411   8.307   1.726  0.00  0.00    +0.009 C 
ATOM     28  C   UNL     1       0.440   6.779   1.577  0.00  0.00    +0.043 C 
ATOM     29  C   UNL     1      -0.969   6.272   1.632  0.00  0.00    -0.006 A 
ATOM     30  C   UNL     1      -2.114   7.007   1.505  0.00  0.00    -0.036 A 
ATOM     31  C   UNL     1      -3.311   6.315   1.592  0.00  0.00    +0.024 A 
ATOM     32  C   UNL     1      -3.263   4.950   1.804  0.00  0.00    +0.075 A 
ATOM     33  S   UNL     1      -1.504   4.652   1.868  0.00  0.00    -0.088 S 
ATOM     34  C   UNL     1      -2.046   8.515   1.278  0.00  0.00    +0.039 C 
ENDBRANCH  21  32
ENDBRANCH  20  23
ENDBRANCH   1  20
BRANCH   3  35
ATOM     35  C   UNL     1      -6.970  -0.071  -0.810  0.00  0.00    +0.117 C 
BRANCH  35  36
ATOM     36  C   UNL     1      -6.232  -1.386  -1.072  0.00  0.00    +0.001 C 
ATOM     37  C   UNL     1      -6.620  -1.922  -2.451  0.00  0.00    +0.009 C 
ATOM     38  C   UNL     1      -4.722  -1.141  -1.026  0.00  0.00    +0.009 C 
ENDBRANCH  35  36
ENDBRANCH   3  35
TORSDOF 9
