REMARK  Name = ZINC03289185
REMARK  11 active torsions:
REMARK  status: ('A' for Active; 'I' for Inactive)
REMARK    1  A    between atoms: C_4  and  N_7
REMARK    2  A    between atoms: C_8  and  C_10
REMARK    3  A    between atoms: C_10  and  N_59
REMARK    4  A    between atoms: C_11  and  C_12
REMARK    5  A    between atoms: C_11  and  N_59
REMARK    6  A    between atoms: C_12  and  C_13
REMARK    7  A    between atoms: C_16  and  S_19
REMARK    8  A    between atoms: S_19  and  N_22
REMARK    9  A    between atoms: C_23  and  C_24
REMARK   10  A    between atoms: C_23  and  N_59
REMARK   11  A    between atoms: N_26  and  C_27
REMARK                            x       y       z     vdW  Elec       q    Type
REMARK                         _______ _______ _______ _____ _____    ______ ____
ROOT
ATOM      1  N   UNL     1      -2.815  -3.147   0.693  0.00  0.00    +0.391 N 
ATOM      2  H   UNL     1      -3.242  -2.802  -0.175  0.00  0.00    -0.080 HD
ENDROOT
BRANCH   1   3
ATOM      3  C   UNL     1      -1.352  -2.944   0.621  0.00  0.00    +0.020 C 
BRANCH   3   5
ATOM      4  N   UNL     1       0.192  -1.081   0.108  0.00  0.00    -0.287 N 
ATOM      5  C   UNL     1      -1.078  -1.509   0.253  0.00  0.00    +0.201 C 
ATOM      6  O   UNL     1      -2.000  -0.739   0.087  0.00  0.00    -0.278 OA
ATOM      7  H   UNL     1       0.926  -1.711   0.175  0.00  0.00    +0.155 HD
BRANCH   4  11
ATOM      8  C   UNL     1       0.961   2.948  -0.623  0.00  0.00    +0.000 A 
ATOM      9  C   UNL     1       1.832   2.210   0.158  0.00  0.00    +0.002 A 
ATOM     10  C   UNL     1       1.579   0.874   0.402  0.00  0.00    +0.023 A 
ATOM     11  C   UNL     1       0.450   0.272  -0.138  0.00  0.00    +0.033 A 
ATOM     12  C   UNL     1      -0.418   1.014  -0.927  0.00  0.00    +0.023 A 
ATOM     13  C   UNL     1      -0.164   2.351  -1.162  0.00  0.00    +0.002 A 
ENDBRANCH   4  11
ENDBRANCH   3   5
ENDBRANCH   1   3
BRANCH   1  14
ATOM     14  C   UNL     1      -3.118  -4.586   0.839  0.00  0.00    -0.073 C 
BRANCH  14  15
ATOM     15  C   UNL     1      -2.784  -5.296  -0.475  0.00  0.00    +0.016 C 
BRANCH  15  16
ATOM     16  C   UNL     1      -3.228  -6.734  -0.396  0.00  0.00    -0.049 A 
ATOM     17  C   UNL     1      -2.359  -7.701   0.073  0.00  0.00    +0.005 A 
ATOM     18  C   UNL     1      -2.767  -9.019   0.150  0.00  0.00    +0.029 A 
ATOM     19  C   UNL     1      -4.042  -9.372  -0.251  0.00  0.00    +0.105 A 
ATOM     20  C   UNL     1      -4.910  -8.406  -0.725  0.00  0.00    +0.029 A 
ATOM     21  C   UNL     1      -4.503  -7.087  -0.798  0.00  0.00    +0.005 A 
BRANCH  19  22
ATOM     22  S   UNL     1      -4.562 -11.053  -0.158  0.00  0.00    +0.056 S 
ATOM     23  O   UNL     1      -3.751 -11.674   0.831  0.00  0.00    -0.153 OA
ATOM     24  O   UNL     1      -5.980 -11.036  -0.079  0.00  0.00    -0.153 OA
BRANCH  22  25
ATOM     25  N   UNL     1      -4.176 -11.766  -1.602  0.00  0.00    -0.204 NA
ATOM     26  H   UNL     1      -3.964 -12.712  -1.635  0.00  0.00    +0.144 HD
ATOM     27  H   UNL     1      -4.162 -11.237  -2.415  0.00  0.00    +0.144 HD
ENDBRANCH  22  25
ENDBRANCH  19  22
ENDBRANCH  15  16
ENDBRANCH  14  15
ENDBRANCH   1  14
BRANCH   1  28
ATOM     28  C   UNL     1      -3.373  -2.394   1.835  0.00  0.00    +0.020 C 
BRANCH  28  29
ATOM     29  C   UNL     1      -4.869  -2.303   1.670  0.00  0.00    +0.201 C 
ATOM     30  O   UNL     1      -5.412  -2.870   0.746  0.00  0.00    -0.278 OA
ATOM     31  N   UNL     1      -5.602  -1.591   2.548  0.00  0.00    -0.287 N 
ATOM     32  H   UNL     1      -5.162  -1.083   3.248  0.00  0.00    +0.155 HD
BRANCH  31  33
ATOM     33  C   UNL     1      -6.998  -1.585   2.452  0.00  0.00    +0.033 A 
ATOM     34  C   UNL     1      -7.609  -1.601   1.205  0.00  0.00    +0.023 A 
ATOM     35  C   UNL     1      -8.987  -1.601   1.113  0.00  0.00    +0.002 A 
ATOM     36  C   UNL     1      -9.758  -1.572   2.260  0.00  0.00    +0.000 A 
ATOM     37  C   UNL     1      -9.152  -1.550   3.503  0.00  0.00    +0.002 A 
ATOM     38  C   UNL     1      -7.775  -1.556   3.602  0.00  0.00    +0.023 A 
ENDBRANCH  31  33
ENDBRANCH  28  29
ENDBRANCH   1  28
TORSDOF 11
