REMARK  Name = ZINC35052123
REMARK  11 active torsions:
REMARK  status: ('A' for Active; 'I' for Inactive)
REMARK    1  A    between atoms: C_1  and  C_2
REMARK    2  A    between atoms: C_2  and  C_43
REMARK    3  A    between atoms: C_3  and  O_42
REMARK    4  A    between atoms: C_4  and  O_41
REMARK    5  A    between atoms: C_5  and  N_32
REMARK    6  A    between atoms: C_8  and  C_10
REMARK    7  A    between atoms: C_10  and  C_12
REMARK    8  A    between atoms: C_10  and  O_31
REMARK    9  A    between atoms: C_12  and  C_13
REMARK   10  A    between atoms: C_12  and  C_19
REMARK   11  A    between atoms: C_12  and  C_25
REMARK                            x       y       z     vdW  Elec       q    Type
REMARK                         _______ _______ _______ _____ _____    ______ ____
ROOT
ATOM      1  C   UNL     1      -3.913  -0.351  -0.212  0.00  0.00    +0.165 C 
ENDROOT
BRANCH   1   8
ATOM      2  C   UNL     1       0.000   1.414  -0.971  0.00  0.00    +0.017 C 
ATOM      3  C   UNL     1      -0.255   0.006  -1.512  0.00  0.00    +0.035 C 
ATOM      4  C   UNL     1      -1.598  -0.645  -1.177  0.00  0.00    +0.136 C 
ATOM      5  C   UNL     1      -0.301  -1.140  -0.499  0.00  0.00    +0.150 C 
ATOM      6  C   UNL     1      -0.498  -0.785   0.991  0.00  0.00    +0.259 C 
ATOM      7  O   UNL     1      -1.930  -0.712   1.167  0.00  0.00    -0.345 OA
ATOM      8  C   UNL     1      -2.425  -0.050  -0.016  0.00  0.00    +0.186 C 
ATOM      9  C   UNL     1       0.349  -0.292  -2.886  0.00  0.00    +0.017 C 
BRANCH   6  10
ATOM     10  N   UNL     1       0.070  -1.832   1.844  0.00  0.00    -0.271 N 
ATOM     11  C   UNL     1      -0.469  -3.090   1.824  0.00  0.00    +0.098 A 
ATOM     12  C   UNL     1       0.055  -4.055   2.610  0.00  0.00    +0.088 A 
ATOM     13  C   UNL     1       1.157  -3.743   3.442  0.00  0.00    +0.254 A 
ATOM     14  O   UNL     1       1.647  -4.596   4.159  0.00  0.00    -0.268 OA
ATOM     15  N   UNL     1       1.659  -2.491   3.433  0.00  0.00    -0.275 N 
ATOM     16  H   UNL     1       2.414  -2.270   4.000  0.00  0.00    +0.173 HD
ATOM     17  C   UNL     1       1.121  -1.550   2.636  0.00  0.00    +0.331 A 
ATOM     18  O   UNL     1       1.587  -0.427   2.635  0.00  0.00    -0.246 OA
ENDBRANCH   6  10
BRANCH   5  19
ATOM     19  O   UNL     1       0.298  -2.397  -0.821  0.00  0.00    -0.380 OA
ATOM     20  H   UNL     1       1.100  -2.591  -0.316  0.00  0.00    +0.211 HD
ENDBRANCH   5  19
BRANCH   4  21
ATOM     21  O   UNL     1      -2.294  -1.393  -2.177  0.00  0.00    -0.382 OA
ATOM     22  H   UNL     1      -3.099  -0.966  -2.499  0.00  0.00    +0.210 HD
ENDBRANCH   4  21
ENDBRANCH   1   8
BRANCH   1  23
ATOM     23  O   UNL     1      -4.326   0.110  -1.500  0.00  0.00    -0.388 OA
ATOM     24  H   UNL     1      -4.364   1.073  -1.580  0.00  0.00    +0.210 HD
ENDBRANCH   1  23
BRANCH   1  25
ATOM     25  C   UNL     1      -4.724   0.363   0.870  0.00  0.00    +0.074 C 
BRANCH  25  26
ATOM     26  C   UNL     1      -4.613   1.854   0.680  0.00  0.00    -0.030 A 
ATOM     27  C   UNL     1      -3.773   2.366  -0.291  0.00  0.00    +0.005 A 
ATOM     28  C   UNL     1      -3.671   3.733  -0.466  0.00  0.00    +0.000 A 
ATOM     29  C   UNL     1      -4.409   4.589   0.331  0.00  0.00    +0.000 A 
ATOM     30  C   UNL     1      -5.250   4.077   1.301  0.00  0.00    +0.000 A 
ATOM     31  C   UNL     1      -5.355   2.709   1.473  0.00  0.00    +0.005 A 
ENDBRANCH  25  26
BRANCH  25  32
ATOM     32  C   UNL     1      -6.170  -0.050   0.768  0.00  0.00    -0.030 A 
ATOM     33  C   UNL     1      -6.810  -0.603   1.861  0.00  0.00    +0.005 A 
ATOM     34  C   UNL     1      -8.136  -0.982   1.768  0.00  0.00    +0.000 A 
ATOM     35  C   UNL     1      -8.823  -0.806   0.581  0.00  0.00    +0.000 A 
ATOM     36  C   UNL     1      -8.183  -0.252  -0.512  0.00  0.00    +0.000 A 
ATOM     37  C   UNL     1      -6.859   0.131  -0.417  0.00  0.00    +0.005 A 
ENDBRANCH  25  32
BRANCH  25  38
ATOM     38  C   UNL     1      -4.190  -0.011   2.229  0.00  0.00    -0.030 A 
ATOM     39  C   UNL     1      -4.178  -1.335   2.626  0.00  0.00    +0.005 A 
ATOM     40  C   UNL     1      -3.687  -1.678   3.872  0.00  0.00    +0.000 A 
ATOM     41  C   UNL     1      -3.209  -0.698   4.720  0.00  0.00    +0.000 A 
ATOM     42  C   UNL     1      -3.220   0.626   4.323  0.00  0.00    +0.000 A 
ATOM     43  C   UNL     1      -3.707   0.969   3.075  0.00  0.00    +0.005 A 
ENDBRANCH  25  38
ENDBRANCH   1  25
TORSDOF 9
