REMARK  Name = ZINC15935133
REMARK  12 active torsions:
REMARK  status: ('A' for Active; 'I' for Inactive)
REMARK    1  A    between atoms: C_1  and  C_2
REMARK    2  A    between atoms: C_8  and  N_10
REMARK    3  A    between atoms: N_10  and  C_11
REMARK    4  A    between atoms: C_11  and  C_12
REMARK    5  A    between atoms: N_14  and  C_15
REMARK    6  A    between atoms: C_18  and  N_34
REMARK    7  A    between atoms: C_20  and  C_21
REMARK    8  A    between atoms: N_23  and  C_24
REMARK    9  A    between atoms: C_27  and  O_32
REMARK   10  A    between atoms: C_29  and  O_30
REMARK   11  A    between atoms: O_30  and  C_31
REMARK   12  A    between atoms: O_32  and  C_33
REMARK                            x       y       z     vdW  Elec       q    Type
REMARK                         _______ _______ _______ _____ _____    ______ ____
ROOT
ATOM      1  C   UNL     1       6.473  -0.035   3.178  0.00  0.00    +0.046 A 
ATOM      2  C   UNL     1       6.833   0.863   2.182  0.00  0.00    +0.026 A 
ATOM      3  C   UNL     1       8.140   1.295   2.079  0.00  0.00    +0.034 A 
ATOM      4  C   UNL     1       9.101   0.840   2.968  0.00  0.00    +0.127 A 
ATOM      5  C   UNL     1       8.762  -0.051   3.963  0.00  0.00    +0.047 A 
ATOM      6  C   UNL     1       7.443  -0.494   4.082  0.00  0.00    +0.060 A 
ENDROOT
BRANCH   1   9
ATOM      7  C   UNL     1       4.152   0.293   2.809  0.00  0.00    +0.200 C 
ATOM      8  O   UNL     1       4.385   1.404   2.383  0.00  0.00    -0.278 OA
ATOM      9  N   UNL     1       5.155  -0.472   3.283  0.00  0.00    -0.286 N 
ATOM     10  H   UNL     1       4.959  -1.327   3.697  0.00  0.00    +0.155 HD
BRANCH   7  11
ATOM     11  C   UNL     1       2.739  -0.233   2.808  0.00  0.00    +0.016 C 
BRANCH  11  12
ATOM     12  N   UNL     1       1.839   0.782   2.246  0.00  0.00    +0.387 N 
ATOM     13  H   UNL     1       2.120   0.994   1.300  0.00  0.00    -0.085 HD
ATOM     14  H   UNL     1       1.885   1.620   2.806  0.00  0.00    -0.085 HD
BRANCH  12  21
ATOM     15  C   UNL     1      -0.410   2.610   2.291  0.00  0.00    +0.006 C 
ATOM     16  C   UNL     1      -0.456   1.274   1.546  0.00  0.00    -0.028 C 
ATOM     17  C   UNL     1      -1.890   0.740   1.545  0.00  0.00    +0.002 C 
ATOM     18  C   UNL     1      -2.359   0.537   2.987  0.00  0.00    +0.000 C 
ATOM     19  C   UNL     1      -1.441  -0.468   3.685  0.00  0.00    -0.002 C 
ATOM     20  C   UNL     1      -0.007   0.066   3.687  0.00  0.00    -0.015 C 
ATOM     21  C   UNL     1       0.462   0.269   2.245  0.00  0.00    -0.068 C 
ENDBRANCH  12  21
ENDBRANCH  11  12
ENDBRANCH   7  11
ENDBRANCH   1   9
BRANCH   6  22
ATOM     22  C   UNL     1       7.072  -1.443   5.149  0.00  0.00    +0.250 C 
ATOM     23  O   UNL     1       5.945  -1.899   5.192  0.00  0.00    -0.270 OA
ATOM     24  N   UNL     1       7.981  -1.804   6.075  0.00  0.00    -0.278 N 
ATOM     25  H   UNL     1       8.898  -1.496   6.001  0.00  0.00    +0.155 HD
BRANCH  24  26
ATOM     26  C   UNL     1       7.603  -2.627   7.146  0.00  0.00    +0.076 A 
ATOM     27  C   UNL     1       6.651  -3.619   6.957  0.00  0.00    +0.030 A 
ATOM     28  C   UNL     1       6.278  -4.429   8.011  0.00  0.00    +0.047 A 
ATOM     29  C   UNL     1       6.854  -4.254   9.261  0.00  0.00    +0.124 A 
ATOM     30  C   UNL     1       7.806  -3.264   9.455  0.00  0.00    +0.093 A 
ATOM     31  C   UNL     1       8.187  -2.454   8.399  0.00  0.00    +0.145 A 
BRANCH  31  32
ATOM     32  O   UNL     1       9.124  -1.487   8.585  0.00  0.00    -0.493 OA
ATOM     33  C   UNL     1       9.680  -1.366   9.896  0.00  0.00    +0.277 C 
ENDBRANCH  31  32
BRANCH  29  34
ATOM     34  O   UNL     1       6.485  -5.054  10.297  0.00  0.00    -0.495 OA
ATOM     35  C   UNL     1       5.499  -6.052  10.027  0.00  0.00    +0.277 C 
ENDBRANCH  29  34
ENDBRANCH  24  26
ENDBRANCH   6  22
BRANCH   4  36
ATOM     36  N   UNL     1      10.499   1.312   2.847  0.00  0.00    +0.056 N 
ATOM     37  O   UNL     1      10.799   2.093   1.974  0.00  0.00    -0.126 OA
ATOM     38  O   UNL     1      11.340   0.916   3.620  0.00  0.00    -0.126 OA
ENDBRANCH   4  36
TORSDOF 9
