REMARK  Name = ZINC38570471
REMARK  8 active torsions:
REMARK  status: ('A' for Active; 'I' for Inactive)
REMARK    1  A    between atoms: C_1  and  C_2
REMARK    2  A    between atoms: C_2  and  C_3
REMARK    3  A    between atoms: C_3  and  C_4
REMARK    4  A    between atoms: C_4  and  N_5
REMARK    5  A    between atoms: C_6  and  O_32
REMARK    6  A    between atoms: C_8  and  C_15
REMARK    7  A    between atoms: C_22  and  O_27
REMARK    8  A    between atoms: O_27  and  C_28
REMARK                            x       y       z     vdW  Elec       q    Type
REMARK                         _______ _______ _______ _____ _____    ______ ____
ROOT
ATOM      1  C   UNL     1      -5.099  -0.947   1.137  0.00  0.00    +0.117 C 
ATOM      2  C   UNL     1      -6.568  -0.592   1.133  0.00  0.00    +0.038 A 
ATOM      3  H   UNL     1      -7.424  -1.847   2.558  0.00  0.00    +0.166 HD
ATOM      4  C   UNL     1      -7.094   0.359   0.328  0.00  0.00    -0.016 A 
ATOM      5  C   UNL     1      -8.512   0.415   0.601  0.00  0.00    +0.007 A 
ATOM      6  C   UNL     1      -9.550   1.194   0.080  0.00  0.00    +0.056 A 
ATOM      7  C   UNL     1     -10.819   0.970   0.594  0.00  0.00    +0.121 A 
ATOM      8  C   UNL     1     -11.053   0.017   1.577  0.00  0.00    +0.047 A 
ATOM      9  C   UNL     1     -10.039  -0.763   2.104  0.00  0.00    +0.030 A 
ATOM     10  C   UNL     1      -8.755  -0.557   1.607  0.00  0.00    +0.047 A 
ATOM     11  N   UNL     1      -7.555  -1.145   1.902  0.00  0.00    -0.356 N 
ATOM     12  C   UNL     1      -6.277   1.169  -0.647  0.00  0.00    +0.052 C 
ATOM     13  C   UNL     1      -4.797   1.011  -0.272  0.00  0.00    +0.086 C 
ATOM     14  N   UNL     1      -4.484  -0.414  -0.090  0.00  0.00    -0.307 NA
ATOM     15  H   UNL     1      -3.487  -0.572  -0.091  0.00  0.00    +0.123 HD
ENDROOT
BRANCH   1  18
ATOM     16  N   UNL     1      -2.787  -2.571   0.015  0.00  0.00    -0.286 N 
ATOM     17  C   UNL     1      -3.454  -2.821   1.294  0.00  0.00    +0.218 C 
ATOM     18  C   UNL     1      -4.938  -2.467   1.175  0.00  0.00    +0.145 C 
ATOM     19  C   UNL     1      -5.490  -3.066  -0.095  0.00  0.00    +0.228 C 
ATOM     20  O   UNL     1      -6.634  -3.466  -0.130  0.00  0.00    -0.275 OA
ATOM     21  N   UNL     1      -4.712  -3.154  -1.190  0.00  0.00    -0.267 N 
ATOM     22  C   UNL     1      -3.419  -2.793  -1.149  0.00  0.00    +0.141 C 
ATOM     23  S   UNL     1      -2.554  -2.619  -2.616  0.00  0.00    -0.018 S 
ATOM     24  H   UNL     1      -5.092  -3.480  -2.021  0.00  0.00    +0.157 HD
BRANCH  17  25
ATOM     25  O   UNL     1      -3.320  -4.202   1.638  0.00  0.00    -0.373 OA
ATOM     26  H   UNL     1      -2.404  -4.497   1.731  0.00  0.00    +0.212 HD
ENDBRANCH  17  25
BRANCH  16  27
ATOM     27  C   UNL     1      -1.413  -2.063   0.004  0.00  0.00    +0.109 C 
BRANCH  27  28
ATOM     28  C   UNL     1      -1.433  -0.534   0.013  0.00  0.00    +0.019 C 
BRANCH  28  30
ATOM     29  C   UNL     1      -0.019   1.526   0.010  0.00  0.00    +0.004 C 
ATOM     30  C   UNL     1       0.002  -0.004   0.002  0.00  0.00    -0.002 C 
ENDBRANCH  28  30
ENDBRANCH  27  28
ENDBRANCH  16  27
ENDBRANCH   1  18
BRANCH   7  31
ATOM     31  O   UNL     1     -11.863   1.702   0.121  0.00  0.00    -0.495 OA
ATOM     32  C   UNL     1     -13.150   1.433   0.681  0.00  0.00    +0.277 C 
ENDBRANCH   7  31
TORSDOF 6
