REMARK  Name = ZINC38799973
REMARK  7 active torsions:
REMARK  status: ('A' for Active; 'I' for Inactive)
REMARK    1  A    between atoms: C_1  and  C_2
REMARK    2  A    between atoms: C_5  and  N_9
REMARK    3  A    between atoms: C_7  and  C_8
REMARK    4  A    between atoms: C_10  and  C_12
REMARK    5  A    between atoms: N_24  and  N_28
REMARK    6  A    between atoms: C_25  and  N_27
REMARK    7  A    between atoms: C_29  and  C_30
REMARK                            x       y       z     vdW  Elec       q    Type
REMARK                         _______ _______ _______ _____ _____    ______ ____
ROOT
ATOM      1  C   UNL     1      -0.173  -6.406  -1.189  0.00  0.00    +0.132 C 
ATOM      2  C   UNL     1       1.084  -7.002  -0.594  0.00  0.00    +0.095 A 
ATOM      3  C   UNL     1       1.711  -7.778  -1.582  0.00  0.00    +0.162 A 
ATOM      4  N   UNL     1       2.845  -8.409  -1.299  0.00  0.00    -0.227 NA
ATOM      5  C   UNL     1       3.384  -8.306  -0.082  0.00  0.00    +0.091 A 
ATOM      6  C   UNL     1       4.584  -8.965   0.239  0.00  0.00    +0.030 A 
ATOM      7  C   UNL     1       5.111  -8.840   1.487  0.00  0.00    +0.002 A 
ATOM      8  C   UNL     1       4.478  -8.066   2.458  0.00  0.00    +0.002 A 
ATOM      9  C   UNL     1       3.314  -7.414   2.185  0.00  0.00    +0.030 A 
ATOM     10  C   UNL     1       2.741  -7.519   0.907  0.00  0.00    +0.090 A 
ATOM     11  N   UNL     1       1.599  -6.890   0.607  0.00  0.00    -0.246 NA
ATOM     12  N   UNL     1       0.999  -7.758  -2.772  0.00  0.00    -0.219 N 
ATOM     13  C   UNL     1      -0.203  -6.927  -2.635  0.00  0.00    +0.058 C 
ENDROOT
BRANCH   1  15
ATOM     14  N   UNL     1      -0.029  -4.241  -0.001  0.00  0.00    -0.285 N 
ATOM     15  C   UNL     1      -0.100  -4.901  -1.174  0.00  0.00    +0.226 C 
ATOM     16  O   UNL     1      -0.104  -4.283  -2.217  0.00  0.00    -0.275 OA
ATOM     17  H   UNL     1       0.049  -4.736   0.830  0.00  0.00    +0.155 HD
BRANCH  14  22
ATOM     18  C   UNL     1      -0.193   1.429   0.081  0.00  0.00    +0.044 C 
ATOM     19  C   UNL     1      -0.149  -0.077   0.059  0.00  0.00    -0.047 A 
ATOM     20  C   UNL     1      -0.862  -0.774  -0.899  0.00  0.00    +0.005 A 
ATOM     21  C   UNL     1      -0.824  -2.155  -0.922  0.00  0.00    +0.023 A 
ATOM     22  C   UNL     1      -0.069  -2.843   0.019  0.00  0.00    +0.034 A 
ATOM     23  C   UNL     1       0.645  -2.140   0.980  0.00  0.00    +0.027 A 
ATOM     24  C   UNL     1       0.607  -0.759   0.995  0.00  0.00    -0.046 A 
ATOM     25  C   UNL     1       1.387   0.005   2.034  0.00  0.00    +0.044 C 
ENDBRANCH  14  22
ENDBRANCH   1  15
BRANCH  13  26
ATOM     26  N   UNL     1      -1.410  -7.734  -2.859  0.00  0.00    +0.392 N 
ATOM     27  H   UNL     1      -2.226  -7.195  -2.610  0.00  0.00    -0.087 HD
ATOM     28  H   UNL     1      -1.464  -7.995  -3.833  0.00  0.00    -0.087 HD
ATOM     29  H   UNL     1      -1.369  -8.566  -2.290  0.00  0.00    -0.087 HD
ENDBRANCH  13  26
BRANCH  12  30
ATOM     30  N   UNL     1       1.343  -8.382  -3.847  0.00  0.00    -0.188 NA
ATOM     31  C   UNL     1       0.659  -8.209  -4.954  0.00  0.00    +0.136 C 
BRANCH  31  32
ATOM     32  C   UNL     1       0.957  -8.973  -6.086  0.00  0.00    +0.000 C 
ATOM     33  C   UNL     1       0.335  -8.910  -7.334  0.00  0.00    +0.004 A 
ATOM     34  C   UNL     1      -0.720  -8.117  -7.835  0.00  0.00    +0.010 A 
ATOM     35  C   UNL     1      -1.128  -8.274  -9.120  0.00  0.00    +0.001 A 
ATOM     36  C   UNL     1      -0.529  -9.206  -9.970  0.00  0.00    +0.002 A 
ATOM     37  C   UNL     1       0.488 -10.001  -9.556  0.00  0.00    +0.026 A 
ATOM     38  C   UNL     1       0.970  -9.894  -8.225  0.00  0.00    +0.043 A 
ATOM     39  N   UNL     1       1.929 -10.539  -7.591  0.00  0.00    -0.380 N 
ATOM     40  C   UNL     1       2.024 -10.037  -6.217  0.00  0.00    +0.150 C 
ATOM     41  H   UNL     1       2.487 -11.234  -7.975  0.00  0.00    +0.160 HD
ENDBRANCH  31  32
ENDBRANCH  12  30
TORSDOF 5
