REMARK  Name = ZINC28295693
REMARK  16 active torsions:
REMARK  status: ('A' for Active; 'I' for Inactive)
REMARK    1  A    between atoms: C_1  and  C_2
REMARK    2  A    between atoms: C_5  and  S_8
REMARK    3  A    between atoms: S_8  and  N_11
REMARK    4  A    between atoms: N_11  and  C_12
REMARK    5  A    between atoms: C_12  and  C_13
REMARK    6  A    between atoms: N_15  and  N_16
REMARK    7  A    between atoms: C_17  and  C_18
REMARK    8  A    between atoms: N_20  and  C_27
REMARK    9  A    between atoms: C_27  and  C_28
REMARK   10  A    between atoms: C_28  and  C_30
REMARK   11  A    between atoms: C_28  and  O_36
REMARK   12  A    between atoms: C_30  and  N_31
REMARK   13  A    between atoms: N_31  and  C_32
REMARK   14  A    between atoms: C_32  and  C_33
REMARK   15  A    between atoms: C_33  and  C_34
REMARK   16  A    between atoms: C_34  and  O_35
REMARK                            x       y       z     vdW  Elec       q    Type
REMARK                         _______ _______ _______ _____ _____    ______ ____
ROOT
ATOM      1  C   UNL     1       2.147   0.596  -0.015  0.00  0.00    +0.020 A 
ATOM      2  C   UNL     1       1.287  -0.459  -0.013  0.00  0.00    +0.096 A 
ATOM      3  N   UNL     1       0.002  -0.004   0.002  0.00  0.00    -0.344 N 
ATOM      4  C   UNL     1      -0.017   1.375   0.010  0.00  0.00    +0.050 A 
ATOM      5  C   UNL     1       1.318   1.814  -0.001  0.00  0.00    +0.008 A 
ATOM      6  C   UNL     1       1.603   3.178   0.004  0.00  0.00    +0.010 A 
ATOM      7  C   UNL     1       0.572   4.090   0.019  0.00  0.00    +0.001 A 
ATOM      8  C   UNL     1      -0.746   3.658   0.030  0.00  0.00    +0.002 A 
ATOM      9  C   UNL     1      -1.044   2.312   0.029  0.00  0.00    +0.026 A 
ENDROOT
BRANCH   1  11
ATOM     10  N   UNL     1       4.314   1.628  -0.031  0.00  0.00    -0.188 NA
ATOM     11  C   UNL     1       3.617   0.532  -0.030  0.00  0.00    +0.140 C 
BRANCH  10  14
ATOM     12  C   UNL     1       6.438   2.704  -0.046  0.00  0.00    +0.248 C 
ATOM     13  O   UNL     1       5.878   3.780  -0.035  0.00  0.00    -0.273 OA
ATOM     14  N   UNL     1       5.714   1.567  -0.045  0.00  0.00    -0.206 N 
ATOM     15  H   UNL     1       6.222   0.591  -0.054  0.00  0.00    +0.177 HD
BRANCH  12  16
ATOM     16  C   UNL     1       7.944   2.638  -0.061  0.00  0.00    +0.203 C 
BRANCH  16  17
ATOM     17  N   UNL     1       8.491   3.997  -0.059  0.00  0.00    -0.181 NA
ATOM     18  H   UNL     1       7.892   4.832  -0.452  0.00  0.00    +0.149 HD
BRANCH  17  19
ATOM     19  S   UNL     1      10.089   4.245   0.298  0.00  0.00    +0.059 S 
ATOM     20  O   UNL     1      10.317   5.644   0.191  0.00  0.00    -0.153 OA
ATOM     21  O   UNL     1      10.357   3.519   1.490  0.00  0.00    -0.153 OA
BRANCH  19  26
ATOM     22  C   UNL     1      13.322   1.634  -4.077  0.00  0.00    +0.044 C 
ATOM     23  C   UNL     1      12.515   2.287  -2.984  0.00  0.00    -0.050 A 
ATOM     24  C   UNL     1      12.125   3.607  -3.107  0.00  0.00    +0.005 A 
ATOM     25  C   UNL     1      11.384   4.205  -2.105  0.00  0.00    +0.029 A 
ATOM     26  C   UNL     1      11.033   3.483  -0.980  0.00  0.00    +0.105 A 
ATOM     27  C   UNL     1      11.427   2.164  -0.854  0.00  0.00    +0.029 A 
ATOM     28  C   UNL     1      12.164   1.564  -1.859  0.00  0.00    +0.005 A 
ENDBRANCH  19  26
ENDBRANCH  17  19
ENDBRANCH  16  17
ENDBRANCH  12  16
ENDBRANCH  10  14
ENDBRANCH   1  11
BRANCH   3  29
ATOM     29  C   UNL     1      -1.188  -0.858   0.009  0.00  0.00    +0.151 C 
BRANCH  29  30
ATOM     30  C   UNL     1      -1.690  -1.045  -1.424  0.00  0.00    +0.117 C 
BRANCH  30  31
ATOM     31  O   UNL     1      -0.714  -1.764  -2.180  0.00  0.00    -0.392 OA
ATOM     32  H   UNL     1      -0.900  -1.995  -3.240  0.00  0.00    +0.210 HD
ENDBRANCH  30  31
BRANCH  30  33
ATOM     33  C   UNL     1      -3.002  -1.832  -1.406  0.00  0.00    -0.049 C 
BRANCH  33  34
ATOM     34  N   UNL     1      -3.484  -2.012  -2.782  0.00  0.00    +0.381 N 
ATOM     35  H   UNL     1      -3.653  -1.027  -3.243  0.00  0.00    -0.086 HD
ATOM     36  H   UNL     1      -2.733  -2.565  -3.364  0.00  0.00    -0.086 HD
BRANCH  34  37
ATOM     37  C   UNL     1      -4.745  -2.765  -2.804  0.00  0.00    -0.080 C 
BRANCH  37  38
ATOM     38  C   UNL     1      -5.215  -2.932  -4.250  0.00  0.00    +0.009 C 
BRANCH  38  39
ATOM     39  C   UNL     1      -6.528  -3.716  -4.273  0.00  0.00    +0.154 C 
BRANCH  39  40
ATOM     40  O   UNL     1      -6.967  -3.872  -5.624  0.00  0.00    -0.395 OA
ATOM     41  H   UNL     1      -7.899  -4.413  -5.841  0.00  0.00    +0.209 HD
ENDBRANCH  39  40
ENDBRANCH  38  39
ENDBRANCH  37  38
ENDBRANCH  34  37
ENDBRANCH  33  34
ENDBRANCH  30  33
ENDBRANCH  29  30
ENDBRANCH   3  29
TORSDOF 15
