REMARK  Name = ZINC02129404
REMARK  6 active torsions:
REMARK  status: ('A' for Active; 'I' for Inactive)
REMARK    1  A    between atoms: C_1  and  N_52
REMARK    2  A    between atoms: C_8  and  O_29
REMARK    3  A    between atoms: C_10  and  C_12
REMARK    4  A    between atoms: N_19  and  C_22
REMARK    5  A    between atoms: C_20  and  O_21
REMARK    6  A    between atoms: O_29  and  C_30
REMARK                            x       y       z     vdW  Elec       q    Type
REMARK                         _______ _______ _______ _____ _____    ______ ____
ROOT
ATOM      1  C   UNL     1       2.447  -4.107  -0.145  0.00  0.00    +0.068 A 
ATOM      2  C   UNL     1       1.230  -4.804  -0.030  0.00  0.00    +0.258 A 
ATOM      3  O   UNL     1       1.218  -6.023  -0.032  0.00  0.00    -0.267 OA
ATOM      4  N   UNL     1       0.078  -4.114   0.082  0.00  0.00    -0.302 N 
ATOM      5  H   UNL     1      -0.763  -4.591   0.161  0.00  0.00    +0.171 HD
ATOM      6  C   UNL     1       0.085  -2.769   0.090  0.00  0.00    +0.168 A 
ATOM      7  S   UNL     1      -1.393  -1.918   0.242  0.00  0.00    -0.012 S 
ATOM      8  N   UNL     1       1.236  -2.081  -0.024  0.00  0.00    -0.260 N 
ATOM      9  C   UNL     1       2.433  -2.744  -0.140  0.00  0.00    +0.206 A 
ENDROOT
BRANCH   1  19
ATOM     10  C   UNL     1       3.972  -5.050   2.129  0.00  0.00    -0.095 C 
ATOM     11  C   UNL     1       5.059  -6.649   0.668  0.00  0.00    -0.073 C 
ATOM     12  C   UNL     1       4.752  -7.641  -0.453  0.00  0.00    +0.017 C 
ATOM     13  C   UNL     1       4.231  -6.906  -1.662  0.00  0.00    -0.040 A 
ATOM     14  C   UNL     1       4.230  -7.563  -2.884  0.00  0.00    +0.053 A 
ATOM     15  C   UNL     1       3.759  -6.933  -4.021  0.00  0.00    +0.170 A 
ATOM     16  C   UNL     1       3.282  -5.628  -3.938  0.00  0.00    +0.208 A 
ATOM     17  C   UNL     1       3.285  -4.973  -2.715  0.00  0.00    +0.167 A 
ATOM     18  C   UNL     1       3.761  -5.613  -1.575  0.00  0.00    -0.008 A 
ATOM     19  C   UNL     1       3.748  -4.858  -0.272  0.00  0.00    +0.007 C 
ATOM     20  O   UNL     1       2.877  -5.231  -5.181  0.00  0.00    -0.449 OA
ATOM     21  C   UNL     1       3.489  -6.157  -6.098  0.00  0.00    +0.467 C 
ATOM     22  O   UNL     1       3.654  -7.355  -5.315  0.00  0.00    -0.452 OA
ATOM     23  N   UNL     1       3.867  -5.797   0.856  0.00  0.00    +0.386 N 
ATOM     24  H   UNL     1       3.031  -6.393   0.886  0.00  0.00    -0.081 HD
BRANCH  17  25
ATOM     25  O   UNL     1       2.819  -3.698  -2.630  0.00  0.00    -0.491 OA
ATOM     26  C   UNL     1       3.767  -2.647  -2.829  0.00  0.00    +0.277 C 
ENDBRANCH  17  25
ENDBRANCH   1  19
BRANCH   8  27
ATOM     27  C   UNL     1       1.214  -0.681  -0.018  0.00  0.00    +0.052 A 
ATOM     28  C   UNL     1       1.083   0.018  -1.210  0.00  0.00    +0.027 A 
ATOM     29  C   UNL     1       1.062   1.399  -1.202  0.00  0.00    +0.017 A 
ATOM     30  C   UNL     1       1.171   2.086  -0.006  0.00  0.00    +0.018 A 
ATOM     31  C   UNL     1       1.302   1.393   1.184  0.00  0.00    +0.017 A 
ATOM     32  C   UNL     1       1.324   0.012   1.181  0.00  0.00    +0.027 A 
ATOM     33 BR   UNL     1       1.142   3.977   0.002  0.00  0.00    -0.050 Br
ENDBRANCH   8  27
BRANCH   9  34
ATOM     34  O   UNL     1       3.587  -2.052  -0.249  0.00  0.00    -0.493 OA
ATOM     35  H   UNL     1       3.482  -1.095  -0.157  0.00  0.00    +0.294 HD
ENDBRANCH   9  34
TORSDOF 4
