REMARK  Name = ZINC19740718
REMARK  11 active torsions:
REMARK  status: ('A' for Active; 'I' for Inactive)
REMARK    1  A    between atoms: C_1  and  C_2
REMARK    2  A    between atoms: C_2  and  C_4
REMARK    3  A    between atoms: C_2  and  N_13
REMARK    4  A    between atoms: C_4  and  C_5
REMARK    5  A    between atoms: C_5  and  C_6
REMARK    6  A    between atoms: C_9  and  O_12
REMARK    7  A    between atoms: N_13  and  C_14
REMARK    8  A    between atoms: C_14  and  C_15
REMARK    9  A    between atoms: C_17  and  C_25
REMARK   10  A    between atoms: C_19  and  N_21
REMARK   11  A    between atoms: C_22  and  C_24
REMARK                            x       y       z     vdW  Elec       q    Type
REMARK                         _______ _______ _______ _____ _____    ______ ____
ROOT
ATOM      1  C   UNL     1      -3.901   1.716  -0.018  0.00  0.00    -0.062 A 
ATOM      2  C   UNL     1      -3.888   3.095  -0.070  0.00  0.00    +0.015 A 
ATOM      3  C   UNL     1      -2.672   3.781  -0.077  0.00  0.00    +0.039 A 
ATOM      4  C   UNL     1      -1.474   3.068  -0.032  0.00  0.00    +0.036 A 
ATOM      5  C   UNL     1      -1.499   1.684   0.020  0.00  0.00    +0.034 A 
ATOM      6  C   UNL     1      -2.714   1.010   0.021  0.00  0.00    +0.025 A 
ENDROOT
BRANCH   3   7
ATOM      7  C   UNL     1      -2.655   5.259  -0.133  0.00  0.00    +0.247 C 
ATOM      8  O   UNL     1      -3.693   5.883  -0.032  0.00  0.00    -0.270 OA
ATOM      9  N   UNL     1      -1.488   5.913  -0.295  0.00  0.00    -0.298 N 
ATOM     10  C   UNL     1      -0.153   5.296  -0.300  0.00  0.00    +0.108 C 
ATOM     11  C   UNL     1       0.875   6.431  -0.491  0.00  0.00    +0.020 C 
ATOM     12  C   UNL     1       0.100   7.685  -0.009  0.00  0.00    +0.020 C 
ATOM     13  C   UNL     1      -1.337   7.367  -0.491  0.00  0.00    +0.108 C 
ENDBRANCH   3   7
BRANCH   5  14
ATOM     14  N   UNL     1      -0.299   0.964   0.066  0.00  0.00    -0.286 N 
ATOM     15  C   UNL     1      -0.266  -0.254   0.643  0.00  0.00    +0.214 C 
ATOM     16  O   UNL     1      -1.248  -0.683   1.210  0.00  0.00    -0.276 OA
ATOM     17  C   UNL     1       0.993  -1.081   0.584  0.00  0.00    +0.109 C 
ATOM     18  H   UNL     1       0.616   1.391  -0.370  0.00  0.00    +0.155 HD
ENDBRANCH   5  14
BRANCH   1  19
ATOM     19  C   UNL     1      -5.215   0.978  -0.011  0.00  0.00    -0.046 C 
BRANCH  19  20
ATOM     20  N   UNL     1      -5.620   0.686  -1.392  0.00  0.00    +0.383 N 
ATOM     21  H   UNL     1      -4.841   0.071  -1.866  0.00  0.00    -0.085 HD
ATOM     22  H   UNL     1      -5.721   1.635  -1.938  0.00  0.00    -0.085 HD
BRANCH  20  24
ATOM     23  C   UNL     1      -8.053   0.970  -1.368  0.00  0.00    -0.014 C 
ATOM     24  C   UNL     1      -6.900  -0.035  -1.424  0.00  0.00    -0.074 C 
BRANCH  24  25
ATOM     25  C   UNL     1      -6.995  -0.848  -2.717  0.00  0.00    -0.011 C 
BRANCH  25  26
ATOM     26  C   UNL     1      -5.918  -1.935  -2.715  0.00  0.00    +0.033 C 
BRANCH  26  27
ATOM     27  C   UNL     1      -6.012  -2.736  -3.988  0.00  0.00    -0.047 A 
ATOM     28  C   UNL     1      -6.813  -3.862  -4.038  0.00  0.00    +0.007 A 
ATOM     29  C   UNL     1      -6.905  -4.595  -5.206  0.00  0.00    +0.045 A 
ATOM     30  C   UNL     1      -6.183  -4.207  -6.325  0.00  0.00    +0.117 A 
ATOM     31  C   UNL     1      -5.375  -3.080  -6.271  0.00  0.00    +0.045 A 
ATOM     32  C   UNL     1      -5.291  -2.348  -5.103  0.00  0.00    +0.007 A 
BRANCH  30  33
ATOM     33  O   UNL     1      -6.268  -4.929  -7.473  0.00  0.00    -0.507 OA
ATOM     34  H   UNL     1      -5.695  -4.621  -8.361  0.00  0.00    +0.292 HD
ENDBRANCH  30  33
ENDBRANCH  26  27
ENDBRANCH  25  26
ENDBRANCH  24  25
ENDBRANCH  20  24
ENDBRANCH  19  20
ENDBRANCH   1  19
TORSDOF 9
