REMARK  Name = ZINC39926560
REMARK  6 active torsions:
REMARK  status: ('A' for Active; 'I' for Inactive)
REMARK    1  A    between atoms: C_4  and  N_7
REMARK    2  A    between atoms: C_8  and  S_24
REMARK    3  A    between atoms: S_24  and  C_25
REMARK    4  A    between atoms: C_25  and  C_26
REMARK    5  A    between atoms: N_28  and  N_29
REMARK    6  A    between atoms: C_30  and  C_31
REMARK                            x       y       z     vdW  Elec       q    Type
REMARK                         _______ _______ _______ _____ _____    ______ ____
ROOT
ATOM      1  N   UNL     1       3.622  -0.651  -0.037  0.00  0.00    -0.246 N 
ATOM      2  C   UNL     1       3.614  -2.102   0.060  0.00  0.00    +0.210 C 
ATOM      3  N   UNL     1       4.818  -2.684  -0.507  0.00  0.00    -0.277 NA
ATOM      4  C   UNL     1       6.067  -2.085  -0.121  0.00  0.00    +0.135 C 
ATOM      5  C   UNL     1       6.119  -0.556  -0.226  0.00  0.00    +0.130 C 
ATOM      6  C   UNL     1       4.747   0.054  -0.147  0.00  0.00    +0.231 C 
ATOM      7  O   UNL     1       4.660   1.263  -0.193  0.00  0.00    -0.274 OA
ATOM      8  C   UNL     1       6.959   0.038   0.886  0.00  0.00    -0.046 C 
ATOM      9  C   UNL     1       7.164  -0.708   1.964  0.00  0.00    -0.013 C 
ATOM     10  S   UNL     1       6.357  -2.281   1.685  0.00  0.00    -0.110 S 
ATOM     11  C   UNL     1       7.938  -0.325   3.194  0.00  0.00    +0.042 C 
ATOM     12  C   UNL     1       8.796   0.905   2.872  0.00  0.00    +0.005 C 
ATOM     13  C   UNL     1       7.916   1.944   2.169  0.00  0.00    +0.005 C 
ATOM     14  C   UNL     1       7.548   1.442   0.773  0.00  0.00    +0.032 C 
ATOM     15  H   UNL     1       4.837  -3.683  -0.368  0.00  0.00    +0.126 HD
ENDROOT
BRANCH   1  19
ATOM     16  C   UNL     1      -0.016   1.380   0.011  0.00  0.00    +0.000 A 
ATOM     17  C   UNL     1       0.376   0.640   1.112  0.00  0.00    +0.002 A 
ATOM     18  C   UNL     1       1.581  -0.034   1.099  0.00  0.00    +0.023 A 
ATOM     19  C   UNL     1       2.400   0.031  -0.021  0.00  0.00    +0.039 A 
ATOM     20  C   UNL     1       2.003   0.774  -1.125  0.00  0.00    +0.023 A 
ATOM     21  C   UNL     1       0.796   1.447  -1.105  0.00  0.00    +0.002 A 
ENDBRANCH   1  19
BRANCH   2  22
ATOM     22  S   UNL     1       2.171  -2.748  -0.829  0.00  0.00    -0.113 S 
BRANCH  22  23
ATOM     23  C   UNL     1       2.412  -2.173  -2.533  0.00  0.00    +0.169 C 
BRANCH  23  24
ATOM     24  C   UNL     1       1.267  -2.648  -3.390  0.00  0.00    +0.242 C 
ATOM     25  O   UNL     1       0.376  -3.308  -2.899  0.00  0.00    -0.273 OA
ATOM     26  N   UNL     1       1.233  -2.338  -4.701  0.00  0.00    -0.206 N 
ATOM     27  H   UNL     1       1.945  -1.809  -5.093  0.00  0.00    +0.177 HD
BRANCH  26  28
ATOM     28  N   UNL     1       0.168  -2.779  -5.497  0.00  0.00    -0.188 NA
ATOM     29  C   UNL     1       0.135  -2.478  -6.771  0.00  0.00    +0.136 C 
BRANCH  29  30
ATOM     30  C   UNL     1      -0.931  -2.919  -7.569  0.00  0.00    +0.000 C 
ATOM     31  C   UNL     1      -1.114  -2.692  -8.931  0.00  0.00    +0.004 A 
ATOM     32  C   UNL     1      -0.349  -1.997  -9.893  0.00  0.00    +0.010 A 
ATOM     33  C   UNL     1      -0.780  -1.937 -11.179  0.00  0.00    +0.001 A 
ATOM     34  C   UNL     1      -1.970  -2.550 -11.582  0.00  0.00    +0.002 A 
ATOM     35  C   UNL     1      -2.753  -3.233 -10.714  0.00  0.00    +0.026 A 
ATOM     36  C   UNL     1      -2.369  -3.340  -9.351  0.00  0.00    +0.043 A 
ATOM     37  N   UNL     1      -2.944  -3.937  -8.328  0.00  0.00    -0.380 N 
ATOM     38  C   UNL     1      -2.119  -3.746  -7.130  0.00  0.00    +0.150 C 
ATOM     39  H   UNL     1      -3.780  -4.428  -8.362  0.00  0.00    +0.160 HD
ENDBRANCH  29  30
ENDBRANCH  26  28
ENDBRANCH  23  24
ENDBRANCH  22  23
ENDBRANCH   2  22
TORSDOF 6
