REMARK  Name = ZINC20375435
REMARK  6 active torsions:
REMARK  status: ('A' for Active; 'I' for Inactive)
REMARK    1  A    between atoms: C_1  and  O_2
REMARK    2  A    between atoms: O_2  and  C_3
REMARK    3  A    between atoms: C_6  and  C_21
REMARK    4  A    between atoms: C_8  and  C_9
REMARK    5  A    between atoms: C_9  and  S_10
REMARK    6  A    between atoms: S_10  and  C_11
REMARK                            x       y       z     vdW  Elec       q    Type
REMARK                         _______ _______ _______ _____ _____    ______ ____
ROOT
ATOM      1  C   UNL     1       5.580   7.890  -1.210  0.00  0.00    +0.124 A 
ATOM      2  C   UNL     1       6.466   8.958  -1.209  0.00  0.00    +0.046 A 
ATOM      3  C   UNL     1       6.918   9.479  -0.012  0.00  0.00    +0.009 A 
ATOM      4  C   UNL     1       6.483   8.940   1.185  0.00  0.00    -0.028 A 
ATOM      5  C   UNL     1       5.596   7.880   1.187  0.00  0.00    +0.013 A 
ATOM      6  C   UNL     1       5.141   7.355  -0.007  0.00  0.00    +0.005 A 
ENDROOT
BRANCH   4   7
ATOM      7  C   UNL     1       6.978   9.510   2.490  0.00  0.00    +0.106 C 
ATOM      8  C   UNL     1       6.192  10.769   2.804  0.00  0.00    +0.115 C 
ATOM      9  C   UNL     1       6.855  11.688   3.823  0.00  0.00    +0.103 C 
ATOM     10  C   UNL     1       8.359  11.683   3.848  0.00  0.00    +0.041 C 
ATOM     11  C   UNL     1       8.942  10.290   3.635  0.00  0.00    +0.083 C 
ATOM     12  N   UNL     1       8.414   9.756   2.383  0.00  0.00    -0.308 NA
ATOM     13  N   UNL     1       6.268  11.273   5.104  0.00  0.00    -0.374 N 
ATOM     14  C   UNL     1       5.211  10.573   4.867  0.00  0.00    +0.151 C 
ATOM     15  N   UNL     1       4.955  10.369   3.524  0.00  0.00    -0.330 N 
ATOM     16  H   UNL     1       8.931   8.814   2.153  0.00  0.00    +0.123 HD
ATOM     17  H   UNL     1       4.085  10.000   2.961  0.00  0.00    +0.147 HD
ATOM     18  H   UNL     1       6.581  11.462   6.141  0.00  0.00    +0.161 HD
ENDBRANCH   4   7
BRANCH   1  20
ATOM     19  C   UNL     1       5.633   7.973  -3.585  0.00  0.00    +0.277 C 
ATOM     20  O   UNL     1       5.139   7.372  -2.386  0.00  0.00    -0.495 OA
ENDBRANCH   1  20
BRANCH   6  21
ATOM     21  C   UNL     1       4.175   6.199  -0.004  0.00  0.00    +0.116 C 
BRANCH  21  22
ATOM     22  S   UNL     1       2.479   6.830   0.014  0.00  0.00    -0.083 S 
BRANCH  22  23
ATOM     23  C   UNL     1       1.587   5.311   0.015  0.00  0.00    +0.168 A 
ATOM     24  N   UNL     1       0.225   5.200   0.027  0.00  0.00    -0.333 N 
ATOM     25  H   UNL     1      -0.401   6.104   0.038  0.00  0.00    +0.168 HD
ATOM     26  C   UNL     1      -0.076   3.848   0.022  0.00  0.00    +0.067 A 
ATOM     27  C   UNL     1      -1.261   3.127   0.030  0.00  0.00    +0.028 A 
ATOM     28  C   UNL     1      -1.226   1.748   0.017  0.00  0.00    +0.002 A 
ATOM     29  C   UNL     1      -0.013   1.076   0.008  0.00  0.00    +0.002 A 
ATOM     30  C   UNL     1       1.173   1.775   0.000  0.00  0.00    +0.030 A 
ATOM     31  C   UNL     1       1.155   3.172   0.008  0.00  0.00    +0.090 A 
ATOM     32  N   UNL     1       2.130   4.118   0.004  0.00  0.00    -0.222 NA
ENDBRANCH  22  23
ENDBRANCH  21  22
ENDBRANCH   6  21
TORSDOF 5
