REMARK  Name = ZINC39685743
REMARK  14 active torsions:
REMARK  status: ('A' for Active; 'I' for Inactive)
REMARK    1  A    between atoms: C_1  and  C_2
REMARK    2  A    between atoms: C_2  and  O_3
REMARK    3  A    between atoms: O_3  and  C_4
REMARK    4  A    between atoms: C_7  and  C_10
REMARK    5  A    between atoms: C_14  and  C_23
REMARK    6  A    between atoms: N_25  and  C_26
REMARK    7  A    between atoms: C_26  and  C_28
REMARK    8  A    between atoms: C_26  and  C_31
REMARK    9  A    between atoms: C_28  and  C_29
REMARK   10  A    between atoms: C_28  and  C_30
REMARK   11  A    between atoms: N_33  and  C_34
REMARK   12  A    between atoms: C_34  and  C_35
REMARK   13  A    between atoms: C_34  and  C_36
REMARK   14  A    between atoms: C_34  and  C_37
REMARK                            x       y       z     vdW  Elec       q    Type
REMARK                         _______ _______ _______ _____ _____    ______ ____
ROOT
ATOM      1  C   UNL     1      -2.231  -5.458   0.202  0.00  0.00    +0.247 C 
ATOM      2  O   UNL     1      -1.143  -5.996   0.141  0.00  0.00    -0.270 OA
ATOM      3  N   UNL     1      -3.353  -6.205   0.231  0.00  0.00    -0.296 N 
ATOM      4  C   UNL     1      -4.758  -5.738   0.173  0.00  0.00    +0.121 C 
ATOM      5  C   UNL     1      -5.477  -6.773  -0.720  0.00  0.00    +0.100 C 
ATOM      6  C   UNL     1      -4.621  -8.046  -0.614  0.00  0.00    -0.004 C 
ATOM      7  C   UNL     1      -3.459  -7.681   0.321  0.00  0.00    +0.115 C 
ATOM      8  C   UNL     1      -4.083  -8.438  -1.986  0.00  0.00    -0.010 C 
ATOM      9  C   UNL     1      -3.283  -9.737  -1.864  0.00  0.00    -0.082 C 
ATOM     10  N   UNL     1      -4.148 -10.798  -1.334  0.00  0.00    +0.379 N 
ATOM     11  C   UNL     1      -4.586 -10.456   0.025  0.00  0.00    -0.082 C 
ATOM     12  C   UNL     1      -5.441  -9.186  -0.018  0.00  0.00    -0.010 C 
ATOM     13  H   UNL     1      -4.955 -10.902  -1.930  0.00  0.00    -0.086 HD
ATOM     14  H   UNL     1      -3.636 -11.668  -1.311  0.00  0.00    -0.086 HD
ENDROOT
BRANCH   1  18
ATOM     15  C   UNL     1      -2.499  -1.221   0.327  0.00  0.00    +0.121 A 
ATOM     16  C   UNL     1      -3.555  -1.997   0.793  0.00  0.00    +0.046 A 
ATOM     17  C   UNL     1      -3.471  -3.371   0.754  0.00  0.00    +0.016 A 
ATOM     18  C   UNL     1      -2.325  -3.985   0.245  0.00  0.00    +0.037 A 
ATOM     19  C   UNL     1      -1.266  -3.202  -0.224  0.00  0.00    +0.016 A 
ATOM     20  C   UNL     1      -1.359  -1.829  -0.186  0.00  0.00    +0.046 A 
BRANCH  15  21
ATOM     21  O   UNL     1      -2.585   0.133   0.366  0.00  0.00    -0.492 OA
BRANCH  21  23
ATOM     22  C   UNL     1      -3.698   2.218   0.868  0.00  0.00    +0.048 C 
ATOM     23  C   UNL     1      -3.785   0.691   0.906  0.00  0.00    +0.225 C 
ENDBRANCH  21  23
ENDBRANCH  15  21
ENDBRANCH   1  18
BRANCH   5  24
ATOM     24  C   UNL     1      -5.527  -6.289  -2.147  0.00  0.00    +0.219 C 
ATOM     25  O   UNL     1      -6.561  -6.364  -2.776  0.00  0.00    -0.275 OA
ATOM     26  N   UNL     1      -4.423  -5.774  -2.723  0.00  0.00    -0.303 N 
ATOM     27  H   UNL     1      -3.596  -5.715  -2.220  0.00  0.00    +0.149 HD
BRANCH  26  28
ATOM     28  C   UNL     1      -4.472  -5.305  -4.110  0.00  0.00    +0.161 C 
BRANCH  28  29
ATOM     29  C   UNL     1      -3.090  -5.361  -4.708  0.00  0.00    +0.234 C 
ATOM     30  O   UNL     1      -2.156  -5.755  -4.042  0.00  0.00    -0.274 OA
ATOM     31  N   UNL     1      -2.891  -4.974  -5.984  0.00  0.00    -0.309 N 
ATOM     32  H   UNL     1      -3.638  -4.659  -6.517  0.00  0.00    +0.149 HD
BRANCH  31  33
ATOM     33  C   UNL     1      -1.548  -5.029  -6.566  0.00  0.00    +0.026 C 
ATOM     34  C   UNL     1      -1.037  -6.471  -6.533  0.00  0.00    +0.031 C 
ATOM     35  C   UNL     1      -1.599  -4.538  -8.014  0.00  0.00    +0.031 C 
ATOM     36  C   UNL     1      -0.605  -4.135  -5.757  0.00  0.00    +0.031 C 
ENDBRANCH  31  33
ENDBRANCH  28  29
BRANCH  28  37
ATOM     37  C   UNL     1      -4.983  -3.863  -4.142  0.00  0.00    +0.012 C 
ATOM     38  C   UNL     1      -6.386  -3.805  -3.535  0.00  0.00    +0.009 C 
ATOM     39  C   UNL     1      -4.040  -2.969  -3.334  0.00  0.00    +0.009 C 
ENDBRANCH  28  37
ENDBRANCH  26  28
ENDBRANCH   5  24
TORSDOF 8
