REMARK  Name = ZINC34755998
REMARK  7 active torsions:
REMARK  status: ('A' for Active; 'I' for Inactive)
REMARK    1  A    between atoms: C_1  and  C_2
REMARK    2  A    between atoms: C_2  and  C_3
REMARK    3  A    between atoms: C_3  and  S_4
REMARK    4  A    between atoms: S_4  and  C_5
REMARK    5  A    between atoms: N_21  and  C_24
REMARK    6  A    between atoms: C_24  and  C_25
REMARK    7  A    between atoms: N_27  and  C_28
REMARK                            x       y       z     vdW  Elec       q    Type
REMARK                         _______ _______ _______ _____ _____    ______ ____
ROOT
ATOM      1  C   UNL     1       3.142  -2.427  -3.286  0.00  0.00    +0.191 A 
ATOM      2  N   UNL     1       3.279  -3.717  -3.571  0.00  0.00    -0.206 NA
ATOM      3  C   UNL     1       2.378  -4.380  -4.276  0.00  0.00    +0.134 A 
ATOM      4  C   UNL     1       1.222  -3.697  -4.746  0.00  0.00    +0.051 A 
ATOM      5  C   UNL     1       0.107  -4.223  -5.537  0.00  0.00    -0.025 A 
ATOM      6  C   UNL     1      -0.877  -3.359  -5.857  0.00  0.00    -0.004 A 
ATOM      7  S   UNL     1      -0.389  -1.815  -5.136  0.00  0.00    -0.073 S 
ATOM      8  C   UNL     1       1.142  -2.333  -4.405  0.00  0.00    +0.115 A 
ATOM      9  N   UNL     1       2.082  -1.742  -3.693  0.00  0.00    -0.215 NA
ATOM     10  C   UNL     1      -2.115  -3.647  -6.651  0.00  0.00    +0.043 C 
ATOM     11  C   UNL     1      -1.927  -4.989  -7.373  0.00  0.00    +0.005 C 
ATOM     12  C   UNL     1      -1.400  -6.017  -6.367  0.00  0.00    +0.005 C 
ATOM     13  C   UNL     1       0.043  -5.680  -5.989  0.00  0.00    +0.037 C 
ATOM     14  N   UNL     1       2.558  -5.723  -4.553  0.00  0.00    -0.318 N 
ATOM     15  C   UNL     1       3.169  -6.159  -5.819  0.00  0.00    +0.088 C 
ATOM     16  C   UNL     1       4.294  -7.149  -5.499  0.00  0.00    -0.059 C 
ATOM     17  N   UNL     1       3.764  -8.242  -4.674  0.00  0.00    +0.387 N 
ATOM     18  C   UNL     1       3.319  -7.718  -3.376  0.00  0.00    -0.059 C 
ATOM     19  C   UNL     1       2.151  -6.756  -3.588  0.00  0.00    +0.088 C 
ATOM     20  H   UNL     1       2.983  -8.671  -5.147  0.00  0.00    -0.081 HD
ENDROOT
BRANCH   1  21
ATOM     21  S   UNL     1       4.387  -1.613  -2.341  0.00  0.00    -0.086 S 
BRANCH  21  22
ATOM     22  C   UNL     1       3.783   0.091  -2.196  0.00  0.00    +0.077 C 
BRANCH  22  24
ATOM     23  C   UNL     1       4.274   2.357  -1.264  0.00  0.00    +0.004 C 
ATOM     24  C   UNL     1       4.784   0.919  -1.387  0.00  0.00    +0.008 C 
ENDBRANCH  22  24
ENDBRANCH  21  22
ENDBRANCH   1  21
BRANCH  17  25
ATOM     25  C   UNL     1       4.815  -9.246  -4.460  0.00  0.00    +0.019 C 
BRANCH  25  26
ATOM     26  C   UNL     1       4.240 -10.425  -3.718  0.00  0.00    +0.201 C 
ATOM     27  O   UNL     1       3.070 -10.428  -3.399  0.00  0.00    -0.278 OA
ATOM     28  N   UNL     1       5.026 -11.475  -3.410  0.00  0.00    -0.287 N 
ATOM     29  H   UNL     1       5.978 -11.439  -3.591  0.00  0.00    +0.155 HD
BRANCH  28  30
ATOM     30  C   UNL     1       4.470 -12.616  -2.828  0.00  0.00    +0.041 A 
ATOM     31  C   UNL     1       3.197 -13.020  -3.169  0.00  0.00    +0.024 A 
ATOM     32  C   UNL     1       2.633 -14.156  -2.595  0.00  0.00    +0.002 A 
ATOM     33  C   UNL     1       3.321 -14.898  -1.683  0.00  0.00    +0.008 A 
ATOM     34  C   UNL     1       4.622 -14.520  -1.309  0.00  0.00    -0.016 A 
ATOM     35  C   UNL     1       5.208 -13.369  -1.890  0.00  0.00    +0.003 A 
ATOM     36  C   UNL     1       6.509 -12.995  -1.518  0.00  0.00    +0.010 A 
ATOM     37  C   UNL     1       7.192 -13.745  -0.610  0.00  0.00    +0.001 A 
ATOM     38  C   UNL     1       6.618 -14.881  -0.042  0.00  0.00    +0.001 A 
ATOM     39  C   UNL     1       5.355 -15.267  -0.370  0.00  0.00    +0.008 A 
ENDBRANCH  28  30
ENDBRANCH  25  26
ENDBRANCH  17  25
TORSDOF 6
