REMARK  Name = ZINC58866810
REMARK  9 active torsions:
REMARK  status: ('A' for Active; 'I' for Inactive)
REMARK    1  A    between atoms: C_6  and  N_7
REMARK    2  A    between atoms: C_8  and  C_10
REMARK    3  A    between atoms: C_10  and  N_11
REMARK    4  A    between atoms: N_11  and  C_12
REMARK    5  A    between atoms: C_12  and  C_13
REMARK    6  A    between atoms: C_13  and  N_14
REMARK    7  A    between atoms: N_14  and  C_15
REMARK    8  A    between atoms: C_18  and  C_24
REMARK    9  A    between atoms: C_20  and  N_21
REMARK                            x       y       z     vdW  Elec       q    Type
REMARK                         _______ _______ _______ _____ _____    ______ ____
ROOT
ATOM      1  C   UNL     1      -3.434  -4.999  -0.629  0.00  0.00    -0.063 C 
ENDROOT
BRANCH   1   2
ATOM      2  N   UNL     1      -2.168  -4.257  -0.567  0.00  0.00    +0.386 N 
ATOM      3  H   UNL     1      -1.615  -4.464  -1.386  0.00  0.00    -0.085 HD
ATOM      4  H   UNL     1      -1.658  -4.529   0.260  0.00  0.00    -0.085 HD
BRANCH   2   5
ATOM      5  C   UNL     1      -2.447  -2.815  -0.517  0.00  0.00    +0.015 C 
BRANCH   5   7
ATOM      6  N   UNL     1      -1.157  -0.707  -0.400  0.00  0.00    -0.287 N 
ATOM      7  C   UNL     1      -1.147  -2.054  -0.453  0.00  0.00    +0.200 C 
ATOM      8  O   UNL     1      -0.093  -2.653  -0.449  0.00  0.00    -0.278 OA
ATOM      9  H   UNL     1      -1.999  -0.231  -0.327  0.00  0.00    +0.155 HD
BRANCH   6  15
ATOM     10  C   UNL     1       1.110  -0.481  -1.201  0.00  0.00    +0.026 A 
ATOM     11  C   UNL     1       2.298   0.223  -1.250  0.00  0.00    +0.040 A 
ATOM     12  C   UNL     1       2.429   1.411  -0.551  0.00  0.00    +0.124 A 
ATOM     13  C   UNL     1       1.370   1.896   0.199  0.00  0.00    +0.040 A 
ATOM     14  C   UNL     1       0.181   1.195   0.250  0.00  0.00    +0.026 A 
ATOM     15  C   UNL     1       0.048   0.004  -0.450  0.00  0.00    +0.033 A 
ATOM     16  F   UNL     1       3.591   2.098  -0.599  0.00  0.00    -0.205 F 
ENDBRANCH   6  15
ENDBRANCH   5   7
ENDBRANCH   2   5
ENDBRANCH   1   2
BRANCH   1  17
ATOM     17  C   UNL     1      -3.143  -6.500  -0.681  0.00  0.00    +0.082 C 
BRANCH  17  18
ATOM     18  N   UNL     1      -4.406  -7.240  -0.744  0.00  0.00    -0.344 N 
ATOM     19  H   UNL     1      -5.250  -6.761  -0.747  0.00  0.00    +0.146 HD
BRANCH  18  20
ATOM     20  C   UNL     1      -4.396  -8.635  -0.799  0.00  0.00    +0.058 A 
ATOM     21  C   UNL     1      -3.195  -9.327  -0.705  0.00  0.00    +0.026 A 
ATOM     22  C   UNL     1      -3.188 -10.707  -0.759  0.00  0.00    +0.014 A 
ATOM     23  C   UNL     1      -4.376 -11.400  -0.907  0.00  0.00    +0.057 A 
ATOM     24  C   UNL     1      -5.573 -10.715  -1.001  0.00  0.00    +0.047 A 
ATOM     25  C   UNL     1      -5.587  -9.335  -0.942  0.00  0.00    +0.147 A 
BRANCH  23  26
ATOM     26  C   UNL     1      -4.364 -12.906  -0.966  0.00  0.00    +0.417 C 
ATOM     27  F   UNL     1      -3.049 -13.368  -0.851  0.00  0.00    -0.166 F 
ATOM     28  F   UNL     1      -5.132 -13.419   0.085  0.00  0.00    -0.166 F 
ATOM     29  F   UNL     1      -4.902 -13.329  -2.186  0.00  0.00    -0.166 F 
ENDBRANCH  23  26
BRANCH  25  30
ATOM     30  N   UNL     1      -6.870  -8.603  -1.037  0.00  0.00    +0.058 N 
ATOM     31  O   UNL     1      -7.052  -7.613  -0.366  0.00  0.00    -0.126 OA
ATOM     32  O   UNL     1      -7.735  -8.994  -1.785  0.00  0.00    -0.126 OA
ENDBRANCH  25  30
ENDBRANCH  18  20
ENDBRANCH  17  18
ENDBRANCH   1  17
TORSDOF 9
