REMARK  Name = ZINC66894688
REMARK  7 active torsions:
REMARK  status: ('A' for Active; 'I' for Inactive)
REMARK    1  A    between atoms: C_1  and  C_2
REMARK    2  A    between atoms: C_2  and  C_4
REMARK    3  A    between atoms: C_2  and  N_10
REMARK    4  A    between atoms: C_14  and  C_17
REMARK    5  A    between atoms: C_17  and  C_18
REMARK    6  A    between atoms: C_23  and  O_24
REMARK    7  A    between atoms: O_24  and  C_25
REMARK                            x       y       z     vdW  Elec       q    Type
REMARK                         _______ _______ _______ _____ _____    ______ ____
ROOT
ATOM      1  N   UNL     1       0.815  -0.909  -0.821  0.00  0.00    +0.387 N 
ATOM      2  C   UNL     1       0.662  -2.284  -0.331  0.00  0.00    -0.078 C 
ATOM      3  C   UNL     1       1.442  -3.242  -1.234  0.00  0.00    -0.018 C 
ATOM      4  C   UNL     1       2.924  -2.855  -1.220  0.00  0.00    +0.000 C 
ATOM      5  C   UNL     1       3.064  -1.395  -1.662  0.00  0.00    -0.023 C 
ATOM      6  C   UNL     1       2.224  -0.506  -0.743  0.00  0.00    -0.074 C 
ATOM      7  H   UNL     1       0.505  -0.860  -1.780  0.00  0.00    -0.081 HD
ENDROOT
BRANCH   1   9
ATOM      8  C   UNL     1       0.145   1.427  -0.520  0.00  0.00    -0.004 C 
ATOM      9  C   UNL     1       0.002  -0.004   0.002  0.00  0.00    +0.017 C 
BRANCH   9  10
ATOM     10  C   UNL     1      -1.444  -0.422  -0.069  0.00  0.00    +0.207 C 
ATOM     11  O   UNL     1      -1.865  -0.982  -1.059  0.00  0.00    -0.277 OA
ATOM     12  N   UNL     1      -2.269  -0.175   0.967  0.00  0.00    -0.242 N 
ATOM     13  C   UNL     1      -3.562  -0.549   0.903  0.00  0.00    +0.303 C 
ATOM     14  O   UNL     1      -3.984  -1.110  -0.089  0.00  0.00    -0.253 OA
ATOM     15  N   UNL     1      -4.387  -0.302   1.940  0.00  0.00    -0.313 N 
ATOM     16  H   UNL     1      -1.932   0.273   1.759  0.00  0.00    +0.159 HD
ATOM     17  H   UNL     1      -4.050   0.146   2.732  0.00  0.00    +0.146 HD
ATOM     18  H   UNL     1      -5.318  -0.571   1.894  0.00  0.00    +0.146 HD
ENDBRANCH   9  10
ENDBRANCH   1   9
BRANCH   5  19
ATOM     19  C   UNL     1       4.533  -0.975  -1.578  0.00  0.00    +0.040 C 
BRANCH  19  20
ATOM     20  C   UNL     1       5.341  -1.772  -2.570  0.00  0.00    -0.006 A 
ATOM     21  C   UNL     1       5.985  -2.926  -2.169  0.00  0.00    +0.007 A 
ATOM     22  C   UNL     1       6.727  -3.657  -3.078  0.00  0.00    +0.000 A 
ATOM     23  C   UNL     1       6.826  -3.235  -4.391  0.00  0.00    +0.004 A 
ATOM     24  C   UNL     1       6.184  -2.082  -4.797  0.00  0.00    +0.046 A 
ATOM     25  C   UNL     1       5.434  -1.349  -3.888  0.00  0.00    +0.123 A 
BRANCH  25  26
ATOM     26  O   UNL     1       4.797  -0.217  -4.286  0.00  0.00    -0.495 OA
ATOM     27  C   UNL     1       4.937   0.158  -5.658  0.00  0.00    +0.277 C 
ENDBRANCH  25  26
ENDBRANCH  19  20
ENDBRANCH   5  19
TORSDOF 5
