REMARK  Name = ZINC66456926
REMARK  2 active torsions:
REMARK  status: ('A' for Active; 'I' for Inactive)
REMARK    1  A    between atoms: C_6  and  N_7
REMARK    2  A    between atoms: C_10  and  C_12
REMARK                            x       y       z     vdW  Elec       q    Type
REMARK                         _______ _______ _______ _____ _____    ______ ____
ROOT
ATOM      1  N   UNL     1      -1.202  -0.722   0.010  0.00  0.00    -0.236 N 
ATOM      2  C   UNL     1      -1.408  -1.905  -0.629  0.00  0.00    +0.049 A 
ATOM      3  C   UNL     1      -2.684  -2.270  -0.381  0.00  0.00    +0.006 A 
ATOM      4  C   UNL     1      -3.225  -1.250   0.435  0.00  0.00    +0.151 A 
ATOM      5  N   UNL     1      -2.269  -0.362   0.627  0.00  0.00    -0.161 NA
ATOM      6  C   UNL     1      -3.000  -3.582  -1.060  0.00  0.00    +0.040 C 
ATOM      7  C   UNL     1      -1.883  -3.767  -2.110  0.00  0.00    +0.011 C 
ATOM      8  C   UNL     1      -0.730  -2.937  -1.502  0.00  0.00    +0.056 C 
ENDROOT
BRANCH   4   9
ATOM      9  C   UNL     1      -4.598  -1.193   0.974  0.00  0.00    +0.270 C 
ATOM     10  O   UNL     1      -5.387  -2.084   0.725  0.00  0.00    -0.268 OA
ATOM     11  N   UNL     1      -4.978  -0.153   1.743  0.00  0.00    -0.264 N 
ATOM     12  C   UNL     1      -6.281  -0.099   2.255  0.00  0.00    +0.147 A 
ATOM     13  C   UNL     1      -7.287  -1.057   2.052  0.00  0.00    +0.064 A 
ATOM     14  C   UNL     1      -8.394  -0.641   2.708  0.00  0.00    +0.107 A 
ATOM     15  N   UNL     1      -8.104   0.535   3.305  0.00  0.00    -0.283 N 
ATOM     16  H   UNL     1      -8.712   1.064   3.845  0.00  0.00    +0.188 HD
ATOM     17  N   UNL     1      -6.772   0.854   3.012  0.00  0.00    -0.159 NA
ATOM     18  H   UNL     1      -4.349   0.558   1.942  0.00  0.00    +0.157 HD
ENDBRANCH   4   9
BRANCH   1  24
ATOM     19  C   UNL     1      -0.017   1.384   0.010  0.00  0.00    +0.031 A 
ATOM     20  C   UNL     1       1.170   2.091   0.002  0.00  0.00    +0.043 A 
ATOM     21  C   UNL     1       2.379   1.417  -0.013  0.00  0.00    +0.159 A 
ATOM     22  C   UNL     1       2.401   0.030  -0.021  0.00  0.00    +0.160 A 
ATOM     23  C   UNL     1       1.215  -0.680  -0.014  0.00  0.00    +0.069 A 
ATOM     24  C   UNL     1       0.002  -0.004   0.002  0.00  0.00    +0.069 A 
ATOM     25  F   UNL     1       3.581  -0.627  -0.037  0.00  0.00    -0.202 F 
ATOM     26  F   UNL     1       3.538   2.110  -0.020  0.00  0.00    -0.202 F 
ENDBRANCH   1  24
TORSDOF 2
