REMARK  Name = ZINC59335876
REMARK  8 active torsions:
REMARK  status: ('A' for Active; 'I' for Inactive)
REMARK    1  A    between atoms: C_3  and  N_9
REMARK    2  A    between atoms: C_10  and  C_12
REMARK    3  A    between atoms: C_12  and  C_33
REMARK    4  A    between atoms: C_13  and  C_14
REMARK    5  A    between atoms: C_17  and  O_20
REMARK    6  A    between atoms: O_20  and  C_21
REMARK    7  A    between atoms: C_24  and  N_30
REMARK    8  A    between atoms: C_26  and  N_27
REMARK                            x       y       z     vdW  Elec       q    Type
REMARK                         _______ _______ _______ _____ _____    ______ ____
ROOT
ATOM      1  C   UNL     1       3.606   6.423  -0.179  0.00  0.00    -0.023 A 
ATOM      2  C   UNL     1       2.401   5.713  -0.066  0.00  0.00    +0.011 A 
ATOM      3  C   UNL     1       1.214   6.388  -0.049  0.00  0.00    +0.047 A 
ATOM      4  C   UNL     1       1.198   7.777  -0.143  0.00  0.00    +0.129 A 
ATOM      5  C   UNL     1       2.390   8.486  -0.256  0.00  0.00    +0.047 A 
ATOM      6  C   UNL     1       3.583   7.822  -0.268  0.00  0.00    +0.011 A 
ENDROOT
BRANCH   1   8
ATOM      7  C   UNL     1       5.042   4.605  -1.014  0.00  0.00    +0.114 C 
ATOM      8  C   UNL     1       4.882   5.705  -0.199  0.00  0.00    +0.032 C 
BRANCH   7  10
ATOM      9  N   UNL     1       4.104   3.133  -2.722  0.00  0.00    -0.280 N 
ATOM     10  C   UNL     1       4.018   4.280  -2.019  0.00  0.00    +0.259 C 
ATOM     11  O   UNL     1       3.093   5.046  -2.216  0.00  0.00    -0.269 OA
ATOM     12  H   UNL     1       4.795   2.486  -2.511  0.00  0.00    +0.155 HD
BRANCH   9  15
ATOM     13  C   UNL     1       1.665   3.671  -5.421  0.00  0.00    +0.003 A 
ATOM     14  C   UNL     1       2.561   3.928  -4.401  0.00  0.00    +0.025 A 
ATOM     15  C   UNL     1       3.196   2.876  -3.754  0.00  0.00    +0.054 A 
ATOM     16  C   UNL     1       2.928   1.566  -4.136  0.00  0.00    +0.080 A 
ATOM     17  C   UNL     1       2.030   1.316  -5.158  0.00  0.00    +0.061 A 
ATOM     18  C   UNL     1       1.400   2.368  -5.799  0.00  0.00    +0.021 A 
ATOM     19 CL   UNL     1       1.694  -0.319  -5.636  0.00  0.00    -0.082 Cl
ATOM     20 CL   UNL     1       3.720   0.247  -3.332  0.00  0.00    -0.080 Cl
ENDBRANCH   9  15
ENDBRANCH   7  10
BRANCH   7  21
ATOM     21  C   UNL     1       6.204   3.780  -0.883  0.00  0.00    +0.104 C 
ATOM     22  N   UNL     1       7.127   3.125  -0.780  0.00  0.00    -0.191 NA
ENDBRANCH   7  21
ENDBRANCH   1   8
BRANCH   4  23
ATOM     23  O   UNL     1       0.015   8.441  -0.125  0.00  0.00    -0.454 OA
BRANCH  23  24
ATOM     24  C   UNL     1      -0.454   8.940  -1.299  0.00  0.00    +0.159 A 
ATOM     25  C   UNL     1       0.214   8.670  -2.485  0.00  0.00    +0.051 A 
ATOM     26  C   UNL     1      -0.265   9.178  -3.677  0.00  0.00    +0.036 A 
ATOM     27  C   UNL     1      -1.409   9.954  -3.689  0.00  0.00    +0.129 A 
ATOM     28  C   UNL     1      -2.076  10.225  -2.509  0.00  0.00    +0.069 A 
ATOM     29  C   UNL     1      -1.605   9.714  -1.315  0.00  0.00    +0.170 A 
BRANCH  29  30
ATOM     30  N   UNL     1      -2.323   9.999  -0.052  0.00  0.00    +0.060 N 
ATOM     31  O   UNL     1      -3.326  10.674  -0.066  0.00  0.00    -0.126 OA
ATOM     32  O   UNL     1      -1.907   9.557   0.993  0.00  0.00    -0.126 OA
ENDBRANCH  29  30
BRANCH  27  33
ATOM     33  N   UNL     1      -1.920  10.498  -4.968  0.00  0.00    +0.057 N 
ATOM     34  O   UNL     1      -1.337  10.263  -6.000  0.00  0.00    -0.126 OA
ATOM     35  O   UNL     1      -2.920  11.178  -4.979  0.00  0.00    -0.126 OA
ENDBRANCH  27  33
ENDBRANCH  23  24
ENDBRANCH   4  23
TORSDOF 8
