REMARK  Name = ZINC08172813
REMARK  7 active torsions:
REMARK  status: ('A' for Active; 'I' for Inactive)
REMARK    1  A    between atoms: C_1  and  C_2
REMARK    2  A    between atoms: C_2  and  C_4
REMARK    3  A    between atoms: C_2  and  N_40
REMARK    4  A    between atoms: C_11  and  C_12
REMARK    5  A    between atoms: C_11  and  N_40
REMARK    6  A    between atoms: N_17  and  C_18
REMARK    7  A    between atoms: C_18  and  C_19
REMARK                            x       y       z     vdW  Elec       q    Type
REMARK                         _______ _______ _______ _____ _____    ______ ____
ROOT
ATOM      1  C   UNL     1      -0.742   1.585  -1.213  0.00  0.00    +0.203 C 
ATOM      2  O   UNL     1      -1.736   2.268  -1.089  0.00  0.00    -0.277 OA
ATOM      3  N   UNL     1      -0.288   1.272  -2.443  0.00  0.00    -0.242 N 
ATOM      4  C   UNL     1      -0.940   1.719  -3.535  0.00  0.00    +0.306 C 
ATOM      5  O   UNL     1      -1.937   2.403  -3.410  0.00  0.00    -0.252 OA
ATOM      6  N   UNL     1      -0.487   1.406  -4.765  0.00  0.00    -0.292 N 
ATOM      7  H   UNL     1       0.507   0.726  -2.543  0.00  0.00    +0.159 HD
ATOM      8  H   UNL     1       0.308   0.860  -4.865  0.00  0.00    +0.151 HD
ENDROOT
BRANCH   1   9
ATOM      9  C   UNL     1      -0.013   1.086   0.008  0.00  0.00    +0.016 C 
BRANCH   9  10
ATOM     10  N   UNL     1      -0.709   1.566   1.217  0.00  0.00    +0.389 N 
ATOM     11  H   UNL     1      -0.723   2.592   1.214  0.00  0.00    -0.084 HD
ATOM     12  H   UNL     1      -1.672   1.210   1.216  0.00  0.00    -0.084 HD
BRANCH  10  14
ATOM     13  C   UNL     1       1.120   2.054   2.778  0.00  0.00    -0.009 C 
ATOM     14  C   UNL     1      -0.016   1.091   2.429  0.00  0.00    -0.042 C 
BRANCH  14  15
ATOM     15  C   UNL     1      -0.998   1.038   3.571  0.00  0.00    -0.043 A 
ATOM     16  C   UNL     1      -2.171   1.768   3.509  0.00  0.00    +0.003 A 
ATOM     17  C   UNL     1      -3.071   1.720   4.557  0.00  0.00    +0.000 A 
ATOM     18  C   UNL     1      -2.800   0.942   5.667  0.00  0.00    +0.001 A 
ATOM     19  C   UNL     1      -1.628   0.212   5.730  0.00  0.00    +0.020 A 
ATOM     20  C   UNL     1      -0.729   0.256   4.680  0.00  0.00    +0.043 A 
ATOM     21 CL   UNL     1       0.740  -0.666   4.755  0.00  0.00    -0.083 Cl
ENDBRANCH  14  15
ENDBRANCH  10  14
ENDBRANCH   9  10
ENDBRANCH   1   9
BRANCH   6  22
ATOM     22  C   UNL     1      -1.196   1.891  -5.952  0.00  0.00    +0.180 C 
BRANCH  22  23
ATOM     23  C   UNL     1      -0.490   1.405  -7.192  0.00  0.00    +0.122 A 
ATOM     24  C   UNL     1      -0.740   0.252  -7.838  0.00  0.00    +0.046 A 
ATOM     25  C   UNL     1       0.146   0.200  -8.939  0.00  0.00    +0.041 A 
ATOM     26  C   UNL     1       0.884   1.323  -8.899  0.00  0.00    +0.195 A 
ATOM     27  O   UNL     1       0.490   2.053  -7.843  0.00  0.00    -0.466 OA
ENDBRANCH  22  23
ENDBRANCH   6  22
TORSDOF 6
