REMARK  Name = ZINC36743440
REMARK  7 active torsions:
REMARK  status: ('A' for Active; 'I' for Inactive)
REMARK    1  A    between atoms: C_1  and  N_2
REMARK    2  A    between atoms: N_2  and  C_3
REMARK    3  A    between atoms: N_2  and  S_12
REMARK    4  A    between atoms: C_3  and  C_4
REMARK    5  A    between atoms: C_6  and  N_11
REMARK    6  A    between atoms: S_12  and  C_15
REMARK    7  A    between atoms: C_15  and  C_16
REMARK                            x       y       z     vdW  Elec       q    Type
REMARK                         _______ _______ _______ _____ _____    ______ ____
ROOT
ATOM      1  C   UNL     1      -0.134   1.469   0.044  0.00  0.00    +0.131 C 
ATOM      2  N   UNL     1       0.003   0.011   0.011  0.00  0.00    -0.180 NA
ENDROOT
BRANCH   2   3
ATOM      3  S   UNL     1       0.009  -0.787  -1.440  0.00  0.00    +0.036 S 
ATOM      4  O   UNL     1      -0.459  -2.094  -1.137  0.00  0.00    -0.158 OA
ATOM      5  O   UNL     1      -0.721   0.057  -2.321  0.00  0.00    -0.158 OA
BRANCH   3   6
ATOM      6  C   UNL     1       1.753  -0.846  -1.933  0.00  0.00    +0.220 C 
BRANCH   6   7
ATOM      7  C   UNL     1       1.878  -1.558  -3.255  0.00  0.00    -0.025 A 
ATOM      8  C   UNL     1       2.057  -2.929  -3.288  0.00  0.00    +0.005 A 
ATOM      9  C   UNL     1       2.171  -3.582  -4.501  0.00  0.00    +0.000 A 
ATOM     10  C   UNL     1       2.107  -2.865  -5.681  0.00  0.00    +0.000 A 
ATOM     11  C   UNL     1       1.927  -1.495  -5.648  0.00  0.00    +0.000 A 
ATOM     12  C   UNL     1       1.809  -0.842  -4.436  0.00  0.00    +0.005 A 
ENDBRANCH   6   7
ENDBRANCH   3   6
ENDBRANCH   2   3
BRANCH   2  13
ATOM     13  C   UNL     1       0.135  -0.742   1.261  0.00  0.00    +0.145 C 
BRANCH  13  14
ATOM     14  C   UNL     1      -1.234  -1.015   1.830  0.00  0.00    -0.012 A 
ATOM     15  C   UNL     1      -2.361  -0.669   1.110  0.00  0.00    +0.029 A 
ATOM     16  C   UNL     1      -3.622  -0.921   1.635  0.00  0.00    +0.025 A 
ATOM     17  C   UNL     1      -3.746  -1.521   2.882  0.00  0.00    +0.024 A 
ATOM     18  C   UNL     1      -2.615  -1.864   3.597  0.00  0.00    +0.022 A 
ATOM     19  C   UNL     1      -1.360  -1.616   3.069  0.00  0.00    +0.046 A 
ATOM     20 CL   UNL     1       0.059  -2.055   3.967  0.00  0.00    -0.083 Cl
BRANCH  16  21
ATOM     21  N   UNL     1      -4.765  -0.573   0.910  0.00  0.00    -0.358 N 
ATOM     22  H   UNL     1      -4.678  -0.154   0.039  0.00  0.00    +0.142 HD
ATOM     23  H   UNL     1      -5.645  -0.749   1.277  0.00  0.00    +0.142 HD
ENDBRANCH  16  21
ENDBRANCH  13  14
ENDBRANCH   2  13
TORSDOF 6
