REMARK  Name = ZINC12496167
REMARK  9 active torsions:
REMARK  status: ('A' for Active; 'I' for Inactive)
REMARK    1  A    between atoms: N_11  and  C_12
REMARK    2  A    between atoms: C_15  and  O_34
REMARK    3  A    between atoms: C_17  and  C_20
REMARK    4  A    between atoms: C_20  and  O_21
REMARK    5  A    between atoms: O_21  and  P_22
REMARK    6  A    between atoms: P_22  and  O_25
REMARK    7  A    between atoms: O_25  and  P_26
REMARK    8  A    between atoms: P_26  and  O_29
REMARK    9  A    between atoms: O_29  and  P_30
REMARK                            x       y       z     vdW  Elec       q    Type
REMARK                         _______ _______ _______ _____ _____    ______ ____
ROOT
ATOM      1  C   UNL     1      -0.455  -3.149  -0.011  0.00  0.00    +0.225 C 
ATOM      2  C   UNL     1      -0.020  -3.503   1.428  0.00  0.00    +0.088 C 
ATOM      3  C   UNL     1       0.127  -5.041   1.409  0.00  0.00    +0.150 C 
ATOM      4  C   UNL     1      -0.237  -5.434  -0.040  0.00  0.00    +0.175 C 
ATOM      5  O   UNL     1      -1.068  -4.354  -0.521  0.00  0.00    -0.348 OA
ENDROOT
BRANCH   1  16
ATOM      6  C   UNL     1      -0.016   1.299   0.009  0.00  0.00    +0.201 A 
ATOM      7  N   UNL     1       0.002  -0.004   0.002  0.00  0.00    -0.218 NA
ATOM      8  H   UNL     1      -1.147   2.976   0.034  0.00  0.00    +0.170 HD
ATOM      9  C   UNL     1      -1.134  -0.715   0.009  0.00  0.00    +0.169 A 
ATOM     10  C   UNL     1      -2.364  -0.050   0.024  0.00  0.00    +0.172 A 
ATOM     11  C   UNL     1      -2.365   1.367   0.032  0.00  0.00    +0.279 A 
ATOM     12  O   UNL     1      -3.411   1.993   0.046  0.00  0.00    -0.265 OA
ATOM     13  N   UNL     1      -1.174   2.006   0.030  0.00  0.00    -0.312 N 
ATOM     14  N   UNL     1      -3.333  -0.995   0.028  0.00  0.00    -0.229 NA
ATOM     15  C   UNL     1      -2.783  -2.175   0.016  0.00  0.00    +0.203 A 
ATOM     16  N   UNL     1      -1.425  -2.051   0.004  0.00  0.00    -0.288 N 
ENDBRANCH   1  16
BRANCH   3  17
ATOM     17  O   UNL     1       1.472  -5.419   1.710  0.00  0.00    -0.389 OA
ATOM     18  H   UNL     1       1.771  -5.143   2.587  0.00  0.00    +0.210 HD
ENDBRANCH   3  17
BRANCH   4  19
ATOM     19  C   UNL     1      -1.012  -6.753  -0.055  0.00  0.00    +0.206 C 
BRANCH  19  20
ATOM     20  O   UNL     1      -1.237  -7.159  -1.407  0.00  0.00    -0.282 OA
BRANCH  20  21
ATOM     21  P   UNL     1      -2.026  -8.507  -1.798  0.00  0.00    +0.513 P 
ATOM     22  O   UNL     1      -1.358  -9.714  -1.103  0.00  0.00    -0.224 OA
ATOM     23  O   UNL     1      -3.496  -8.396  -1.337  0.00  0.00    -0.116 OA
BRANCH  21  24
ATOM     24  O   UNL     1      -1.978  -8.712  -3.394  0.00  0.00    -0.183 OA
BRANCH  24  25
ATOM     25  P   UNL     1      -2.283  -9.954  -4.372  0.00  0.00    +0.522 P 
ATOM     26  O   UNL     1      -1.737 -11.254  -3.740  0.00  0.00    -0.224 OA
ATOM     27  O   UNL     1      -3.809 -10.084  -4.579  0.00  0.00    -0.116 OA
BRANCH  25  28
ATOM     28  O   UNL     1      -1.568  -9.707  -5.793  0.00  0.00    -0.181 OA
BRANCH  28  29
ATOM     29  P   UNL     1      -1.226 -10.650  -7.052  0.00  0.00    +0.540 P 
ATOM     30  O   UNL     1      -0.741 -12.049  -6.540  0.00  0.00    -0.222 OA
ATOM     31  O   UNL     1      -2.510 -10.834  -7.932  0.00  0.00    -0.114 OA
ATOM     32  O   UNL     1      -0.096  -9.987  -7.910  0.00  0.00    -0.114 OA
ENDBRANCH  28  29
ENDBRANCH  25  28
ENDBRANCH  24  25
ENDBRANCH  21  24
ENDBRANCH  20  21
ENDBRANCH  19  20
ENDBRANCH   4  19
TORSDOF 9
