REMARK  Name = ZINC38650815
REMARK  15 active torsions:
REMARK  status: ('A' for Active; 'I' for Inactive)
REMARK    1  A    between atoms: C_1  and  C_2
REMARK    2  A    between atoms: C_2  and  C_3
REMARK    3  A    between atoms: C_3  and  C_4
REMARK    4  A    between atoms: C_4  and  O_5
REMARK    5  A    between atoms: O_5  and  C_6
REMARK    6  A    between atoms: C_9  and  C_12
REMARK    7  A    between atoms: C_17  and  O_26
REMARK    8  A    between atoms: C_21  and  N_25
REMARK    9  A    between atoms: C_22  and  C_23
REMARK   10  A    between atoms: O_26  and  C_27
REMARK   11  A    between atoms: C_27  and  C_29
REMARK   12  A    between atoms: C_32  and  O_35
REMARK   13  A    between atoms: O_35  and  C_36
REMARK   14  A    between atoms: C_36  and  C_37
REMARK   15  A    between atoms: C_37  and  C_38
REMARK                            x       y       z     vdW  Elec       q    Type
REMARK                         _______ _______ _______ _____ _____    ______ ____
ROOT
ATOM      1  C   UNL     1       1.852  -8.062   2.978  0.00  0.00    +0.098 C 
ATOM      2  C   UNL     1       1.191  -8.491   4.261  0.00  0.00    +0.008 A 
ATOM      3  C   UNL     1      -0.190  -8.473   4.355  0.00  0.00    +0.012 A 
ATOM      4  C   UNL     1      -0.813  -8.863   5.523  0.00  0.00    +0.047 A 
ATOM      5  C   UNL     1      -0.055  -9.276   6.610  0.00  0.00    +0.135 A 
ATOM      6  C   UNL     1       1.327  -9.296   6.519  0.00  0.00    +0.093 A 
ATOM      7  C   UNL     1       1.953  -8.902   5.343  0.00  0.00    +0.138 A 
ATOM      8  O   UNL     1       3.307  -8.927   5.271  0.00  0.00    -0.441 OA
ATOM      9  C   UNL     1       3.914  -8.933   4.072  0.00  0.00    +0.199 C 
ATOM     10  C   UNL     1       3.278  -8.534   2.949  0.00  0.00    +0.098 C 
ENDROOT
BRANCH   1  14
ATOM     11  C   UNL     1       1.766  -3.798   2.700  0.00  0.00    +0.121 A 
ATOM     12  C   UNL     1       1.142  -4.570   1.732  0.00  0.00    +0.046 A 
ATOM     13  C   UNL     1       1.171  -5.948   1.823  0.00  0.00    +0.008 A 
ATOM     14  C   UNL     1       1.822  -6.558   2.880  0.00  0.00    -0.034 A 
ATOM     15  C   UNL     1       2.445  -5.791   3.847  0.00  0.00    +0.008 A 
ATOM     16  C   UNL     1       2.423  -4.412   3.757  0.00  0.00    +0.046 A 
BRANCH  11  17
ATOM     17  O   UNL     1       1.739  -2.442   2.612  0.00  0.00    -0.492 OA
BRANCH  17  18
ATOM     18  C   UNL     1       1.044  -1.879   1.498  0.00  0.00    +0.229 C 
BRANCH  18  19
ATOM     19  C   UNL     1       1.122  -0.352   1.568  0.00  0.00    +0.041 C 
BRANCH  19  21
ATOM     20  C   UNL     1       0.455   1.778   0.445  0.00  0.00    +0.004 C 
ATOM     21  C   UNL     1       0.378   0.252   0.375  0.00  0.00    -0.000 C 
ENDBRANCH  19  21
ENDBRANCH  18  19
ENDBRANCH  17  18
ENDBRANCH  11  17
ENDBRANCH   1  14
BRANCH   9  22
ATOM     22  N   UNL     1       5.217  -9.356   3.988  0.00  0.00    -0.328 N 
ATOM     23  H   UNL     1       5.686  -9.644   4.787  0.00  0.00    +0.145 HD
ATOM     24  H   UNL     1       5.669  -9.366   3.130  0.00  0.00    +0.145 HD
ENDBRANCH   9  22
BRANCH  10  25
ATOM     25  C   UNL     1       3.982  -8.563   1.702  0.00  0.00    +0.101 C 
ATOM     26  N   UNL     1       4.540  -8.587   0.713  0.00  0.00    -0.191 NA
ENDBRANCH  10  25
BRANCH   5  27
ATOM     27  O   UNL     1      -0.667  -9.661   7.760  0.00  0.00    -0.422 OA
BRANCH  27  28
ATOM     28  C   UNL     1      -1.367 -10.813   7.750  0.00  0.00    +0.344 C 
ATOM     29  O   UNL     1      -1.350 -11.525   6.766  0.00  0.00    -0.245 OA
BRANCH  28  30
ATOM     30  C   UNL     1      -2.152 -11.208   8.934  0.00  0.00    +0.060 A 
ATOM     31  C   UNL     1      -2.177 -10.387  10.065  0.00  0.00    +0.018 A 
ATOM     32  C   UNL     1      -2.912 -10.760  11.168  0.00  0.00    +0.046 A 
ATOM     33  C   UNL     1      -3.629 -11.951  11.158  0.00  0.00    +0.121 A 
ATOM     34  C   UNL     1      -3.607 -12.771  10.035  0.00  0.00    +0.046 A 
ATOM     35  C   UNL     1      -2.879 -12.403   8.926  0.00  0.00    +0.018 A 
BRANCH  33  36
ATOM     36  O   UNL     1      -4.352 -12.316  12.247  0.00  0.00    -0.492 OA
BRANCH  36  37
ATOM     37  C   UNL     1      -5.065 -13.552  12.169  0.00  0.00    +0.229 C 
BRANCH  37  38
ATOM     38  C   UNL     1      -5.816 -13.791  13.480  0.00  0.00    +0.038 C 
ATOM     39  C   UNL     1      -6.579 -15.115  13.396  0.00  0.00    +0.007 C 
ENDBRANCH  37  38
ENDBRANCH  36  37
ENDBRANCH  33  36
ENDBRANCH  28  30
ENDBRANCH  27  28
ENDBRANCH   5  27
TORSDOF 13
