REMARK  Name = ZINC59170613
REMARK  6 active torsions:
REMARK  status: ('A' for Active; 'I' for Inactive)
REMARK    1  A    between atoms: C_3  and  S_30
REMARK    2  A    between atoms: C_6  and  N_7
REMARK    3  A    between atoms: C_9  and  C_19
REMARK    4  A    between atoms: C_14  and  O_18
REMARK    5  A    between atoms: N_21  and  C_22
REMARK    6  A    between atoms: S_30  and  N_33
REMARK                            x       y       z     vdW  Elec       q    Type
REMARK                         _______ _______ _______ _____ _____    ______ ____
ROOT
ATOM      1  N   UNL     1      -1.897  -0.336  -0.371  0.00  0.00    -0.325 N 
ATOM      2  C   UNL     1      -1.548  -1.484  -0.910  0.00  0.00    +0.212 A 
ATOM      3  C   UNL     1      -2.307  -2.720  -0.633  0.00  0.00    +0.098 A 
ATOM      4  C   UNL     1      -2.257  -3.727  -1.587  0.00  0.00    +0.030 A 
ATOM      5  C   UNL     1      -1.460  -3.517  -2.741  0.00  0.00    +0.018 A 
ATOM      6  C   UNL     1      -1.531  -4.408  -3.823  0.00  0.00    +0.015 A 
ATOM      7  C   UNL     1      -0.792  -4.173  -4.945  0.00  0.00    +0.046 A 
ATOM      8  C   UNL     1       0.041  -3.058  -5.024  0.00  0.00    +0.120 A 
ATOM      9  C   UNL     1       0.138  -2.177  -3.957  0.00  0.00    +0.092 A 
ATOM     10  C   UNL     1      -0.599  -2.405  -2.807  0.00  0.00    +0.141 A 
ATOM     11  O   UNL     1      -0.482  -1.573  -1.746  0.00  0.00    -0.438 OA
ATOM     12  H   UNL     1      -2.727  -0.266   0.126  0.00  0.00    +0.169 HD
ENDROOT
BRANCH   1  18
ATOM     13  C   UNL     1      -1.638   1.998  -0.845  0.00  0.00    +0.027 A 
ATOM     14  C   UNL     1      -0.817   3.098  -0.984  0.00  0.00    +0.030 A 
ATOM     15  C   UNL     1       0.548   2.975  -0.792  0.00  0.00    +0.105 A 
ATOM     16  C   UNL     1       1.099   1.749  -0.461  0.00  0.00    +0.030 A 
ATOM     17  C   UNL     1       0.290   0.641  -0.320  0.00  0.00    +0.027 A 
ATOM     18  C   UNL     1      -1.089   0.758  -0.510  0.00  0.00    +0.042 A 
BRANCH  15  19
ATOM     19  S   UNL     1       1.589   4.385  -0.972  0.00  0.00    +0.056 S 
ATOM     20  O   UNL     1       2.888   3.895  -1.277  0.00  0.00    -0.153 OA
ATOM     21  O   UNL     1       0.899   5.294  -1.819  0.00  0.00    -0.153 OA
BRANCH  19  22
ATOM     22  N   UNL     1       1.693   5.109   0.514  0.00  0.00    -0.204 NA
ATOM     23  H   UNL     1       1.220   4.731   1.272  0.00  0.00    +0.144 HD
ATOM     24  H   UNL     1       2.227   5.911   0.626  0.00  0.00    +0.144 HD
ENDBRANCH  19  22
ENDBRANCH  15  19
ENDBRANCH   1  18
BRANCH   3  25
ATOM     25  C   UNL     1      -3.085  -2.878   0.606  0.00  0.00    +0.253 C 
ATOM     26  O   UNL     1      -3.788  -3.858   0.762  0.00  0.00    -0.270 OA
ATOM     27  N   UNL     1      -3.018  -1.937   1.568  0.00  0.00    -0.280 N 
ATOM     28  H   UNL     1      -2.494  -1.133   1.425  0.00  0.00    +0.155 HD
BRANCH  27  29
ATOM     29  C   UNL     1      -3.705  -2.119   2.774  0.00  0.00    +0.052 A 
ATOM     30  C   UNL     1      -4.777  -2.998   2.838  0.00  0.00    +0.026 A 
ATOM     31  C   UNL     1      -5.454  -3.176   4.029  0.00  0.00    +0.022 A 
ATOM     32  C   UNL     1      -5.064  -2.478   5.159  0.00  0.00    +0.042 A 
ATOM     33  C   UNL     1      -3.996  -1.600   5.099  0.00  0.00    +0.041 A 
ATOM     34  C   UNL     1      -3.311  -1.423   3.911  0.00  0.00    +0.064 A 
ATOM     35 CL   UNL     1      -1.966  -0.328   3.838  0.00  0.00    -0.082 Cl
ATOM     36 CL   UNL     1      -5.917  -2.704   6.654  0.00  0.00    -0.083 Cl
ENDBRANCH  27  29
ENDBRANCH   3  25
BRANCH   8  37
ATOM     37  O   UNL     1       0.761  -2.833  -6.151  0.00  0.00    -0.507 OA
ATOM     38  H   UNL     1       0.302  -2.293  -6.809  0.00  0.00    +0.292 HD
ENDBRANCH   8  37
TORSDOF 6
