REMARK  Name = ZINC10698161
REMARK  7 active torsions:
REMARK  status: ('A' for Active; 'I' for Inactive)
REMARK    1  A    between atoms: C_1  and  C_2
REMARK    2  A    between atoms: C_5  and  C_24
REMARK    3  A    between atoms: C_6  and  C_8
REMARK    4  A    between atoms: C_8  and  C_9
REMARK    5  A    between atoms: N_11  and  C_12
REMARK    6  A    between atoms: C_13  and  C_21
REMARK    7  A    between atoms: C_20  and  N_48
REMARK                            x       y       z     vdW  Elec       q    Type
REMARK                         _______ _______ _______ _____ _____    ______ ____
ROOT
ATOM      1  C   UNL     1       4.523   4.901  -2.978  0.00  0.00    +0.084 A 
ATOM      2  C   UNL     1       5.665   5.546  -3.435  0.00  0.00    +0.068 A 
ATOM      3  C   UNL     1       5.903   5.550  -4.866  0.00  0.00    -0.027 A 
ATOM      4  C   UNL     1       4.964   4.924  -5.610  0.00  0.00    -0.021 A 
ATOM      5  S   UNL     1       3.783   4.327  -4.437  0.00  0.00    -0.079 S 
ATOM      6  C   UNL     1       4.957   4.786  -7.101  0.00  0.00    -0.036 C 
ATOM      7  C   UNL     1       7.223   5.631  -6.957  0.00  0.00    -0.074 C 
ATOM      8  C   UNL     1       7.104   6.202  -5.541  0.00  0.00    +0.018 C 
ATOM      9  C   UNL     1       6.102   5.542  -9.102  0.00  0.00    -0.096 C 
ATOM     10  N   UNL     1       5.926   5.765  -7.651  0.00  0.00    +0.381 N 
ATOM     11  H   UNL     1       5.563   6.714  -7.501  0.00  0.00    -0.082 HD
ENDROOT
BRANCH   2  12
ATOM     12  C   UNL     1       6.596   6.194  -2.506  0.00  0.00    +0.244 C 
ATOM     13  O   UNL     1       7.525   5.564  -2.037  0.00  0.00    -0.270 OA
ATOM     14  N   UNL     1       6.422   7.489  -2.172  0.00  0.00    -0.325 N 
ATOM     15  H   UNL     1       5.682   7.991  -2.547  0.00  0.00    +0.145 HD
ATOM     16  H   UNL     1       7.038   7.918  -1.558  0.00  0.00    +0.145 HD
ENDBRANCH   2  12
BRANCH   1  19
ATOM     17  C   UNL     1       2.933   4.094  -1.420  0.00  0.00    +0.222 C 
ATOM     18  O   UNL     1       2.288   3.627  -2.334  0.00  0.00    -0.275 OA
ATOM     19  N   UNL     1       4.080   4.755  -1.673  0.00  0.00    -0.279 N 
ATOM     20  H   UNL     1       4.596   5.129  -0.941  0.00  0.00    +0.155 HD
BRANCH  17  21
ATOM     21  C   UNL     1       2.451   3.937  -0.001  0.00  0.00    +0.131 C 
BRANCH  21  27
ATOM     22  C   UNL     1      -2.553   3.869   0.046  0.00  0.00    +0.044 C 
ATOM     23  C   UNL     1      -1.238   3.133   0.030  0.00  0.00    -0.050 A 
ATOM     24  C   UNL     1      -1.219   1.750   0.017  0.00  0.00    +0.003 A 
ATOM     25  C   UNL     1      -0.013   1.076   0.008  0.00  0.00    +0.004 A 
ATOM     26  C   UNL     1       1.175   1.783   0.000  0.00  0.00    -0.047 A 
ATOM     27  C   UNL     1       1.157   3.165   0.008  0.00  0.00    -0.035 A 
ATOM     28  C   UNL     1      -0.050   3.840   0.023  0.00  0.00    +0.007 A 
ATOM     29  C   UNL     1       2.490   1.048  -0.016  0.00  0.00    +0.044 C 
ENDBRANCH  21  27
ENDBRANCH  17  21
ENDBRANCH   1  19
TORSDOF 4
