REMARK  Name = ZINC38590941
REMARK  5 active torsions:
REMARK  status: ('A' for Active; 'I' for Inactive)
REMARK    1  A    between atoms: C_1  and  C_2
REMARK    2  A    between atoms: C_4  and  C_32
REMARK    3  A    between atoms: C_13  and  C_25
REMARK    4  A    between atoms: N_15  and  C_18
REMARK    5  A    between atoms: C_18  and  C_19
REMARK                            x       y       z     vdW  Elec       q    Type
REMARK                         _______ _______ _______ _____ _____    ______ ____
ROOT
ATOM      1  C   UNL     1       1.218   2.204   1.580  0.00  0.00    +0.044 C 
ATOM      2  C   UNL     1       1.119   0.718   1.345  0.00  0.00    -0.047 A 
ATOM      3  C   UNL     1       0.917   0.240   0.058  0.00  0.00    +0.007 A 
ATOM      4  C   UNL     1       0.828  -1.105  -0.170  0.00  0.00    -0.036 A 
ATOM      5  C   UNL     1       0.941  -1.997   0.896  0.00  0.00    +0.067 A 
ATOM      6  C   UNL     1       1.141  -1.524   2.204  0.00  0.00    +0.140 A 
ATOM      7  C   UNL     1       1.236  -0.147   2.409  0.00  0.00    +0.050 A 
ATOM      8  O   UNL     1       1.242  -2.355   3.265  0.00  0.00    -0.450 OA
ATOM      9  C   UNL     1       1.390  -3.679   3.063  0.00  0.00    +0.199 A 
ATOM     10  C   UNL     1       1.213  -4.262   1.841  0.00  0.00    +0.072 A 
ATOM     11  C   UNL     1       0.855  -3.461   0.665  0.00  0.00    +0.199 A 
ATOM     12  O   UNL     1       0.519  -3.950  -0.399  0.00  0.00    -0.287 OA
ATOM     13  C   UNL     1       1.449  -5.729   1.997  0.00  0.00    +0.145 C 
ATOM     14  N   UNL     1       1.784  -5.932   3.416  0.00  0.00    -0.281 N 
ATOM     15  C   UNL     1       1.748  -4.732   4.030  0.00  0.00    +0.283 C 
ATOM     16  O   UNL     1       1.977  -4.546   5.208  0.00  0.00    -0.267 OA
ATOM     17  C   UNL     1       0.609  -1.623  -1.569  0.00  0.00    +0.044 C 
ENDROOT
BRANCH  13  18
ATOM     18  C   UNL     1       2.596  -6.167   1.122  0.00  0.00    -0.022 A 
ATOM     19  C   UNL     1       3.894  -5.843   1.471  0.00  0.00    +0.008 A 
ATOM     20  C   UNL     1       4.946  -6.244   0.670  0.00  0.00    +0.038 A 
ATOM     21  C   UNL     1       4.700  -6.971  -0.482  0.00  0.00    +0.123 A 
ATOM     22  C   UNL     1       3.399  -7.295  -0.831  0.00  0.00    +0.038 A 
ATOM     23  C   UNL     1       2.349  -6.897  -0.026  0.00  0.00    +0.008 A 
ATOM     24  F   UNL     1       5.727  -7.364  -1.266  0.00  0.00    -0.205 F 
ENDBRANCH  13  18
BRANCH  14  25
ATOM     25  C   UNL     1       2.102  -7.215   4.050  0.00  0.00    +0.140 C 
BRANCH  25  26
ATOM     26  C   UNL     1       0.805  -7.919   4.452  0.00  0.00    +0.136 C 
ATOM     27  C   UNL     1       1.118  -9.197   5.270  0.00  0.00    +0.035 C 
ATOM     28  C   UNL     1      -0.196  -9.359   6.081  0.00  0.00    +0.031 C 
ATOM     29  C   UNL     1      -0.612  -7.892   6.327  0.00  0.00    +0.160 C 
ATOM     30  O   UNL     1       0.037  -7.085   5.335  0.00  0.00    -0.375 OA
ENDBRANCH  25  26
ENDBRANCH  14  25
TORSDOF 3
