REMARK  Name = ZINC43222431
REMARK  8 active torsions:
REMARK  status: ('A' for Active; 'I' for Inactive)
REMARK    1  A    between atoms: C_1  and  O_2
REMARK    2  A    between atoms: O_2  and  C_3
REMARK    3  A    between atoms: C_7  and  C_9
REMARK    4  A    between atoms: C_9  and  C_10
REMARK    5  A    between atoms: C_10  and  N_11
REMARK    6  A    between atoms: C_12  and  C_14
REMARK    7  A    between atoms: C_19  and  C_21
REMARK    8  A    between atoms: N_23  and  C_24
REMARK                            x       y       z     vdW  Elec       q    Type
REMARK                         _______ _______ _______ _____ _____    ______ ____
ROOT
ATOM      1  C   UNL     1      -2.725  -8.320  -2.598  0.00  0.00    +0.068 C 
ATOM      2  C   UNL     1      -4.029  -8.805  -1.928  0.00  0.00    -0.069 C 
ATOM      3  N   UNL     1      -4.973  -9.015  -3.055  0.00  0.00    +0.380 N 
ATOM      4  C   UNL     1      -4.135  -9.614  -4.126  0.00  0.00    -0.069 C 
ATOM      5  C   UNL     1      -2.792  -8.853  -4.044  0.00  0.00    +0.068 C 
ATOM      6  H   UNL     1      -5.709  -9.650  -2.786  0.00  0.00    -0.086 HD
ATOM      7  H   UNL     1      -5.359  -8.134  -3.361  0.00  0.00    -0.086 HD
ENDROOT
BRANCH   1   9
ATOM      8  N   UNL     1      -2.629  -6.143  -1.429  0.00  0.00    -0.315 N 
ATOM      9  C   UNL     1      -2.664  -6.815  -2.596  0.00  0.00    +0.215 C 
ATOM     10  O   UNL     1      -2.647  -6.208  -3.646  0.00  0.00    -0.276 OA
ATOM     11  H   UNL     1      -2.643  -6.628  -0.589  0.00  0.00    +0.149 HD
BRANCH   8  12
ATOM     12  C   UNL     1      -2.570  -4.679  -1.427  0.00  0.00    +0.109 C 
BRANCH  12  13
ATOM     13  C   UNL     1      -2.540  -4.171   0.015  0.00  0.00    +0.054 C 
BRANCH  13  18
ATOM     14  C   UNL     1      -1.200  -0.637   0.010  0.00  0.00    +0.120 A 
ATOM     15  C   UNL     1      -2.375   0.101   0.019  0.00  0.00    +0.045 A 
ATOM     16  C   UNL     1      -3.596  -0.545   0.027  0.00  0.00    +0.004 A 
ATOM     17  C   UNL     1      -3.648  -1.927   0.026  0.00  0.00    +0.004 A 
ATOM     18  C   UNL     1      -2.479  -2.665   0.017  0.00  0.00    -0.042 A 
ATOM     19  C   UNL     1      -1.255  -2.023   0.003  0.00  0.00    +0.049 A 
BRANCH  14  21
ATOM     20  C   UNL     1      -0.017   1.425   0.010  0.00  0.00    +0.277 C 
ATOM     21  O   UNL     1       0.002  -0.004   0.002  0.00  0.00    -0.495 OA
ENDBRANCH  14  21
ENDBRANCH  13  18
ENDBRANCH  12  13
ENDBRANCH   8  12
ENDBRANCH   1   9
BRANCH   5  22
ATOM     22  C   UNL     1      -1.641  -9.788  -4.312  0.00  0.00    +0.215 C 
ATOM     23  O   UNL     1      -0.832 -10.019  -3.439  0.00  0.00    -0.276 OA
ATOM     24  N   UNL     1      -1.511 -10.367  -5.522  0.00  0.00    -0.308 N 
ATOM     25  H   UNL     1      -2.159 -10.182  -6.220  0.00  0.00    +0.149 HD
BRANCH  24  26
ATOM     26  C   UNL     1      -0.392 -11.276  -5.782  0.00  0.00    +0.103 C 
ATOM     27  C   UNL     1      -0.781 -12.248  -6.894  0.00  0.00    +0.027 C 
ATOM     28  C   UNL     1       0.466 -13.041  -7.301  0.00  0.00    +0.007 C 
ATOM     29  C   UNL     1       1.424 -12.096  -8.023  0.00  0.00    +0.035 C 
ATOM     30  C   UNL     1       1.654 -10.851  -7.207  0.00  0.00    -0.042 A 
ATOM     31  C   UNL     1       0.818 -10.473  -6.181  0.00  0.00    -0.024 A 
ATOM     32  C   UNL     1       1.084  -9.308  -5.472  0.00  0.00    +0.006 A 
ATOM     33  C   UNL     1       2.179  -8.531  -5.786  0.00  0.00    +0.000 A 
ATOM     34  C   UNL     1       3.021  -8.913  -6.814  0.00  0.00    +0.000 A 
ATOM     35  C   UNL     1       2.758 -10.068  -7.519  0.00  0.00    +0.004 A 
ENDBRANCH  24  26
ENDBRANCH   5  22
TORSDOF 7
