REMARK  Name = ZINC20915611
REMARK  18 active torsions:
REMARK  status: ('A' for Active; 'I' for Inactive)
REMARK    1  A    between atoms: C_1  and  C_2
REMARK    2  A    between atoms: C_6  and  C_8
REMARK    3  A    between atoms: C_8  and  C_9
REMARK    4  A    between atoms: C_9  and  N_10
REMARK    5  A    between atoms: N_10  and  C_11
REMARK    6  A    between atoms: C_11  and  C_12
REMARK    7  A    between atoms: C_15  and  O_20
REMARK    8  A    between atoms: C_16  and  O_18
REMARK    9  A    between atoms: O_18  and  C_19
REMARK   10  A    between atoms: O_20  and  C_21
REMARK   11  A    between atoms: C_21  and  C_22
REMARK   12  A    between atoms: C_22  and  C_24
REMARK   13  A    between atoms: C_22  and  O_30
REMARK   14  A    between atoms: C_24  and  N_25
REMARK   15  A    between atoms: N_25  and  C_26
REMARK   16  A    between atoms: N_25  and  C_27
REMARK   17  A    between atoms: C_27  and  C_28
REMARK   18  A    between atoms: C_27  and  C_29
REMARK                            x       y       z     vdW  Elec       q    Type
REMARK                         _______ _______ _______ _____ _____    ______ ____
ROOT
ATOM      1  C   UNL     1      -1.620   2.718  -6.035  0.00  0.00    -0.030 A 
ATOM      2  C   UNL     1      -2.275   3.035  -4.859  0.00  0.00    +0.009 A 
ATOM      3  C   UNL     1      -1.743   2.651  -3.643  0.00  0.00    +0.050 A 
ATOM      4  C   UNL     1      -0.550   1.948  -3.599  0.00  0.00    +0.162 A 
ATOM      5  C   UNL     1       0.113   1.634  -4.781  0.00  0.00    +0.162 A 
ATOM      6  C   UNL     1      -0.429   2.016  -5.998  0.00  0.00    +0.054 A 
ENDROOT
BRANCH   5   7
ATOM      7  O   UNL     1       1.287   0.949  -4.743  0.00  0.00    -0.491 OA
ATOM      8  C   UNL     1       1.911   0.661  -5.996  0.00  0.00    +0.277 C 
ENDBRANCH   5   7
BRANCH   1   9
ATOM      9  C   UNL     1      -2.204   3.138  -7.359  0.00  0.00    +0.116 C 
BRANCH   9  10
ATOM     10  N   UNL     1      -1.694   4.467  -7.720  0.00  0.00    -0.312 NA
ATOM     11  H   UNL     1      -0.598   4.418  -7.787  0.00  0.00    +0.122 HD
BRANCH  10  12
ATOM     12  C   UNL     1      -2.244   4.910  -9.008  0.00  0.00    +0.089 C 
BRANCH  12  13
ATOM     13  C   UNL     1      -1.691   6.295  -9.349  0.00  0.00    +0.091 C 
BRANCH  13  19
ATOM     14  C   UNL     1      -5.197   8.628 -11.836  0.00  0.00    +0.066 C 
ATOM     15  C   UNL     1      -3.908   7.848 -11.827  0.00  0.00    +0.045 A 
ATOM     16  C   UNL     1      -3.255   7.556 -13.014  0.00  0.00    -0.005 A 
ATOM     17  C   UNL     1      -2.073   6.837 -12.959  0.00  0.00    +0.048 A 
ATOM     18  N   UNL     1      -1.605   6.458 -11.779  0.00  0.00    -0.237 NA
ATOM     19  C   UNL     1      -2.256   6.750 -10.671  0.00  0.00    +0.131 A 
ATOM     20  N   UNL     1      -3.383   7.432 -10.685  0.00  0.00    -0.237 NA
ATOM     21  C   UNL     1      -1.535   6.633 -14.357  0.00  0.00    +0.056 C 
ATOM     22  C   UNL     1      -2.727   6.922 -15.295  0.00  0.00    +0.011 C 
ATOM     23  C   UNL     1      -3.591   7.883 -14.449  0.00  0.00    +0.039 C 
ENDBRANCH  13  19
ENDBRANCH  12  13
ENDBRANCH  10  12
ENDBRANCH   9  10
ENDBRANCH   1   9
BRANCH   4  24
ATOM     24  O   UNL     1      -0.025   1.570  -2.402  0.00  0.00    -0.486 OA
BRANCH  24  25
ATOM     25  C   UNL     1      -0.757   1.932  -1.230  0.00  0.00    +0.258 C 
BRANCH  25  26
ATOM     26  C   UNL     1      -0.017   1.425   0.010  0.00  0.00    +0.135 C 
BRANCH  26  27
ATOM     27  O   UNL     1       0.002  -0.004   0.002  0.00  0.00    -0.390 OA
ATOM     28  H   UNL     1       0.494  -0.552   0.819  0.00  0.00    +0.210 HD
ENDBRANCH  26  27
BRANCH  26  29
ATOM     29  C   UNL     1      -0.733   1.918   1.269  0.00  0.00    -0.044 C 
BRANCH  29  30
ATOM     30  N   UNL     1       0.042   1.534   2.456  0.00  0.00    +0.381 N 
ATOM     31  C   UNL     1       1.333   2.234   2.491  0.00  0.00    -0.096 C 
ATOM     32  H   UNL     1       0.244   0.454   2.392  0.00  0.00    -0.082 HD
BRANCH  30  33
ATOM     33  C   UNL     1      -0.723   1.778   3.686  0.00  0.00    -0.075 C 
ATOM     34  C   UNL     1       0.063   1.251   4.888  0.00  0.00    -0.014 C 
ATOM     35  C   UNL     1      -0.960   3.280   3.849  0.00  0.00    -0.014 C 
ENDBRANCH  30  33
ENDBRANCH  29  30
ENDBRANCH  26  29
ENDBRANCH  25  26
ENDBRANCH  24  25
ENDBRANCH   4  24
TORSDOF 13
