REMARK  Name = ZINC38733197
REMARK  3 active torsions:
REMARK  status: ('A' for Active; 'I' for Inactive)
REMARK    1  A    between atoms: C_10  and  N_12
REMARK    2  A    between atoms: C_13  and  C_15
REMARK    3  A    between atoms: C_21  and  C_23
REMARK                            x       y       z     vdW  Elec       q    Type
REMARK                         _______ _______ _______ _____ _____    ______ ____
ROOT
ATOM      1  C   UNL     1       6.207   1.827  -1.469  0.00  0.00    +0.091 C 
ATOM      2  C   UNL     1       7.285   0.851  -1.945  0.00  0.00    +0.040 C 
ATOM      3  C   UNL     1       8.375   1.593  -2.662  0.00  0.00    -0.030 C 
ATOM      4  C   UNL     1       8.560   2.871  -2.575  0.00  0.00    -0.030 C 
ATOM      5  C   UNL     1       7.705   3.791  -1.754  0.00  0.00    +0.040 C 
ATOM      6  C   UNL     1       6.889   2.990  -0.737  0.00  0.00    +0.091 C 
ENDROOT
BRANCH   6   7
ATOM      7  C   UNL     1       5.843   3.876  -0.110  0.00  0.00    +0.220 C 
ATOM      8  O   UNL     1       4.780   4.047  -0.667  0.00  0.00    -0.275 OA
ATOM      9  N   UNL     1       6.091   4.479   1.070  0.00  0.00    -0.298 N 
ATOM     10  C   UNL     1       7.418   4.385   1.694  0.00  0.00    +0.126 C 
ATOM     11  C   UNL     1       7.936   5.804   1.960  0.00  0.00    +0.125 C 
ATOM     12  N   UNL     1       6.883   6.567   2.645  0.00  0.00    -0.314 N 
ATOM     13  C   UNL     1       5.556   6.661   2.021  0.00  0.00    +0.125 C 
ATOM     14  C   UNL     1       5.040   5.246   1.752  0.00  0.00    +0.126 C 
ATOM     15  C   UNL     1       7.138   7.189   3.862  0.00  0.00    +0.099 A 
ATOM     16  C   UNL     1       8.430   7.192   4.377  0.00  0.00    +0.042 A 
ATOM     17  C   UNL     1       8.670   7.814   5.589  0.00  0.00    +0.005 A 
ATOM     18  C   UNL     1       7.605   8.415   6.247  0.00  0.00    +0.018 A 
ATOM     19  C   UNL     1       6.348   8.374   5.678  0.00  0.00    +0.084 A 
ATOM     20  N   UNL     1       6.150   7.778   4.518  0.00  0.00    -0.350 N 
ATOM     21  H   UNL     1       5.258   7.767   4.138  0.00  0.00    +0.166 HD
ENDBRANCH   6   7
BRANCH   1  23
ATOM     22  N   UNL     1       4.557   0.056  -0.959  0.00  0.00    -0.308 N 
ATOM     23  C   UNL     1       5.263   1.121  -0.530  0.00  0.00    +0.218 C 
ATOM     24  O   UNL     1       5.138   1.512   0.611  0.00  0.00    -0.275 OA
ATOM     25  H   UNL     1       4.657  -0.257  -1.872  0.00  0.00    +0.149 HD
BRANCH  22  35
ATOM     26  C   UNL     1      -0.075   1.490  -0.056  0.00  0.00    +0.000 A 
ATOM     27  C   UNL     1       1.129   2.171  -0.051  0.00  0.00    +0.000 A 
ATOM     28  C   UNL     1       2.314   1.465  -0.049  0.00  0.00    +0.006 A 
ATOM     29  C   UNL     1       2.309   0.076  -0.056  0.00  0.00    -0.024 A 
ATOM     30  C   UNL     1       1.111  -0.601  -0.067  0.00  0.00    -0.042 A 
ATOM     31  C   UNL     1      -0.082   0.111  -0.064  0.00  0.00    +0.004 A 
ATOM     32  C   UNL     1       1.030  -2.105  -0.090  0.00  0.00    +0.035 C 
ATOM     33  C   UNL     1       2.359  -2.722   0.339  0.00  0.00    +0.007 C 
ATOM     34  C   UNL     1       3.479  -2.083  -0.491  0.00  0.00    +0.027 C 
ATOM     35  C   UNL     1       3.639  -0.630  -0.046  0.00  0.00    +0.103 C 
ENDBRANCH  22  35
ENDBRANCH   1  23
TORSDOF 3
