REMARK  Name = ZINC05562182
REMARK  1 active torsions:
REMARK  status: ('A' for Active; 'I' for Inactive)
REMARK    1  A    between atoms: N_13  and  N_14
REMARK                            x       y       z     vdW  Elec       q    Type
REMARK                         _______ _______ _______ _____ _____    ______ ____
ROOT
ATOM      1  C   UNL     1      -1.855   1.946   5.678  0.00  0.00    +0.246 A 
ATOM      2  N   UNL     1      -1.621   1.812   4.375  0.00  0.00    -0.214 NA
ATOM      3  C   UNL     1      -2.732   1.449   3.764  0.00  0.00    +0.169 A 
ATOM      4  C   UNL     1      -3.067   1.159   2.357  0.00  0.00    +0.055 A 
ATOM      5  C   UNL     1      -2.200   1.200   1.181  0.00  0.00    -0.024 A 
ATOM      6  C   UNL     1      -2.761   0.886  -0.006  0.00  0.00    -0.004 A 
ATOM      7  S   UNL     1      -4.455   0.523   0.370  0.00  0.00    -0.073 S 
ATOM      8  C   UNL     1      -4.403   0.795   2.124  0.00  0.00    +0.116 A 
ATOM      9  N   UNL     1      -5.296   0.721   3.103  0.00  0.00    -0.206 NA
ATOM     10  C   UNL     1      -4.982   0.981   4.352  0.00  0.00    +0.233 A 
ATOM     11  N   UNL     1      -3.715   1.344   4.706  0.00  0.00    -0.180 N 
ATOM     12  N   UNL     1      -3.112   1.673   5.929  0.00  0.00    -0.151 NA
ATOM     13  N   UNL     1      -5.952   0.884   5.324  0.00  0.00    -0.252 N 
ATOM     14  C   UNL     1      -2.092   0.854  -1.346  0.00  0.00    +0.043 C 
ATOM     15  C   UNL     1      -0.750   1.591  -1.235  0.00  0.00    +0.005 C 
ATOM     16  C   UNL     1      -0.013   1.086   0.008  0.00  0.00    +0.005 C 
ATOM     17  C   UNL     1      -0.725   1.577   1.268  0.00  0.00    +0.037 C 
ATOM     18  H   UNL     1      -5.732   1.074   6.250  0.00  0.00    +0.169 HD
ENDROOT
BRANCH  13  19
ATOM     19  N   UNL     1      -7.225   0.521   4.986  0.00  0.00    -0.254 NA
ATOM     20  H   UNL     1      -7.232  -0.364   4.502  0.00  0.00    +0.140 HD
ATOM     21  H   UNL     1      -7.821   0.494   5.800  0.00  0.00    +0.140 HD
ENDBRANCH  13  19
TORSDOF 1
