REMARK  Name = ZINC25217809
REMARK  9 active torsions:
REMARK  status: ('A' for Active; 'I' for Inactive)
REMARK    1  A    between atoms: C_1  and  C_2
REMARK    2  A    between atoms: C_2  and  C_4
REMARK    3  A    between atoms: C_2  and  O_32
REMARK    4  A    between atoms: C_4  and  N_5
REMARK    5  A    between atoms: N_14  and  C_15
REMARK    6  A    between atoms: C_15  and  C_16
REMARK    7  A    between atoms: N_18  and  C_19
REMARK    8  A    between atoms: C_19  and  C_21
REMARK    9  A    between atoms: C_19  and  C_22
REMARK                            x       y       z     vdW  Elec       q    Type
REMARK                         _______ _______ _______ _____ _____    ______ ____
ROOT
ATOM      1  N   UNL     1       1.444  10.415  -4.810  0.00  0.00    -0.314 N 
ATOM      2  C   UNL     1       1.952  11.341  -3.922  0.00  0.00    +0.175 A 
ATOM      3  N   UNL     1       1.812  12.639  -4.027  0.00  0.00    -0.327 N 
ATOM      4  C   UNL     1       2.440  13.250  -2.988  0.00  0.00    +0.065 A 
ATOM      5  C   UNL     1       2.605  14.588  -2.619  0.00  0.00    +0.028 A 
ATOM      6  C   UNL     1       3.312  14.900  -1.480  0.00  0.00    +0.002 A 
ATOM      7  C   UNL     1       3.863  13.898  -0.696  0.00  0.00    +0.002 A 
ATOM      8  C   UNL     1       3.709  12.572  -1.046  0.00  0.00    +0.028 A 
ATOM      9  C   UNL     1       2.999  12.239  -2.190  0.00  0.00    +0.068 A 
ATOM     10  N   UNL     1       2.673  11.040  -2.802  0.00  0.00    -0.305 N 
ATOM     11  H   UNL     1       1.610   9.341  -4.639  0.00  0.00    +0.149 HD
ATOM     12  H   UNL     1       1.249  13.065  -4.870  0.00  0.00    +0.169 HD
ENDROOT
BRANCH   1  13
ATOM     13  C   UNL     1       0.685  10.862  -5.980  0.00  0.00    +0.135 C 
BRANCH  13  15
ATOM     14  C   UNL     1      -0.446  10.116  -8.079  0.00  0.00    +0.039 C 
ATOM     15  C   UNL     1       0.239   9.646  -6.794  0.00  0.00    +0.128 C 
BRANCH  15  16
ATOM     16  O   UNL     1      -0.678   8.867  -6.023  0.00  0.00    -0.391 OA
ATOM     17  H   UNL     1      -0.362   8.441  -5.059  0.00  0.00    +0.210 HD
ENDBRANCH  15  16
ENDBRANCH  13  15
ENDBRANCH   1  13
BRANCH  10  18
ATOM     18  C   UNL     1       3.037   9.699  -2.338  0.00  0.00    +0.220 C 
BRANCH  18  19
ATOM     19  C   UNL     1       1.964   9.178  -1.417  0.00  0.00    +0.233 C 
ATOM     20  O   UNL     1       0.991   9.858  -1.173  0.00  0.00    -0.274 OA
ATOM     21  N   UNL     1       2.087   7.954  -0.865  0.00  0.00    -0.307 N 
ATOM     22  H   UNL     1       2.970   7.337  -1.086  0.00  0.00    +0.149 HD
BRANCH  21  23
ATOM     23  C   UNL     1       1.044   7.447   0.030  0.00  0.00    +0.100 C 
ATOM     24  C   UNL     1       1.300   7.953   1.451  0.00  0.00    +0.033 C 
BRANCH  23  25
ATOM     25  C   UNL     1       1.064   5.940   0.022  0.00  0.00    -0.027 A 
ATOM     26  C   UNL     1       2.286   5.270   0.007  0.00  0.00    +0.006 A 
ATOM     27  C   UNL     1       2.340   3.910   0.001  0.00  0.00    +0.009 A 
ATOM     28  C   UNL     1       1.147   3.167   0.008  0.00  0.00    -0.018 A 
ATOM     29  C   UNL     1       1.163   1.762   0.000  0.00  0.00    +0.008 A 
ATOM     30  C   UNL     1      -0.013   1.076   0.008  0.00  0.00    +0.001 A 
ATOM     31  C   UNL     1      -1.235   1.746   0.017  0.00  0.00    +0.001 A 
ATOM     32  C   UNL     1      -1.288   3.106   0.031  0.00  0.00    +0.008 A 
ATOM     33  C   UNL     1      -0.096   3.849   0.023  0.00  0.00    -0.018 A 
ATOM     34  C   UNL     1      -0.111   5.254   0.030  0.00  0.00    +0.014 A 
ENDBRANCH  23  25
ENDBRANCH  21  23
ENDBRANCH  18  19
ENDBRANCH  10  18
TORSDOF 7
