REMARK  Name = ZINC14932505
REMARK  6 active torsions:
REMARK  status: ('A' for Active; 'I' for Inactive)
REMARK    1  A    between atoms: C_1  and  C_2
REMARK    2  A    between atoms: C_2  and  C_4
REMARK    3  A    between atoms: C_2  and  N_49
REMARK    4  A    between atoms: N_6  and  C_7
REMARK    5  A    between atoms: N_16  and  S_19
REMARK    6  A    between atoms: S_19  and  C_22
REMARK                            x       y       z     vdW  Elec       q    Type
REMARK                         _______ _______ _______ _____ _____    ______ ____
ROOT
ATOM      1  C   UNL     1      -0.773   3.061  -1.189  0.00  0.00    -0.060 C 
ATOM      2  C   UNL     1      -1.359   3.534  -2.523  0.00  0.00    +0.091 C 
ATOM      3  N   UNL     1      -2.656   2.871  -2.727  0.00  0.00    -0.180 NA
ATOM      4  C   UNL     1      -2.718   1.408  -2.588  0.00  0.00    +0.091 C 
ATOM      5  C   UNL     1      -2.079   1.018  -1.251  0.00  0.00    -0.060 C 
ATOM      6  N   UNL     1      -0.713   1.583  -1.195  0.00  0.00    +0.389 N 
ATOM      7  H   UNL     1      -0.191   1.274  -2.024  0.00  0.00    -0.081 HD
ENDROOT
BRANCH   3   8
ATOM      8  S   UNL     1      -4.010   3.748  -3.101  0.00  0.00    +0.064 S 
ATOM      9  O   UNL     1      -3.558   4.956  -3.697  0.00  0.00    -0.153 OA
ATOM     10  O   UNL     1      -4.899   2.858  -3.762  0.00  0.00    -0.153 OA
BRANCH   8  11
ATOM     11  C   UNL     1      -4.779   4.193  -1.580  0.00  0.00    +0.142 A 
ATOM     12  C   UNL     1      -5.731   3.362  -1.017  0.00  0.00    +0.069 A 
ATOM     13  C   UNL     1      -6.332   3.710   0.179  0.00  0.00    +0.022 A 
ATOM     14  C   UNL     1      -5.989   4.893   0.807  0.00  0.00    +0.003 A 
ATOM     15  C   UNL     1      -5.042   5.726   0.242  0.00  0.00    +0.022 A 
ATOM     16  C   UNL     1      -4.437   5.377  -0.952  0.00  0.00    +0.069 A 
ATOM     17 CL   UNL     1      -3.248   6.424  -1.662  0.00  0.00    -0.081 Cl
ATOM     18 CL   UNL     1      -6.167   1.879  -1.808  0.00  0.00    -0.081 Cl
ENDBRANCH   8  11
ENDBRANCH   3   8
BRANCH   6  20
ATOM     19  C   UNL     1      -0.726   1.600   1.278  0.00  0.00    -0.004 C 
ATOM     20  C   UNL     1      -0.018   1.101   0.017  0.00  0.00    +0.017 C 
BRANCH  20  21
ATOM     21  C   UNL     1       1.400   1.613   0.000  0.00  0.00    +0.203 C 
ATOM     22  O   UNL     1       1.780   2.317  -0.911  0.00  0.00    -0.277 OA
ATOM     23  N   UNL     1       2.245   1.288   0.998  0.00  0.00    -0.286 N 
ATOM     24  H   UNL     1       1.924   0.779   1.759  0.00  0.00    +0.155 HD
BRANCH  23  25
ATOM     25  C   UNL     1       3.586   1.684   0.937  0.00  0.00    +0.052 A 
ATOM     26  C   UNL     1       3.926   2.900   0.359  0.00  0.00    +0.025 A 
ATOM     27  C   UNL     1       5.250   3.291   0.305  0.00  0.00    +0.002 A 
ATOM     28  C   UNL     1       6.237   2.468   0.815  0.00  0.00    +0.002 A 
ATOM     29  C   UNL     1       5.903   1.254   1.386  0.00  0.00    +0.022 A 
ATOM     30  C   UNL     1       4.580   0.859   1.449  0.00  0.00    +0.062 A 
ATOM     31 CL   UNL     1       4.161  -0.665   2.165  0.00  0.00    -0.082 Cl
ENDBRANCH  23  25
ENDBRANCH  20  21
ENDBRANCH   6  20
TORSDOF 5
