REMARK  Name = ZINC29323556
REMARK  10 active torsions:
REMARK  status: ('A' for Active; 'I' for Inactive)
REMARK    1  A    between atoms: C_1  and  C_2
REMARK    2  A    between atoms: C_5  and  S_8
REMARK    3  A    between atoms: S_8  and  N_11
REMARK    4  A    between atoms: N_11  and  C_12
REMARK    5  A    between atoms: C_12  and  C_13
REMARK    6  A    between atoms: C_13  and  N_14
REMARK    7  A    between atoms: N_17  and  C_18
REMARK    8  A    between atoms: C_18  and  C_19
REMARK    9  A    between atoms: C_19  and  C_21
REMARK   10  A    between atoms: C_19  and  N_26
REMARK                            x       y       z     vdW  Elec       q    Type
REMARK                         _______ _______ _______ _____ _____    ______ ____
ROOT
ATOM      1  N   UNL     1       4.626  -5.189   2.218  0.00  0.00    -0.298 N 
ATOM      2  C   UNL     1       5.848  -5.753   2.285  0.00  0.00    +0.300 C 
ATOM      3  O   UNL     1       6.250  -6.446   1.370  0.00  0.00    -0.253 OA
ATOM      4  N   UNL     1       6.625  -5.549   3.368  0.00  0.00    -0.301 N 
ATOM      5  H   UNL     1       4.306  -4.636   2.948  0.00  0.00    +0.150 HD
ATOM      6  H   UNL     1       6.305  -4.996   4.098  0.00  0.00    +0.150 HD
ENDROOT
BRANCH   1   7
ATOM      7  C   UNL     1       3.781  -5.410   1.041  0.00  0.00    +0.122 C 
BRANCH   7   8
ATOM      8  C   UNL     1       2.457  -4.665   1.217  0.00  0.00    +0.124 C 
BRANCH   8   9
ATOM      9  N   UNL     1       1.612  -4.886   0.041  0.00  0.00    -0.188 NA
ATOM     10  H   UNL     1       1.998  -5.247  -0.773  0.00  0.00    +0.148 HD
BRANCH   9  11
ATOM     11  S   UNL     1      -0.002  -4.521   0.100  0.00  0.00    +0.058 S 
ATOM     12  O   UNL     1      -0.509  -5.112   1.289  0.00  0.00    -0.153 OA
ATOM     13  O   UNL     1      -0.533  -4.817  -1.185  0.00  0.00    -0.153 OA
BRANCH  11  18
ATOM     14  C   UNL     1      -0.457   1.453   0.815  0.00  0.00    +0.044 C 
ATOM     15  C   UNL     1      -0.343  -0.039   0.636  0.00  0.00    -0.050 A 
ATOM     16  C   UNL     1      -0.302  -0.582  -0.634  0.00  0.00    +0.005 A 
ATOM     17  C   UNL     1      -0.197  -1.950  -0.798  0.00  0.00    +0.029 A 
ATOM     18  C   UNL     1      -0.134  -2.776   0.309  0.00  0.00    +0.105 A 
ATOM     19  C   UNL     1      -0.175  -2.233   1.579  0.00  0.00    +0.029 A 
ATOM     20  C   UNL     1      -0.275  -0.864   1.743  0.00  0.00    +0.005 A 
ENDBRANCH  11  18
ENDBRANCH   9  11
ENDBRANCH   8   9
ENDBRANCH   7   8
ENDBRANCH   1   7
BRANCH   4  21
ATOM     21  C   UNL     1       7.954  -6.162   3.441  0.00  0.00    +0.098 C 
BRANCH  21  22
ATOM     22  C   UNL     1       8.662  -5.692   4.713  0.00  0.00    +0.016 C 
BRANCH  22  23
ATOM     23  N   UNL     1      10.041  -6.200   4.721  0.00  0.00    +0.387 N 
ATOM     24  C   UNL     1      10.802  -5.633   3.579  0.00  0.00    -0.078 C 
ATOM     25  C   UNL     1      12.278  -5.778   4.029  0.00  0.00    -0.020 C 
ATOM     26  C   UNL     1      12.208  -5.477   5.544  0.00  0.00    -0.020 C 
ATOM     27  C   UNL     1      10.745  -5.745   5.940  0.00  0.00    -0.078 C 
ATOM     28  H   UNL     1      10.042  -7.207   4.675  0.00  0.00    -0.081 HD
ENDBRANCH  22  23
BRANCH  22  29
ATOM     29  C   UNL     1       7.927  -6.216   5.920  0.00  0.00    +0.093 A 
ATOM     30  C   UNL     1       7.056  -5.521   6.673  0.00  0.00    +0.043 A 
ATOM     31  C   UNL     1       6.609  -6.393   7.692  0.00  0.00    +0.041 A 
ATOM     32  C   UNL     1       7.234  -7.569   7.501  0.00  0.00    +0.195 A 
ATOM     33  O   UNL     1       8.027  -7.457   6.423  0.00  0.00    -0.469 OA
ENDBRANCH  22  29
ENDBRANCH  21  22
ENDBRANCH   4  21
TORSDOF 9
