REMARK  Name = ZINC19172792
REMARK  12 active torsions:
REMARK  status: ('A' for Active; 'I' for Inactive)
REMARK    1  A    between atoms: C_1  and  C_2
REMARK    2  A    between atoms: C_5  and  S_8
REMARK    3  A    between atoms: S_8  and  C_9
REMARK    4  A    between atoms: C_9  and  C_11
REMARK    5  A    between atoms: C_9  and  C_12
REMARK    6  A    between atoms: N_14  and  N_15
REMARK    7  A    between atoms: C_16  and  C_18
REMARK    8  A    between atoms: C_22  and  S_24
REMARK    9  A    between atoms: S_24  and  N_27
REMARK   10  A    between atoms: N_27  and  C_28
REMARK   11  A    between atoms: C_33  and  O_34
REMARK   12  A    between atoms: O_34  and  C_35
REMARK                            x       y       z     vdW  Elec       q    Type
REMARK                         _______ _______ _______ _____ _____    ______ ____
ROOT
ATOM      1  C   UNL     1       0.899   1.797  -0.163  0.00  0.00    +0.040 A 
ATOM      2  C   UNL     1       0.978   3.190  -0.198  0.00  0.00    +0.013 A 
ATOM      3  C   UNL     1       2.201   3.805  -0.367  0.00  0.00    +0.003 A 
ATOM      4  C   UNL     1       3.347   3.043  -0.512  0.00  0.00    +0.029 A 
ATOM      5  C   UNL     1       3.276   1.662  -0.482  0.00  0.00    +0.109 A 
ATOM      6  C   UNL     1       2.059   1.035  -0.309  0.00  0.00    +0.042 A 
ENDROOT
BRANCH   1   8
ATOM      7  N   UNL     1      -1.527   1.871   0.158  0.00  0.00    -0.230 N 
ATOM      8  C   UNL     1      -0.408   1.132   0.023  0.00  0.00    +0.260 C 
ATOM      9  O   UNL     1      -0.474  -0.082   0.048  0.00  0.00    -0.269 OA
ATOM     10  H   UNL     1      -1.474   2.839   0.138  0.00  0.00    +0.173 HD
BRANCH   7  13
ATOM     11  C   UNL     1      -3.885   1.979   0.464  0.00  0.00    +0.242 C 
ATOM     12  O   UNL     1      -3.820   3.189   0.439  0.00  0.00    -0.273 OA
ATOM     13  N   UNL     1      -2.766   1.240   0.328  0.00  0.00    -0.233 N 
ATOM     14  H   UNL     1      -2.819   0.272   0.348  0.00  0.00    +0.173 HD
BRANCH  11  15
ATOM     15  C   UNL     1      -5.219   1.300   0.647  0.00  0.00    +0.135 C 
ATOM     16  C   UNL     1      -5.428   0.978   2.128  0.00  0.00    +0.029 C 
BRANCH  15  17
ATOM     17  S   UNL     1      -6.541   2.402   0.075  0.00  0.00    -0.113 S 
BRANCH  17  22
ATOM     18  C   UNL     1     -11.508  -1.016   0.346  0.00  0.00    +0.044 C 
ATOM     19  C   UNL     1     -10.269  -0.163   0.278  0.00  0.00    -0.050 A 
ATOM     20  C   UNL     1      -9.948   0.673   1.333  0.00  0.00    +0.004 A 
ATOM     21  C   UNL     1      -8.812   1.456   1.274  0.00  0.00    +0.015 A 
ATOM     22  C   UNL     1      -7.991   1.405   0.154  0.00  0.00    +0.009 A 
ATOM     23  C   UNL     1      -8.320   0.568  -0.906  0.00  0.00    +0.015 A 
ATOM     24  C   UNL     1      -9.454  -0.216  -0.838  0.00  0.00    +0.004 A 
ENDBRANCH  17  22
ENDBRANCH  15  17
ENDBRANCH  11  15
ENDBRANCH   7  13
ENDBRANCH   1   8
BRANCH   5  25
ATOM     25  S   UNL     1       4.741   0.702  -0.668  0.00  0.00    +0.072 S 
ATOM     26  O   UNL     1       5.824   1.532  -0.270  0.00  0.00    -0.150 OA
ATOM     27  O   UNL     1       4.482  -0.556  -0.059  0.00  0.00    -0.150 OA
BRANCH  25  28
ATOM     28  N   UNL     1       4.937   0.413  -2.287  0.00  0.00    -0.213 N 
ATOM     29  H   UNL     1       4.945  -0.498  -2.619  0.00  0.00    +0.174 HD
BRANCH  28  30
ATOM     30  C   UNL     1       5.089   1.484  -3.175  0.00  0.00    +0.090 A 
ATOM     31  C   UNL     1       5.785   2.619  -2.783  0.00  0.00    +0.028 A 
ATOM     32  C   UNL     1       5.939   3.673  -3.664  0.00  0.00    +0.002 A 
ATOM     33  C   UNL     1       5.392   3.604  -4.932  0.00  0.00    +0.004 A 
ATOM     34  C   UNL     1       4.692   2.479  -5.327  0.00  0.00    +0.047 A 
ATOM     35  C   UNL     1       4.538   1.416  -4.452  0.00  0.00    +0.142 A 
BRANCH  35  36
ATOM     36  O   UNL     1       3.850   0.309  -4.840  0.00  0.00    -0.493 OA
ATOM     37  C   UNL     1       3.312   0.309  -6.164  0.00  0.00    +0.277 C 
ENDBRANCH  35  36
ENDBRANCH  28  30
ENDBRANCH  25  28
ENDBRANCH   5  25
TORSDOF 9
