REMARK  Name = ZINC05740673
REMARK  8 active torsions:
REMARK  status: ('A' for Active; 'I' for Inactive)
REMARK    1  A    between atoms: C_1  and  C_2
REMARK    2  A    between atoms: C_6  and  C_7
REMARK    3  A    between atoms: C_7  and  C_9
REMARK    4  A    between atoms: C_7  and  N_21
REMARK    5  A    between atoms: C_15  and  C_20
REMARK    6  A    between atoms: C_18  and  O_19
REMARK    7  A    between atoms: N_21  and  C_22
REMARK    8  A    between atoms: C_26  and  C_27
REMARK                            x       y       z     vdW  Elec       q    Type
REMARK                         _______ _______ _______ _____ _____    ______ ____
ROOT
ATOM      1  C   UNL     1       0.345   3.138   7.005  0.00  0.00    +0.143 C 
ENDROOT
BRANCH   1   2
ATOM      2  C   UNL     1      -0.535   2.778   5.836  0.00  0.00    +0.021 A 
ATOM      3  C   UNL     1      -1.200   1.554   5.830  0.00  0.00    +0.010 A 
ATOM      4  C   UNL     1      -2.002   1.199   4.788  0.00  0.00    +0.010 A 
ATOM      5  C   UNL     1      -2.164   2.076   3.703  0.00  0.00    +0.004 A 
ATOM      6  C   UNL     1      -2.985   1.744   2.609  0.00  0.00    +0.012 A 
ATOM      7  C   UNL     1      -3.101   2.648   1.592  0.00  0.00    +0.023 A 
ATOM      8  C   UNL     1      -2.407   3.855   1.653  0.00  0.00    +0.039 A 
ATOM      9  N   UNL     1      -1.643   4.160   2.674  0.00  0.00    -0.248 NA
ATOM     10  C   UNL     1      -1.492   3.322   3.703  0.00  0.00    +0.113 A 
ATOM     11  C   UNL     1      -0.669   3.657   4.799  0.00  0.00    +0.148 A 
ATOM     12  C   UNL     1      -2.543   4.838   0.519  0.00  0.00    +0.065 C 
BRANCH  11  13
ATOM     13  O   UNL     1      -0.013   4.846   4.824  0.00  0.00    -0.504 OA
ATOM     14  H   UNL     1      -0.515   5.563   5.236  0.00  0.00    +0.292 HD
ENDBRANCH  11  13
ENDBRANCH   1   2
BRANCH   1  20
ATOM     15  C   UNL     1       2.986   1.571   7.061  0.00  0.00    +0.044 C 
ATOM     16  C   UNL     1       1.781   1.173   7.875  0.00  0.00    -0.038 A 
ATOM     17  C   UNL     1       1.825   0.061   8.694  0.00  0.00    +0.011 A 
ATOM     18  C   UNL     1       0.724  -0.270   9.412  0.00  0.00    +0.046 A 
ATOM     19  S   UNL     1      -0.424   1.015   8.941  0.00  0.00    -0.099 S 
ATOM     20  C   UNL     1       0.639   1.900   7.813  0.00  0.00    +0.017 A 
ENDBRANCH   1  20
BRANCH   1  21
ATOM     21  N   UNL     1      -0.342   4.120   7.849  0.00  0.00    -0.319 N 
ATOM     22  H   UNL     1      -1.310   4.180   7.834  0.00  0.00    +0.148 HD
BRANCH  21  23
ATOM     23  C   UNL     1       0.394   4.964   8.673  0.00  0.00    +0.097 A 
ATOM     24  C   UNL     1       1.782   4.872   8.690  0.00  0.00    +0.041 A 
ATOM     25  C   UNL     1       2.502   5.718   9.514  0.00  0.00    +0.005 A 
ATOM     26  C   UNL     1       1.807   6.631  10.296  0.00  0.00    +0.021 A 
ATOM     27  C   UNL     1       0.429   6.668  10.228  0.00  0.00    +0.014 A 
ATOM     28  C   UNL     1      -0.331   7.657  11.074  0.00  0.00    +0.063 C 
ATOM     29  N   UNL     1      -0.311   5.856   9.426  0.00  0.00    -0.347 N 
ATOM     30  H   UNL     1      -1.335   5.912   9.390  0.00  0.00    +0.167 HD
ENDBRANCH  21  23
ENDBRANCH   1  21
TORSDOF 5
