REMARK  Name = ZINC20533532
REMARK  6 active torsions:
REMARK  status: ('A' for Active; 'I' for Inactive)
REMARK    1  A    between atoms: C_1  and  C_2
REMARK    2  A    between atoms: C_16  and  C_19
REMARK    3  A    between atoms: C_19  and  C_20
REMARK    4  A    between atoms: C_20  and  C_21
REMARK    5  A    between atoms: N_26  and  C_29
REMARK    6  A    between atoms: C_33  and  N_35
REMARK                            x       y       z     vdW  Elec       q    Type
REMARK                         _______ _______ _______ _____ _____    ______ ____
ROOT
ATOM      1  C   UNL     1      -0.018   1.503   0.010  0.00  0.00    +0.047 C 
ATOM      2  C   UNL     1       0.002  -0.004   0.002  0.00  0.00    -0.011 A 
ATOM      3  C   UNL     1       0.006  -0.686  -1.199  0.00  0.00    +0.046 A 
ATOM      4  C   UNL     1       0.024  -2.069  -1.216  0.00  0.00    +0.021 A 
ATOM      5  C   UNL     1       0.040  -2.772  -0.024  0.00  0.00    +0.009 A 
ATOM      6  C   UNL     1       0.037  -2.097   1.175  0.00  0.00    +0.004 A 
ATOM      7  C   UNL     1       0.023  -0.704   1.205  0.00  0.00    +0.043 A 
ATOM      8  N   UNL     1       0.029  -0.249   2.526  0.00  0.00    -0.283 N 
ATOM      9  C   UNL     1       0.054  -1.264   3.412  0.00  0.00    +0.243 C 
ATOM     10  O   UNL     1       0.066  -1.169   4.621  0.00  0.00    -0.273 OA
ATOM     11  C   UNL     1       0.050  -2.536   2.611  0.00  0.00    +0.136 C 
ATOM     12  C   UNL     1       1.229  -3.427   2.944  0.00  0.00    +0.123 C 
ATOM     13  C   UNL     1       0.655  -4.004   4.296  0.00  0.00    +0.107 C 
ATOM     14  C   UNL     1      -0.720  -4.391   3.953  0.00  0.00    +0.068 C 
ATOM     15  N   UNL     1      -1.144  -3.369   2.924  0.00  0.00    -0.295 NA
ATOM     16  C   UNL     1       1.838  -4.554   4.913  0.00  0.00    +0.232 C 
ATOM     17  O   UNL     1       1.914  -5.538   5.617  0.00  0.00    -0.274 OA
ATOM     18  N   UNL     1       2.857  -3.720   4.528  0.00  0.00    -0.210 N 
ATOM     19  C   UNL     1       2.501  -2.868   3.502  0.00  0.00    +0.233 C 
ATOM     20  O   UNL     1       3.086  -1.874   3.130  0.00  0.00    -0.274 OA
ATOM     21 CL   UNL     1      -0.014   0.197  -2.694  0.00  0.00    -0.083 Cl
ATOM     22  H   UNL     1       0.017   0.688   2.776  0.00  0.00    +0.155 HD
ATOM     23  H   UNL     1      -1.904  -2.798   3.262  0.00  0.00    +0.123 HD
ENDROOT
BRANCH  18  24
ATOM     24  C   UNL     1       4.134  -3.736   5.106  0.00  0.00    +0.046 A 
ATOM     25  C   UNL     1       5.110  -2.853   4.663  0.00  0.00    +0.024 A 
ATOM     26  C   UNL     1       6.367  -2.872   5.235  0.00  0.00    +0.004 A 
ATOM     27  C   UNL     1       6.654  -3.768   6.248  0.00  0.00    +0.033 A 
ATOM     28  C   UNL     1       5.684  -4.649   6.691  0.00  0.00    +0.128 A 
ATOM     29  C   UNL     1       4.423  -4.631   6.127  0.00  0.00    +0.056 A 
BRANCH  28  30
ATOM     30  N   UNL     1       5.996  -5.607   7.776  0.00  0.00    +0.056 N 
ATOM     31  O   UNL     1       7.097  -5.620   8.274  0.00  0.00    -0.126 OA
ATOM     32  O   UNL     1       5.148  -6.377   8.164  0.00  0.00    -0.126 OA
ENDBRANCH  28  30
ENDBRANCH  18  24
BRANCH  14  33
ATOM     33  C   UNL     1      -0.748  -5.808   3.377  0.00  0.00    +0.028 C 
BRANCH  33  34
ATOM     34  C   UNL     1      -2.199  -6.235   3.144  0.00  0.00    +0.097 C 
BRANCH  34  35
ATOM     35  C   UNL     1      -2.227  -7.631   2.577  0.00  0.00    +0.211 C 
ATOM     36  O   UNL     1      -1.188  -8.226   2.380  0.00  0.00    -0.276 OA
ATOM     37  N   UNL     1      -3.405  -8.219   2.290  0.00  0.00    -0.329 N 
ATOM     38  H   UNL     1      -4.235  -7.743   2.448  0.00  0.00    +0.145 HD
ATOM     39  H   UNL     1      -3.423  -9.117   1.925  0.00  0.00    +0.145 HD
ENDBRANCH  34  35
ENDBRANCH  33  34
ENDBRANCH  14  33
TORSDOF 5
