REMARK  Name = ZINC61820916
REMARK  2 active torsions:
REMARK  status: ('A' for Active; 'I' for Inactive)
REMARK    1  A    between atoms: C_12  and  C_14
REMARK    2  A    between atoms: C_17  and  O_21
REMARK                            x       y       z     vdW  Elec       q    Type
REMARK                         _______ _______ _______ _____ _____    ______ ____
ROOT
ATOM      1  C   UNL     1      -0.019   1.526   0.010  0.00  0.00    +0.000 C 
ATOM      2  C   UNL     1       1.417   2.055  -0.000  0.00  0.00    +0.001 C 
ATOM      3  C   UNL     1       2.156   1.548   1.240  0.00  0.00    +0.007 C 
ATOM      4  C   UNL     1       2.177   0.018   1.233  0.00  0.00    -0.026 C 
ATOM      5  C   UNL     1       0.741  -0.511   1.242  0.00  0.00    +0.007 C 
ATOM      6  C   UNL     1       0.002  -0.004   0.002  0.00  0.00    +0.001 C 
ATOM      7  C   UNL     1       2.895  -0.476  -0.025  0.00  0.00    +0.026 C 
ATOM      8  C   UNL     1       2.887  -2.008  -0.044  0.00  0.00    +0.108 C 
ATOM      9  N   UNL     1       3.464  -2.501   1.214  0.00  0.00    -0.303 N 
ATOM     10  C   UNL     1       2.905  -2.018   2.484  0.00  0.00    +0.108 C 
ATOM     11  C   UNL     1       2.914  -0.486   2.476  0.00  0.00    +0.026 C 
ATOM     12  C   UNL     1       4.487  -3.379   1.203  0.00  0.00    +0.202 C 
ATOM     13  O   UNL     1       4.939  -3.770   0.148  0.00  0.00    -0.277 OA
ENDROOT
BRANCH  12  14
ATOM     14  C   UNL     1       5.068  -3.874   2.502  0.00  0.00    +0.019 C 
ATOM     15  C   UNL     1       6.088  -2.855   3.069  0.00  0.00    +0.023 C 
ATOM     16  C   UNL     1       6.994  -3.733   3.963  0.00  0.00    +0.097 C 
ATOM     17  C   UNL     1       6.819  -5.166   3.428  0.00  0.00    -0.050 C 
ATOM     18  N   UNL     1       5.888  -5.093   2.279  0.00  0.00    +0.388 N 
ATOM     19  H   UNL     1       5.296  -5.910   2.254  0.00  0.00    -0.085 HD
ATOM     20  H   UNL     1       6.406  -5.010   1.417  0.00  0.00    -0.085 HD
BRANCH  16  21
ATOM     21  O   UNL     1       6.571  -3.656   5.326  0.00  0.00    -0.394 OA
ATOM     22  H   UNL     1       7.103  -4.187   5.934  0.00  0.00    +0.210 HD
ENDBRANCH  16  21
ENDBRANCH  12  14
TORSDOF 2
