REMARK  Name = ZINC59935803
REMARK  5 active torsions:
REMARK  status: ('A' for Active; 'I' for Inactive)
REMARK    1  A    between atoms: C_3  and  C_21
REMARK    2  A    between atoms: C_5  and  N_7
REMARK    3  A    between atoms: C_8  and  C_10
REMARK    4  A    between atoms: C_21  and  N_22
REMARK    5  A    between atoms: C_26  and  C_28
REMARK                            x       y       z     vdW  Elec       q    Type
REMARK                         _______ _______ _______ _____ _____    ______ ____
ROOT
ATOM      1  C   UNL     1      -0.028   1.373  -0.013  0.00  0.00    +0.002 A 
ATOM      2  C   UNL     1       1.157   2.086  -0.018  0.00  0.00    +0.002 A 
ATOM      3  C   UNL     1       2.368   1.419  -0.023  0.00  0.00    -0.062 A 
ATOM      4  C   UNL     1       2.399   0.038  -0.025  0.00  0.00    +0.025 A 
ATOM      5  C   UNL     1       1.211  -0.681  -0.020  0.00  0.00    +0.034 A 
ATOM      6  C   UNL     1      -0.005  -0.008  -0.014  0.00  0.00    +0.023 A 
ENDROOT
BRANCH   5   7
ATOM      7  N   UNL     1       1.238  -2.079  -0.021  0.00  0.00    -0.281 N 
ATOM      8  C   UNL     1       0.299  -2.772   0.653  0.00  0.00    +0.255 C 
ATOM      9  O   UNL     1      -0.620  -2.185   1.194  0.00  0.00    -0.269 OA
ATOM     10  H   UNL     1       1.932  -2.550  -0.508  0.00  0.00    +0.155 HD
BRANCH   8  11
ATOM     11  C   UNL     1       0.385  -4.232   0.736  0.00  0.00    +0.075 A 
ATOM     12  C   UNL     1      -0.461  -5.121   1.363  0.00  0.00    +0.024 A 
ATOM     13  C   UNL     1      -0.118  -6.475   1.302  0.00  0.00    -0.036 A 
ATOM     14  C   UNL     1       1.031  -6.785   0.672  0.00  0.00    -0.006 A 
ATOM     15  S   UNL     1       1.606  -5.330   0.047  0.00  0.00    -0.088 S 
ATOM     16  C   UNL     1       1.804  -8.074   0.539  0.00  0.00    +0.043 C 
ATOM     17  C   UNL     1       1.140  -9.230   1.288  0.00  0.00    +0.005 C 
ATOM     18  C   UNL     1      -0.015  -9.805   0.485  0.00  0.00    +0.000 C 
ATOM     19  C   UNL     1      -0.808  -8.743  -0.250  0.00  0.00    +0.000 C 
ATOM     20  C   UNL     1      -1.827  -8.181   0.747  0.00  0.00    +0.005 C 
ATOM     21  C   UNL     1      -1.076  -7.500   1.891  0.00  0.00    +0.036 C 
ENDBRANCH   8  11
ENDBRANCH   5   7
BRANCH   3  22
ATOM     22  C   UNL     1       3.657   2.201  -0.029  0.00  0.00    -0.042 C 
BRANCH  22  23
ATOM     23  N   UNL     1       4.082   2.454   1.354  0.00  0.00    +0.390 N 
ATOM     24  C   UNL     1       4.494   1.183   2.004  0.00  0.00    -0.077 C 
ATOM     25  C   UNL     1       5.406   1.658   3.164  0.00  0.00    -0.020 C 
ATOM     26  C   UNL     1       6.161   2.855   2.542  0.00  0.00    -0.008 C 
ATOM     27  C   UNL     1       5.280   3.321   1.369  0.00  0.00    +0.019 C 
ATOM     28  H   UNL     1       3.334   2.885   1.875  0.00  0.00    -0.080 HD
BRANCH  27  29
ATOM     29  C   UNL     1       4.871   4.757   1.573  0.00  0.00    +0.197 C 
ATOM     30  O   UNL     1       3.699   5.043   1.696  0.00  0.00    -0.278 OA
ATOM     31  N   UNL     1       5.809   5.725   1.619  0.00  0.00    -0.331 N 
ATOM     32  H   UNL     1       6.746   5.497   1.521  0.00  0.00    +0.145 HD
ATOM     33  H   UNL     1       5.545   6.649   1.751  0.00  0.00    +0.145 HD
ENDBRANCH  27  29
ENDBRANCH  22  23
ENDBRANCH   3  22
TORSDOF 5
