REMARK  Name = ZINC32971073
REMARK  8 active torsions:
REMARK  status: ('A' for Active; 'I' for Inactive)
REMARK    1  A    between atoms: C_1  and  O_2
REMARK    2  A    between atoms: O_2  and  C_3
REMARK    3  A    between atoms: C_6  and  C_9
REMARK    4  A    between atoms: C_10  and  C_20
REMARK    5  A    between atoms: N_12  and  C_14
REMARK    6  A    between atoms: N_22  and  C_23
REMARK    7  A    between atoms: C_27  and  S_29
REMARK    8  A    between atoms: S_29  and  N_32
REMARK                            x       y       z     vdW  Elec       q    Type
REMARK                         _______ _______ _______ _____ _____    ______ ____
ROOT
ATOM      1  C   UNL     1       5.120  -0.847  -4.157  0.00  0.00    +0.252 C 
ATOM      2  O   UNL     1       4.904  -0.141  -5.124  0.00  0.00    -0.270 OA
ATOM      3  N   UNL     1       4.588  -0.531  -2.960  0.00  0.00    -0.281 N 
ATOM      4  H   UNL     1       4.845  -1.125  -2.070  0.00  0.00    +0.155 HD
ENDROOT
BRANCH   3   5
ATOM      5  C   UNL     1       3.710   0.552  -2.849  0.00  0.00    +0.036 A 
ATOM      6  C   UNL     1       3.899   1.685  -3.630  0.00  0.00    +0.023 A 
ATOM      7  C   UNL     1       3.030   2.752  -3.518  0.00  0.00    +0.004 A 
ATOM      8  C   UNL     1       1.973   2.695  -2.627  0.00  0.00    +0.029 A 
ATOM      9  C   UNL     1       1.783   1.569  -1.847  0.00  0.00    +0.110 A 
ATOM     10  C   UNL     1       2.651   0.500  -1.952  0.00  0.00    +0.052 A 
BRANCH   9  11
ATOM     11  S   UNL     1       0.436   1.502  -0.713  0.00  0.00    +0.073 S 
ATOM     12  O   UNL     1       0.094   2.847  -0.408  0.00  0.00    -0.150 OA
ATOM     13  O   UNL     1       0.796   0.561   0.289  0.00  0.00    -0.150 OA
BRANCH  11  14
ATOM     14  N   UNL     1      -0.855   0.857  -1.525  0.00  0.00    -0.205 N 
ATOM     15  C   UNL     1      -0.806  -0.437  -1.973  0.00  0.00    +0.088 C 
ATOM     16  N   UNL     1       0.197  -1.227  -1.811  0.00  0.00    -0.375 N 
ATOM     17  C   UNL     1      -0.038  -2.552  -2.395  0.00  0.00    +0.114 C 
ATOM     18  C   UNL     1      -1.241  -2.367  -3.349  0.00  0.00    +0.028 C 
ATOM     19  C   UNL     1      -1.926  -1.128  -2.719  0.00  0.00    +0.072 C 
ATOM     20  H   UNL     1      -1.753   1.468  -1.704  0.00  0.00    +0.175 HD
ATOM     21  H   UNL     1       1.095  -0.874  -1.283  0.00  0.00    +0.161 HD
ENDBRANCH  11  14
ENDBRANCH   9  11
ENDBRANCH   3   5
BRANCH   1  23
ATOM     22  C   UNL     1       6.613  -2.527  -5.519  0.00  0.00    +0.105 A 
ATOM     23  C   UNL     1       5.963  -2.046  -4.295  0.00  0.00    +0.083 A 
ATOM     24  C   UNL     1       6.303  -2.937  -3.297  0.00  0.00    +0.128 A 
ATOM     25  N   UNL     1       7.081  -3.888  -3.842  0.00  0.00    -0.239 N 
ATOM     26  N   UNL     1       7.265  -3.623  -5.202  0.00  0.00    -0.166 NA
BRANCH  22  30
ATOM     27  C   UNL     1       6.425  -0.717  -9.362  0.00  0.00    +0.120 A 
ATOM     28  C   UNL     1       7.591  -1.349  -8.950  0.00  0.00    +0.046 A 
ATOM     29  C   UNL     1       7.655  -1.937  -7.705  0.00  0.00    +0.013 A 
ATOM     30  C   UNL     1       6.548  -1.896  -6.858  0.00  0.00    +0.003 A 
ATOM     31  C   UNL     1       5.376  -1.266  -7.277  0.00  0.00    +0.013 A 
ATOM     32  C   UNL     1       5.320  -0.675  -8.522  0.00  0.00    +0.046 A 
BRANCH  27  34
ATOM     33  C   UNL     1       5.135   0.494 -10.950  0.00  0.00    +0.277 C 
ATOM     34  O   UNL     1       6.365  -0.139 -10.590  0.00  0.00    -0.495 OA
ENDBRANCH  27  34
ENDBRANCH  22  30
BRANCH  25  35
ATOM     35  C   UNL     1       7.628  -4.977  -3.151  0.00  0.00    +0.065 A 
ATOM     36  C   UNL     1       7.380  -5.135  -1.793  0.00  0.00    +0.028 A 
ATOM     37  C   UNL     1       7.916  -6.212  -1.116  0.00  0.00    +0.002 A 
ATOM     38  C   UNL     1       8.709  -7.127  -1.785  0.00  0.00    +0.000 A 
ATOM     39  C   UNL     1       8.963  -6.969  -3.135  0.00  0.00    +0.002 A 
ATOM     40  C   UNL     1       8.425  -5.897  -3.820  0.00  0.00    +0.028 A 
ENDBRANCH  25  35
ENDBRANCH   1  23
TORSDOF 7
