REMARK  Name = ZINC08475419
REMARK  13 active torsions:
REMARK  status: ('A' for Active; 'I' for Inactive)
REMARK    1  A    between atoms: C_1  and  C_2
REMARK    2  A    between atoms: C_2  and  N_46
REMARK    3  A    between atoms: C_3  and  C_4
REMARK    4  A    between atoms: C_3  and  N_46
REMARK    5  A    between atoms: C_5  and  C_6
REMARK    6  A    between atoms: C_5  and  N_46
REMARK    7  A    between atoms: C_6  and  C_7
REMARK    8  A    between atoms: C_7  and  N_48
REMARK    9  A    between atoms: CA_8  and  C_10
REMARK   10  A    between atoms: CA_8  and  C_22
REMARK   11  A    between atoms: CA_8  and  N_48
REMARK   12  A    between atoms: C_10  and  C_11
REMARK   13  A    between atoms: N_13  and  C_14
REMARK                            x       y       z     vdW  Elec       q    Type
REMARK                         _______ _______ _______ _____ _____    ______ ____
ROOT
ATOM      1  CA  UNL     1      -1.272   4.276   0.634  0.00  0.00    +0.052 C 
ENDROOT
BRANCH   1   2
ATOM      2  C   UNL     1      -1.826   3.586  -0.586  0.00  0.00    +0.343 C 
ATOM      3  O   UNL     1      -1.571   2.423  -0.791  0.00  0.00    -0.248 OA
ATOM      4  OXT UNL     1      -2.603   4.264  -1.446  0.00  0.00    -0.248 OA
ENDBRANCH   1   2
BRANCH   1   5
ATOM      5  N   UNL     1      -0.464   3.321   1.415  0.00  0.00    +0.388 N 
ATOM      6  H1  UNL     1      -0.443   3.619   2.397  0.00  0.00    -0.085 HD
ATOM      7  H2  UNL     1      -0.886   2.387   1.350  0.00  0.00    -0.085 HD
BRANCH   5   8
ATOM      8  C   UNL     1       0.915   3.268   0.893  0.00  0.00    -0.083 C 
BRANCH   8   9
ATOM      9  C   UNL     1       1.727   2.271   1.721  0.00  0.00    -0.038 C 
BRANCH   9  10
ATOM     10  C   UNL     1       3.159   2.211   1.186  0.00  0.00    -0.081 C 
BRANCH  10  11
ATOM     11  N   UNL     1       3.936   1.260   2.009  0.00  0.00    +0.379 N 
ATOM     12  H   UNL     1       3.823   1.507   3.000  0.00  0.00    -0.082 HD
BRANCH  11  14
ATOM     13  C   UNL     1       3.590  -0.520   0.329  0.00  0.00    -0.017 C 
ATOM     14  C   UNL     1       3.439  -0.116   1.797  0.00  0.00    -0.082 C 
ENDBRANCH  11  14
BRANCH  11  15
ATOM     15  C   UNL     1       5.369   1.340   1.656  0.00  0.00    -0.082 C 
ATOM     16  C   UNL     1       6.181   0.599   2.721  0.00  0.00    -0.017 C 
ENDBRANCH  11  15
ENDBRANCH  10  11
ENDBRANCH   9  10
ENDBRANCH   8   9
ENDBRANCH   5   8
ENDBRANCH   1   5
BRANCH   1  17
ATOM     17  C   UNL     1      -2.426   4.785   1.500  0.00  0.00    +0.091 C 
BRANCH  17  18
ATOM     18  C   UNL     1      -1.874   5.580   2.655  0.00  0.00    +0.216 C 
ATOM     19  O   UNL     1      -0.675   5.726   2.774  0.00  0.00    -0.276 OA
ATOM     20  N   UNL     1      -2.712   6.129   3.557  0.00  0.00    -0.285 N 
ATOM     21  H   UNL     1      -3.664   5.953   3.504  0.00  0.00    +0.155 HD
BRANCH  20  22
ATOM     22  C   UNL     1      -2.208   6.954   4.569  0.00  0.00    +0.035 A 
ATOM     23  C   UNL     1      -2.809   6.965   5.821  0.00  0.00    +0.025 A 
ATOM     24  C   UNL     1      -2.307   7.774   6.821  0.00  0.00    +0.023 A 
ATOM     25  C   UNL     1      -1.212   8.584   6.572  0.00  0.00    +0.059 A 
ATOM     26  C   UNL     1      -0.614   8.579   5.324  0.00  0.00    +0.061 A 
ATOM     27  C   UNL     1      -1.109   7.766   4.322  0.00  0.00    +0.044 A 
ATOM     28 CL   UNL     1       0.760   9.595   5.016  0.00  0.00    -0.082 Cl
ATOM     29 CL   UNL     1      -0.588   9.606   7.829  0.00  0.00    -0.082 Cl
ENDBRANCH  20  22
ENDBRANCH  17  18
ENDBRANCH   1  17
TORSDOF 11
