REMARK  Name = ZINC21579618
REMARK  9 active torsions:
REMARK  status: ('A' for Active; 'I' for Inactive)
REMARK    1  A    between atoms: C_1  and  O_2
REMARK    2  A    between atoms: O_2  and  C_3
REMARK    3  A    between atoms: C_7  and  C_9
REMARK    4  A    between atoms: C_13  and  N_18
REMARK    5  A    between atoms: N_18  and  C_19
REMARK    6  A    between atoms: C_19  and  N_21
REMARK    7  A    between atoms: C_22  and  C_24
REMARK    8  A    between atoms: C_29  and  O_30
REMARK    9  A    between atoms: O_30  and  C_31
REMARK                            x       y       z     vdW  Elec       q    Type
REMARK                         _______ _______ _______ _____ _____    ______ ____
ROOT
ATOM      1  C   UNL     1       7.184  11.882  -0.155  0.00  0.00    +0.229 A 
ATOM      2  N   UNL     1       5.898  11.658  -0.073  0.00  0.00    -0.209 NA
ATOM      3  C   UNL     1       5.686  10.317  -0.084  0.00  0.00    +0.112 A 
ATOM      4  C   UNL     1       4.539   9.522  -0.027  0.00  0.00    +0.054 A 
ATOM      5  C   UNL     1       4.659   8.144  -0.056  0.00  0.00    +0.035 A 
ATOM      6  C   UNL     1       5.916   7.550  -0.153  0.00  0.00    +0.027 A 
ATOM      7  C   UNL     1       7.053   8.328  -0.215  0.00  0.00    +0.050 A 
ATOM      8  C   UNL     1       6.949   9.710  -0.182  0.00  0.00    +0.156 A 
ATOM      9  O   UNL     1       7.853  10.716  -0.223  0.00  0.00    -0.435 OA
ENDROOT
BRANCH   1  14
ATOM     10  C   UNL     1       9.779  14.600  -0.276  0.00  0.00    +0.121 A 
ATOM     11  C   UNL     1       8.982  15.734  -0.199  0.00  0.00    +0.045 A 
ATOM     12  C   UNL     1       7.608  15.615  -0.109  0.00  0.00    +0.004 A 
ATOM     13  C   UNL     1       7.019  14.367  -0.094  0.00  0.00    +0.013 A 
ATOM     14  C   UNL     1       7.812  13.221  -0.171  0.00  0.00    +0.040 A 
ATOM     15  C   UNL     1       9.199  13.343  -0.257  0.00  0.00    +0.058 A 
BRANCH  10  17
ATOM     16  C   UNL     1      11.661  16.049  -0.372  0.00  0.00    +0.277 C 
ATOM     17  O   UNL     1      11.130  14.723  -0.364  0.00  0.00    -0.495 OA
ENDBRANCH  10  17
ENDBRANCH   1  14
BRANCH   5  18
ATOM     18  N   UNL     1       3.512   7.343   0.006  0.00  0.00    -0.297 N 
ATOM     19  H   UNL     1       3.423   6.459  -0.642  0.00  0.00    +0.154 HD
BRANCH  18  20
ATOM     20  C   UNL     1       2.517   7.656   0.859  0.00  0.00    +0.141 C 
ATOM     21  S   UNL     1       2.713   8.947   1.967  0.00  0.00    -0.018 S 
BRANCH  20  22
ATOM     22  N   UNL     1       1.368   6.952   0.841  0.00  0.00    -0.263 N 
ATOM     23  C   UNL     1       0.373   7.265   1.695  0.00  0.00    +0.253 C 
ATOM     24  O   UNL     1       0.512   8.181   2.481  0.00  0.00    -0.270 OA
ATOM     25  H   UNL     1       1.242   6.123   0.130  0.00  0.00    +0.157 HD
BRANCH  23  26
ATOM     26  C   UNL     1      -0.885   6.495   1.675  0.00  0.00    +0.080 A 
ATOM     27  C   UNL     1      -1.049   5.440   0.773  0.00  0.00    +0.032 A 
ATOM     28  C   UNL     1      -2.227   4.725   0.760  0.00  0.00    +0.019 A 
ATOM     29  C   UNL     1      -3.248   5.043   1.642  0.00  0.00    +0.019 A 
ATOM     30  C   UNL     1      -3.101   6.086   2.534  0.00  0.00    +0.047 A 
ATOM     31  C   UNL     1      -1.922   6.817   2.561  0.00  0.00    +0.132 A 
ATOM     32 BR   UNL     1      -2.448   3.298  -0.461  0.00  0.00    -0.050 Br
BRANCH  31  33
ATOM     33  O   UNL     1      -1.774   7.838   3.441  0.00  0.00    -0.494 OA
ATOM     34  C   UNL     1      -2.873   8.108   4.313  0.00  0.00    +0.277 C 
ENDBRANCH  31  33
ENDBRANCH  23  26
ENDBRANCH  20  22
ENDBRANCH  18  20
ENDBRANCH   5  18
TORSDOF 7
