REMARK  Name = ZINC25493892
REMARK  8 active torsions:
REMARK  status: ('A' for Active; 'I' for Inactive)
REMARK    1  A    between atoms: C_1  and  N_2
REMARK    2  A    between atoms: N_5  and  C_6
REMARK    3  A    between atoms: C_6  and  C_8
REMARK    4  A    between atoms: C_6  and  O_12
REMARK    5  A    between atoms: O_12  and  C_13
REMARK    6  A    between atoms: C_13  and  C_15
REMARK    7  A    between atoms: C_13  and  N_19
REMARK    8  A    between atoms: N_22  and  C_23
REMARK                            x       y       z     vdW  Elec       q    Type
REMARK                         _______ _______ _______ _____ _____    ______ ____
ROOT
ATOM      1  O   UNL     1       1.296   1.658   0.072  0.00  0.00    -0.329 OA
ENDROOT
BRANCH   1   2
ATOM      2  C   UNL     1       2.246   0.937  -0.715  0.00  0.00    +0.260 C 
BRANCH   2   7
ATOM      3  C   UNL     1       4.199   3.797  -4.142  0.00  0.00    +0.129 C 
ATOM      4  N   UNL     1       4.289   3.134  -2.839  0.00  0.00    -0.302 N 
ATOM      5  C   UNL     1       3.266   2.376  -2.397  0.00  0.00    +0.301 C 
ATOM      6  O   UNL     1       2.308   2.168  -3.116  0.00  0.00    -0.253 OA
ATOM      7  N   UNL     1       3.305   1.848  -1.157  0.00  0.00    -0.270 N 
ATOM      8  H   UNL     1       5.191   3.255  -2.221  0.00  0.00    +0.150 HD
ATOM      9  H   UNL     1       4.132   2.102  -0.477  0.00  0.00    +0.153 HD
ENDBRANCH   2   7
BRANCH   2  10
ATOM     10  C   UNL     1       2.857  -0.186   0.124  0.00  0.00    +0.233 C 
ATOM     11 CL   UNL     1       1.554  -1.308   0.668  0.00  0.00    -0.079 Cl
ATOM     12 CL   UNL     1       4.056  -1.095  -0.870  0.00  0.00    -0.079 Cl
ATOM     13 CL   UNL     1       3.682   0.520   1.563  0.00  0.00    -0.079 Cl
ENDBRANCH   2  10
ENDBRANCH   1   2
BRANCH   1  14
ATOM     14  C   UNL     1      -0.057   1.242  -0.124  0.00  0.00    +0.260 C 
BRANCH  14  15
ATOM     15  N   UNL     1      -0.548   1.766  -1.401  0.00  0.00    -0.270 N 
ATOM     16  C   UNL     1      -0.599   0.965  -2.484  0.00  0.00    +0.301 C 
ATOM     17  O   UNL     1      -0.323  -0.214  -2.381  0.00  0.00    -0.253 OA
ATOM     18  N   UNL     1      -0.956   1.472  -3.681  0.00  0.00    -0.302 N 
ATOM     19  C   UNL     1      -1.117   0.583  -4.834  0.00  0.00    +0.129 C 
ATOM     20  H   UNL     1      -0.875   2.814  -1.476  0.00  0.00    +0.153 HD
ATOM     21  H   UNL     1      -1.126   2.553  -3.792  0.00  0.00    +0.150 HD
ENDBRANCH  14  15
BRANCH  14  22
ATOM     22  C   UNL     1      -0.926   1.777   1.015  0.00  0.00    +0.233 C 
ATOM     23 CL   UNL     1      -0.848   3.579   1.035  0.00  0.00    -0.079 Cl
ATOM     24 CL   UNL     1      -2.633   1.253   0.766  0.00  0.00    -0.079 Cl
ATOM     25 CL   UNL     1      -0.322   1.132   2.586  0.00  0.00    -0.079 Cl
ENDBRANCH  14  22
ENDBRANCH   1  14
TORSDOF 6
