REMARK  Name = ZINC16688126
REMARK  9 active torsions:
REMARK  status: ('A' for Active; 'I' for Inactive)
REMARK    1  A    between atoms: C_1  and  C_2
REMARK    2  A    between atoms: C_2  and  O_3
REMARK    3  A    between atoms: O_3  and  C_4
REMARK    4  A    between atoms: C_8  and  C_11
REMARK    5  A    between atoms: C_9  and  O_10
REMARK    6  A    between atoms: N_12  and  C_13
REMARK    7  A    between atoms: C_16  and  N_19
REMARK    8  A    between atoms: N_19  and  C_20
REMARK    9  A    between atoms: C_20  and  N_22
REMARK                            x       y       z     vdW  Elec       q    Type
REMARK                         _______ _______ _______ _____ _____    ______ ____
ROOT
ATOM      1  C   UNL     1       2.374  -4.289  -3.690  0.00  0.00    +0.124 C 
ATOM      2  N   UNL     1       2.265  -5.559  -3.966  0.00  0.00    -0.255 NA
ENDROOT
BRANCH   1   7
ATOM      3  C   UNL     1       1.146  -1.847  -1.106  0.00  0.00    +0.163 A 
ATOM      4  C   UNL     1       0.382  -2.678  -0.301  0.00  0.00    +0.065 A 
ATOM      5  C   UNL     1       0.267  -4.027  -0.596  0.00  0.00    +0.036 A 
ATOM      6  C   UNL     1       0.911  -4.557  -1.695  0.00  0.00    +0.044 A 
ATOM      7  C   UNL     1       1.685  -3.729  -2.518  0.00  0.00    +0.053 A 
ATOM      8  C   UNL     1       1.796  -2.364  -2.220  0.00  0.00    +0.168 A 
ATOM      9 BR   UNL     1       0.749  -6.399  -2.090  0.00  0.00    -0.048 Br
ATOM     10 BR   UNL     1      -0.778  -5.147   0.513  0.00  0.00    -0.049 Br
BRANCH   8  11
ATOM     11  O   UNL     1       2.540  -1.551  -3.014  0.00  0.00    -0.503 OA
ATOM     12  H   UNL     1       3.468  -1.484  -2.749  0.00  0.00    +0.292 HD
ENDBRANCH   8  11
BRANCH   3  13
ATOM     13  O   UNL     1       1.253  -0.525  -0.808  0.00  0.00    -0.489 OA
BRANCH  13  15
ATOM     14  C   UNL     1       0.796   1.440   0.522  0.00  0.00    +0.048 C 
ATOM     15  C   UNL     1       0.558  -0.062   0.351  0.00  0.00    +0.226 C 
ENDBRANCH  13  15
ENDBRANCH   3  13
ENDBRANCH   1   7
BRANCH   2  16
ATOM     16  C   UNL     1       2.906  -6.079  -5.057  0.00  0.00    +0.064 A 
ATOM     17  C   UNL     1       2.866  -5.405  -6.280  0.00  0.00    +0.029 A 
ATOM     18  C   UNL     1       3.513  -5.932  -7.377  0.00  0.00    +0.025 A 
ATOM     19  C   UNL     1       4.206  -7.133  -7.267  0.00  0.00    +0.033 A 
ATOM     20  C   UNL     1       4.247  -7.806  -6.051  0.00  0.00    +0.025 A 
ATOM     21  C   UNL     1       3.607  -7.283  -4.949  0.00  0.00    +0.029 A 
BRANCH  19  22
ATOM     22  N   UNL     1       4.861  -7.665  -8.381  0.00  0.00    -0.297 N 
ATOM     23  H   UNL     1       4.812  -8.616  -8.565  0.00  0.00    +0.154 HD
BRANCH  22  24
ATOM     24  C   UNL     1       5.561  -6.855  -9.201  0.00  0.00    +0.132 C 
ATOM     25  S   UNL     1       5.766  -5.203  -8.802  0.00  0.00    -0.019 S 
BRANCH  24  26
ATOM     26  N   UNL     1       6.099  -7.347 -10.335  0.00  0.00    -0.340 N 
ATOM     27  H   UNL     1       5.983  -8.283 -10.561  0.00  0.00    +0.144 HD
ATOM     28  H   UNL     1       6.603  -6.764 -10.925  0.00  0.00    +0.144 HD
ENDBRANCH  24  26
ENDBRANCH  22  24
ENDBRANCH  19  22
ENDBRANCH   2  16
TORSDOF 8
