REMARK  Name = ZINC40687649
REMARK  5 active torsions:
REMARK  status: ('A' for Active; 'I' for Inactive)
REMARK    1  A    between atoms: C_7  and  O_11
REMARK    2  A    between atoms: O_11  and  C_12
REMARK    3  A    between atoms: C_13  and  N_25
REMARK    4  A    between atoms: C_14  and  N_18
REMARK    5  A    between atoms: N_18  and  C_19
REMARK                            x       y       z     vdW  Elec       q    Type
REMARK                         _______ _______ _______ _____ _____    ______ ____
ROOT
ATOM      1  C   UNL     1       4.675  -2.800  -0.189  0.00  0.00    +0.246 A 
ATOM      2  C   UNL     1       4.702  -4.190  -0.290  0.00  0.00    +0.128 A 
ATOM      3  C   UNL     1       5.942  -4.818  -0.432  0.00  0.00    +0.151 A 
ATOM      4  N   UNL     1       7.042  -4.070  -0.466  0.00  0.00    -0.218 NA
ATOM      5  C   UNL     1       6.972  -2.758  -0.368  0.00  0.00    +0.227 A 
ATOM      6  N   UNL     1       5.822  -2.128  -0.238  0.00  0.00    -0.199 NA
ENDROOT
BRANCH   2   7
ATOM      7  N   UNL     1       3.516  -4.939  -0.248  0.00  0.00    -0.351 N 
ATOM      8  H   UNL     1       2.662  -4.489  -0.149  0.00  0.00    +0.143 HD
ATOM      9  H   UNL     1       3.550  -5.905  -0.320  0.00  0.00    +0.143 HD
ENDBRANCH   2   7
BRANCH   3  10
ATOM     10  N   UNL     1       6.025  -6.202  -0.536  0.00  0.00    -0.298 N 
ATOM     11  H   UNL     1       5.216  -6.733  -0.599  0.00  0.00    +0.154 HD
BRANCH  10  12
ATOM     12  C   UNL     1       7.271  -6.825  -0.551  0.00  0.00    +0.035 A 
ATOM     13  C   UNL     1       8.376  -6.231   0.058  0.00  0.00    +0.041 A 
ATOM     14  C   UNL     1       9.591  -6.881   0.022  0.00  0.00    +0.084 A 
ATOM     15  N   UNL     1       9.716  -8.050  -0.578  0.00  0.00    -0.367 N 
ATOM     16  C   UNL     1       8.694  -8.645  -1.166  0.00  0.00    +0.084 A 
ATOM     17  C   UNL     1       7.444  -8.063  -1.169  0.00  0.00    +0.041 A 
ATOM     18  H   UNL     1      10.583  -8.484  -0.589  0.00  0.00    +0.165 HD
ENDBRANCH  10  12
ENDBRANCH   3  10
BRANCH   1  19
ATOM     19  O   UNL     1       3.497  -2.142  -0.049  0.00  0.00    -0.434 OA
BRANCH  19  26
ATOM     20  C   UNL     1       3.728   1.287  -3.654  0.00  0.00    +0.020 A 
ATOM     21  C   UNL     1       3.685   2.019  -2.501  0.00  0.00    +0.013 A 
ATOM     22  C   UNL     1       3.613   1.327  -1.278  0.00  0.00    +0.018 A 
ATOM     23  C   UNL     1       3.565   2.013  -0.051  0.00  0.00    +0.027 A 
ATOM     24  C   UNL     1       3.496   1.309   1.113  0.00  0.00    +0.019 A 
ATOM     25  C   UNL     1       3.473  -0.083   1.108  0.00  0.00    +0.049 A 
ATOM     26  C   UNL     1       3.519  -0.784  -0.064  0.00  0.00    +0.156 A 
ATOM     27  C   UNL     1       3.590  -0.089  -1.290  0.00  0.00    +0.114 A 
ATOM     28  N   UNL     1       3.636  -0.745  -2.453  0.00  0.00    -0.251 NA
ATOM     29  C   UNL     1       3.702  -0.104  -3.595  0.00  0.00    +0.111 A 
ATOM     30 BR   UNL     1       3.595   3.903  -0.018  0.00  0.00    -0.050 Br
ENDBRANCH  19  26
ENDBRANCH   1  19
TORSDOF 5
