REMARK  Name = ZINC04751636
REMARK  6 active torsions:
REMARK  status: ('A' for Active; 'I' for Inactive)
REMARK    1  A    between atoms: C_1  and  C_2
REMARK    2  A    between atoms: C_5  and  C_7
REMARK    3  A    between atoms: C_11  and  C_22
REMARK    4  A    between atoms: N_12  and  C_21
REMARK    5  A    between atoms: C_13  and  C_20
REMARK    6  A    between atoms: C_15  and  C_19
REMARK                            x       y       z     vdW  Elec       q    Type
REMARK                         _______ _______ _______ _____ _____    ______ ____
ROOT
ATOM      1  C   UNL     1       1.546   4.757  -0.149  0.00  0.00    +0.037 A 
ATOM      2  C   UNL     1       2.959   4.744  -0.181  0.00  0.00    +0.041 A 
ATOM      3  C   UNL     1       3.372   6.039  -0.269  0.00  0.00    +0.076 A 
ATOM      4  C   UNL     1       4.706   6.654  -0.338  0.00  0.00    +0.030 A 
ATOM      5  C   UNL     1       5.986   6.215  -0.341  0.00  0.00    +0.025 A 
ATOM      6  N   UNL     1       6.814   7.295  -0.427  0.00  0.00    -0.350 N 
ATOM      7  C   UNL     1       6.093   8.445  -0.481  0.00  0.00    +0.025 A 
ATOM      8  C   UNL     1       4.773   8.129  -0.430  0.00  0.00    +0.028 A 
ATOM      9  C   UNL     1       3.511   8.870  -0.446  0.00  0.00    +0.068 A 
ATOM     10  N   UNL     1       2.380   8.243  -0.380  0.00  0.00    -0.171 NA
ATOM     11  N   UNL     1       2.261   6.853  -0.294  0.00  0.00    -0.238 N 
ATOM     12  C   UNL     1       1.149   6.060  -0.226  0.00  0.00    +0.124 A 
ATOM     13  C   UNL     1       3.528  10.374  -0.539  0.00  0.00    +0.068 C 
ATOM     14  C   UNL     1       6.661   9.837  -0.580  0.00  0.00    +0.064 C 
ATOM     15  C   UNL     1       8.277   7.224  -0.458  0.00  0.00    +0.149 C 
ATOM     16  C   UNL     1       6.422   4.775  -0.264  0.00  0.00    +0.064 C 
ENDROOT
BRANCH   1  21
ATOM     17  C   UNL     1       0.013  -0.013   0.175  0.00  0.00    +0.086 C 
ATOM     18  C   UNL     1      -0.015   1.491   0.085  0.00  0.00    +0.103 A 
ATOM     19  C   UNL     1      -1.124   2.255   0.058  0.00  0.00    +0.045 A 
ATOM     20  C   UNL     1      -0.698   3.597  -0.027  0.00  0.00    +0.050 A 
ATOM     21  C   UNL     1       0.661   3.575  -0.057  0.00  0.00    +0.137 A 
ATOM     22  O   UNL     1       1.061   2.292   0.012  0.00  0.00    -0.460 OA
ENDBRANCH   1  21
TORSDOF 1
