REMARK  Name = ZINC36575467
REMARK  11 active torsions:
REMARK  status: ('A' for Active; 'I' for Inactive)
REMARK    1  A    between atoms: C_1  and  C_2
REMARK    2  A    between atoms: C_2  and  C_3
REMARK    3  A    between atoms: C_2  and  C_4
REMARK    4  A    between atoms: C_4  and  C_5
REMARK    5  A    between atoms: C_5  and  C_7
REMARK    6  A    between atoms: C_5  and  N_11
REMARK    7  A    between atoms: C_7  and  O_9
REMARK    8  A    between atoms: O_9  and  C_10
REMARK    9  A    between atoms: C_23  and  C_25
REMARK   10  A    between atoms: C_30  and  O_31
REMARK   11  A    between atoms: O_31  and  C_32
REMARK                            x       y       z     vdW  Elec       q    Type
REMARK                         _______ _______ _______ _____ _____    ______ ____
ROOT
ATOM      1  N   UNL     1      -0.827  -2.914   1.249  0.00  0.00    -0.286 N 
ATOM      2  C   UNL     1       0.519  -2.850   1.272  0.00  0.00    +0.304 C 
ATOM      3  O   UNL     1       1.113  -2.232   0.410  0.00  0.00    -0.253 OA
ATOM      4  N   UNL     1       1.206  -3.470   2.252  0.00  0.00    -0.273 N 
ATOM      5  C   UNL     1       0.516  -4.315   3.238  0.00  0.00    +0.116 C 
ATOM      6  C   UNL     1       0.995  -5.764   3.081  0.00  0.00    +0.074 C 
ATOM      7  C   UNL     1       2.495  -5.766   2.947  0.00  0.00    +0.040 A 
ATOM      8  C   UNL     1       3.244  -4.690   2.624  0.00  0.00    +0.062 A 
ATOM      9  N   UNL     1       4.524  -5.067   2.595  0.00  0.00    -0.348 N 
ATOM     10  C   UNL     1       4.602  -6.338   2.890  0.00  0.00    +0.171 A 
ATOM     11  N   UNL     1       3.354  -6.810   3.118  0.00  0.00    -0.349 N 
ATOM     12  H   UNL     1       3.117  -7.719   3.357  0.00  0.00    +0.166 HD
ATOM     13  C   UNL     1       2.669  -3.323   2.357  0.00  0.00    +0.160 C 
ATOM     14  H   UNL     1      -1.305  -3.345   1.975  0.00  0.00    +0.151 HD
ATOM     15  H   UNL     1       5.275  -4.490   2.388  0.00  0.00    +0.167 HD
ENDROOT
BRANCH  13  16
ATOM     16  C   UNL     1       3.011  -2.396   3.495  0.00  0.00    +0.021 A 
ATOM     17  C   UNL     1       3.447  -2.913   4.700  0.00  0.00    +0.009 A 
ATOM     18  C   UNL     1       3.760  -2.063   5.745  0.00  0.00    +0.001 A 
ATOM     19  C   UNL     1       3.639  -0.695   5.586  0.00  0.00    +0.004 A 
ATOM     20  C   UNL     1       3.204  -0.173   4.383  0.00  0.00    +0.046 A 
ATOM     21  C   UNL     1       2.894  -1.024   3.331  0.00  0.00    +0.135 A 
BRANCH  21  22
ATOM     22  O   UNL     1       2.471  -0.513   2.145  0.00  0.00    -0.405 OA
BRANCH  22  23
ATOM     23  C   UNL     1       2.374   0.909   2.049  0.00  0.00    +0.575 C 
ATOM     24  F   UNL     1       3.632   1.479   2.276  0.00  0.00    -0.133 F 
ATOM     25  F   UNL     1       1.928   1.261   0.770  0.00  0.00    -0.133 F 
ATOM     26  F   UNL     1       1.468   1.381   3.005  0.00  0.00    -0.133 F 
ENDBRANCH  22  23
ENDBRANCH  21  22
ENDBRANCH  13  16
BRANCH   1  27
ATOM     27  C   UNL     1      -1.569  -2.334   0.127  0.00  0.00    +0.183 C 
BRANCH  27  28
ATOM     28  C   UNL     1      -2.857  -3.091  -0.070  0.00  0.00    +0.327 C 
ATOM     29  O   UNL     1      -3.127  -4.021   0.654  0.00  0.00    -0.249 OA
BRANCH  28  30
ATOM     30  O   UNL     1      -3.703  -2.734  -1.048  0.00  0.00    -0.467 OA
ATOM     31  C   UNL     1      -4.906  -3.495  -1.176  0.00  0.00    +0.280 C 
ENDBRANCH  28  30
ENDBRANCH  27  28
BRANCH  27  32
ATOM     32  C   UNL     1      -1.881  -0.866   0.426  0.00  0.00    +0.036 C 
BRANCH  32  34
ATOM     33  C   UNL     1      -2.910   1.222  -0.480  0.00  0.00    +0.007 C 
ATOM     34  C   UNL     1      -2.499  -0.213  -0.812  0.00  0.00    -0.015 C 
ATOM     35  C   UNL     1      -1.473  -0.200  -1.947  0.00  0.00    +0.007 C 
ENDBRANCH  32  34
ENDBRANCH  27  32
ENDBRANCH   1  27
TORSDOF 8
