REMARK  Name = ZINC08412024
REMARK  8 active torsions:
REMARK  status: ('A' for Active; 'I' for Inactive)
REMARK    1  A    between atoms: C_3  and  C_22
REMARK    2  A    between atoms: C_6  and  C_7
REMARK    3  A    between atoms: C_7  and  C_9
REMARK    4  A    between atoms: C_10  and  N_21
REMARK    5  A    between atoms: C_14  and  C_18
REMARK    6  A    between atoms: C_22  and  C_24
REMARK    7  A    between atoms: C_25  and  N_36
REMARK    8  A    between atoms: C_29  and  C_33
REMARK                            x       y       z     vdW  Elec       q    Type
REMARK                         _______ _______ _______ _____ _____    ______ ____
ROOT
ATOM      1  C   UNL     1      -4.286   2.566   0.321  0.00  0.00    +0.012 A 
ATOM      2  C   UNL     1      -5.313   3.441   0.043  0.00  0.00    +0.012 A 
ATOM      3  C   UNL     1      -6.633   2.985   0.024  0.00  0.00    +0.023 A 
ATOM      4  C   UNL     1      -6.911   1.642   0.284  0.00  0.00    +0.012 A 
ATOM      5  C   UNL     1      -5.884   0.766   0.558  0.00  0.00    +0.012 A 
ATOM      6  C   UNL     1      -4.564   1.222   0.576  0.00  0.00    +0.023 A 
ENDROOT
BRANCH   6   7
ATOM      7  C   UNL     1      -3.461   0.280   0.870  0.00  0.00    +0.202 C 
ATOM      8  O   UNL     1      -2.423   0.692   1.357  0.00  0.00    -0.286 OA
BRANCH   7   9
ATOM      9  C   UNL     1      -3.611  -1.096   0.586  0.00  0.00    +0.083 A 
ATOM     10  C   UNL     1      -2.753  -2.135   0.898  0.00  0.00    +0.052 A 
ATOM     11  C   UNL     1      -3.128  -3.481   0.496  0.00  0.00    +0.029 A 
ATOM     12  C   UNL     1      -2.422  -4.694   0.699  0.00  0.00    +0.014 A 
ATOM     13  C   UNL     1      -2.965  -5.867   0.231  0.00  0.00    +0.024 A 
ATOM     14  C   UNL     1      -4.185  -5.862  -0.429  0.00  0.00    +0.046 A 
ATOM     15  N   UNL     1      -4.839  -4.732  -0.616  0.00  0.00    -0.244 NA
ATOM     16  C   UNL     1      -4.361  -3.583  -0.188  0.00  0.00    +0.111 A 
ATOM     17  S   UNL     1      -4.948  -1.909  -0.267  0.00  0.00    -0.064 S 
BRANCH  14  18
ATOM     18  C   UNL     1      -4.767  -7.156  -0.937  0.00  0.00    +0.038 C 
ATOM     19  C   UNL     1      -3.828  -8.359  -1.042  0.00  0.00    +0.010 C 
ATOM     20  C   UNL     1      -4.306  -7.647  -2.310  0.00  0.00    +0.010 C 
ENDBRANCH  14  18
BRANCH  10  21
ATOM     21  N   UNL     1      -1.568  -1.899   1.575  0.00  0.00    -0.356 N 
ATOM     22  H   UNL     1      -0.976  -2.637   1.788  0.00  0.00    +0.142 HD
ATOM     23  H   UNL     1      -1.331  -0.996   1.837  0.00  0.00    +0.142 HD
ENDBRANCH  10  21
ENDBRANCH   7   9
ENDBRANCH   6   7
BRANCH   3  24
ATOM     24  C   UNL     1      -7.736   3.926  -0.270  0.00  0.00    +0.202 C 
ATOM     25  O   UNL     1      -8.854   3.710   0.164  0.00  0.00    -0.286 OA
BRANCH  24  26
ATOM     26  C   UNL     1      -7.494   5.077  -1.055  0.00  0.00    +0.083 A 
ATOM     27  C   UNL     1      -8.354   6.123  -1.331  0.00  0.00    +0.052 A 
ATOM     28  C   UNL     1      -7.870   7.208  -2.170  0.00  0.00    +0.029 A 
ATOM     29  C   UNL     1      -8.555   8.378  -2.586  0.00  0.00    +0.014 A 
ATOM     30  C   UNL     1      -7.904   9.281  -3.392  0.00  0.00    +0.024 A 
ATOM     31  C   UNL     1      -6.596   9.048  -3.791  0.00  0.00    +0.046 A 
ATOM     32  N   UNL     1      -5.962   7.959  -3.404  0.00  0.00    -0.244 NA
ATOM     33  C   UNL     1      -6.542   7.065  -2.632  0.00  0.00    +0.111 A 
ATOM     34  S   UNL     1      -6.008   5.523  -1.932  0.00  0.00    -0.064 S 
BRANCH  31  35
ATOM     35  C   UNL     1      -5.894  10.047  -4.676  0.00  0.00    +0.038 C 
ATOM     36  C   UNL     1      -6.761  11.078  -5.403  0.00  0.00    +0.010 C 
ATOM     37  C   UNL     1      -6.114   9.931  -6.185  0.00  0.00    +0.010 C 
ENDBRANCH  31  35
BRANCH  27  38
ATOM     38  N   UNL     1      -9.641   6.140  -0.819  0.00  0.00    -0.356 N 
ATOM     39  H   UNL     1      -9.949   5.411  -0.258  0.00  0.00    +0.142 HD
ATOM     40  H   UNL     1     -10.234   6.880  -1.022  0.00  0.00    +0.142 HD
ENDBRANCH  27  38
ENDBRANCH  24  26
ENDBRANCH   3  24
TORSDOF 8
