REMARK  Name = ZINC63588921
REMARK  10 active torsions:
REMARK  status: ('A' for Active; 'I' for Inactive)
REMARK    1  A    between atoms: C_1  and  C_2
REMARK    2  A    between atoms: C_2  and  O_3
REMARK    3  A    between atoms: O_3  and  C_4
REMARK    4  A    between atoms: C_7  and  N_10
REMARK    5  A    between atoms: N_12  and  C_13
REMARK    6  A    between atoms: C_13  and  C_14
REMARK    7  A    between atoms: C_14  and  C_15
REMARK    8  A    between atoms: N_24  and  C_25
REMARK    9  A    between atoms: C_25  and  C_27
REMARK   10  A    between atoms: C_30  and  C_34
REMARK                            x       y       z     vdW  Elec       q    Type
REMARK                         _______ _______ _______ _____ _____    ______ ____
ROOT
ATOM      1  N   UNL     1      -2.242  -5.842   0.419  0.00  0.00    -0.328 N 
ATOM      2  C   UNL     1      -3.333  -6.526  -0.035  0.00  0.00    +0.194 C 
ATOM      3  N   UNL     1      -3.244  -7.865  -0.280  0.00  0.00    -0.357 N 
ATOM      4  N   UNL     1      -4.476  -5.890  -0.239  0.00  0.00    -0.143 NA
ATOM      5  H   UNL     1      -2.438  -8.350  -0.043  0.00  0.00    +0.162 HD
ATOM      6  H   UNL     1      -2.360  -5.031   0.938  0.00  0.00    +0.169 HD
ENDROOT
BRANCH   1  10
ATOM      7  C   UNL     1       1.595  -7.240  -0.423  0.00  0.00    +0.121 A 
ATOM      8  C   UNL     1       1.304  -6.724   0.832  0.00  0.00    +0.047 A 
ATOM      9  C   UNL     1       0.034  -6.261   1.111  0.00  0.00    +0.029 A 
ATOM     10  C   UNL     1      -0.953  -6.312   0.136  0.00  0.00    +0.042 A 
ATOM     11  C   UNL     1      -0.662  -6.828  -1.119  0.00  0.00    +0.029 A 
ATOM     12  C   UNL     1       0.610  -7.286  -1.399  0.00  0.00    +0.047 A 
BRANCH   7  13
ATOM     13  O   UNL     1       2.846  -7.696  -0.697  0.00  0.00    -0.492 OA
BRANCH  13  15
ATOM     14  C   UNL     1       5.148  -8.172  -0.138  0.00  0.00    +0.048 C 
ATOM     15  C   UNL     1       3.810  -7.618   0.355  0.00  0.00    +0.225 C 
ENDBRANCH  13  15
ENDBRANCH   7  13
ENDBRANCH   1  10
BRANCH   4  16
ATOM     16  C   UNL     1      -4.520  -4.553  -0.171  0.00  0.00    +0.270 C 
ATOM     17  O   UNL     1      -3.486  -3.912  -0.106  0.00  0.00    -0.268 OA
BRANCH  16  18
ATOM     18  C   UNL     1      -5.825  -3.853  -0.174  0.00  0.00    +0.042 A 
ATOM     19  C   UNL     1      -7.012  -4.585  -0.128  0.00  0.00    +0.013 A 
ATOM     20  C   UNL     1      -8.226  -3.929  -0.131  0.00  0.00    +0.007 A 
ATOM     21  C   UNL     1      -8.269  -2.547  -0.180  0.00  0.00    -0.015 A 
ATOM     22  C   UNL     1      -7.095  -1.814  -0.226  0.00  0.00    +0.127 A 
ATOM     23  C   UNL     1      -5.873  -2.460  -0.217  0.00  0.00    +0.051 A 
ATOM     24  F   UNL     1      -7.143  -0.464  -0.273  0.00  0.00    -0.205 F 
ATOM     25  C   UNL     1      -9.598  -1.837  -0.183  0.00  0.00    +0.047 C 
ENDBRANCH  16  18
ENDBRANCH   4  16
BRANCH   3  26
ATOM     26  C   UNL     1      -4.367  -8.572  -0.902  0.00  0.00    +0.120 C 
BRANCH  26  27
ATOM     27  C   UNL     1      -4.012 -10.051  -1.064  0.00  0.00    +0.054 C 
BRANCH  27  28
ATOM     28  C   UNL     1      -5.167 -10.778  -1.703  0.00  0.00    -0.040 C 
ATOM     29  C   UNL     1      -5.329 -11.050  -3.018  0.00  0.00    -0.001 A 
ATOM     30  C   UNL     1      -4.510 -10.761  -4.202  0.00  0.00    +0.010 A 
ATOM     31  C   UNL     1      -4.945 -11.169  -5.415  0.00  0.00    +0.001 A 
ATOM     32  C   UNL     1      -6.155 -11.860  -5.571  0.00  0.00    +0.002 A 
ATOM     33  C   UNL     1      -6.962 -12.161  -4.532  0.00  0.00    +0.026 A 
ATOM     34  C   UNL     1      -6.603 -11.781  -3.209  0.00  0.00    +0.043 A 
ATOM     35  N   UNL     1      -7.204 -11.953  -2.058  0.00  0.00    -0.380 N 
ATOM     36  C   UNL     1      -6.377 -11.356  -1.003  0.00  0.00    +0.144 C 
ATOM     37  H   UNL     1      -8.053 -12.404  -1.924  0.00  0.00    +0.160 HD
ENDBRANCH  27  28
ENDBRANCH  26  27
ENDBRANCH   3  26
TORSDOF 8
