REMARK  Name = ZINC50595058
REMARK  11 active torsions:
REMARK  status: ('A' for Active; 'I' for Inactive)
REMARK    1  A    between atoms: C_1  and  C_2
REMARK    2  A    between atoms: C_4  and  C_20
REMARK    3  A    between atoms: N_5  and  C_7
REMARK    4  A    between atoms: C_7  and  C_8
REMARK    5  A    between atoms: C_8  and  C_9
REMARK    6  A    between atoms: C_9  and  C_10
REMARK    7  A    between atoms: C_10  and  C_11
REMARK    8  A    between atoms: C_11  and  C_12
REMARK    9  A    between atoms: C_11  and  C_13
REMARK   10  A    between atoms: C_11  and  N_16
REMARK   11  A    between atoms: N_16  and  C_17
REMARK                            x       y       z     vdW  Elec       q    Type
REMARK                         _______ _______ _______ _____ _____    ______ ____
ROOT
ATOM      1  C   UNL     1       2.994  -6.557   3.869  0.00  0.00    +0.007 C 
ATOM      2  C   UNL     1       2.274  -6.245   5.183  0.00  0.00    -0.001 C 
ENDROOT
BRANCH   1   3
ATOM      3  C   UNL     1       2.296  -7.696   3.172  0.00  0.00    +0.199 C 
ATOM      4  O   UNL     1       1.123  -7.913   3.391  0.00  0.00    -0.278 OA
ATOM      5  N   UNL     1       2.975  -8.473   2.305  0.00  0.00    -0.330 N 
ATOM      6  H   UNL     1       3.913  -8.299   2.130  0.00  0.00    +0.145 HD
ATOM      7  H   UNL     1       2.525  -9.206   1.856  0.00  0.00    +0.145 HD
ENDBRANCH   1   3
BRANCH   1   8
ATOM      8  N   UNL     1       4.386  -6.934   4.151  0.00  0.00    +0.390 N 
ATOM      9  H   UNL     1       4.860  -7.139   3.284  0.00  0.00    -0.084 HD
ATOM     10  H   UNL     1       4.853  -6.172   4.618  0.00  0.00    -0.084 HD
BRANCH   8  11
ATOM     11  C   UNL     1       4.405  -8.123   5.013  0.00  0.00    -0.071 C 
ATOM     12  C   UNL     1       5.013  -7.972   6.410  0.00  0.00    -0.017 C 
ATOM     13  C   UNL     1       5.768  -8.746   5.327  0.00  0.00    -0.017 C 
ENDBRANCH   8  11
ENDBRANCH   1   8
BRANCH   1  14
ATOM     14  C   UNL     1       2.973  -5.319   2.970  0.00  0.00    -0.004 C 
BRANCH  14  15
ATOM     15  C   UNL     1       1.524  -4.926   2.677  0.00  0.00    +0.001 C 
BRANCH  15  16
ATOM     16  C   UNL     1       1.503  -3.688   1.779  0.00  0.00    +0.023 C 
BRANCH  16  17
ATOM     17  C   UNL     1       0.053  -3.295   1.486  0.00  0.00    +0.144 C 
BRANCH  17  22
ATOM     18  C   UNL     1      -0.018   1.503   0.010  0.00  0.00    +0.068 C 
ATOM     19  C   UNL     1       0.002  -0.004   0.002  0.00  0.00    +0.074 A 
ATOM     20  C   UNL     1       0.008  -0.818  -1.136  0.00  0.00    +0.061 A 
ATOM     21  C   UNL     1       0.027  -2.108  -0.725  0.00  0.00    +0.050 A 
ATOM     22  N   UNL     1       0.034  -2.109   0.625  0.00  0.00    -0.267 N 
ATOM     23  N   UNL     1       0.023  -0.777   1.058  0.00  0.00    -0.175 NA
ATOM     24  C   UNL     1       0.039  -3.324  -1.615  0.00  0.00    +0.066 C 
ATOM     25 BR   UNL     1      -0.009  -0.222  -2.930  0.00  0.00    -0.047 Br
ENDBRANCH  17  22
ENDBRANCH  16  17
ENDBRANCH  15  16
ENDBRANCH  14  15
ENDBRANCH   1  14
TORSDOF 8
