REMARK  Name = ZINC03065685
REMARK  8 active torsions:
REMARK  status: ('A' for Active; 'I' for Inactive)
REMARK    1  A    between atoms: N_9  and  C_11
REMARK    2  A    between atoms: C_11  and  C_12
REMARK    3  A    between atoms: C_12  and  C_13
REMARK    4  A    between atoms: C_13  and  N_14
REMARK    5  A    between atoms: C_15  and  C_17
REMARK    6  A    between atoms: C_20  and  C_22
REMARK    7  A    between atoms: C_22  and  S_23
REMARK    8  A    between atoms: S_23  and  C_26
REMARK                            x       y       z     vdW  Elec       q    Type
REMARK                         _______ _______ _______ _____ _____    ______ ____
ROOT
ATOM      1  N   UNL     1       4.223  -7.401  -2.191  0.00  0.00    -0.309 N 
ATOM      2  C   UNL     1       2.890  -7.601  -2.195  0.00  0.00    +0.279 C 
ATOM      3  O   UNL     1       2.444  -8.729  -2.287  0.00  0.00    -0.267 OA
ATOM      4  H   UNL     1       4.627  -6.381  -2.108  0.00  0.00    +0.149 HD
ENDROOT
BRANCH   2   5
ATOM      5  C   UNL     1       1.978  -6.458  -2.088  0.00  0.00    +0.189 A 
ATOM      6  C   UNL     1       0.613  -6.519  -2.079  0.00  0.00    +0.055 A 
ATOM      7  C   UNL     1       0.152  -5.199  -1.956  0.00  0.00    +0.047 A 
ATOM      8  C   UNL     1       1.240  -4.400  -1.905  0.00  0.00    +0.127 A 
ATOM      9  O   UNL     1       2.338  -5.162  -1.981  0.00  0.00    -0.453 OA
BRANCH   8  10
ATOM     10  C   UNL     1       1.221  -2.898  -1.777  0.00  0.00    +0.245 C 
BRANCH  10  11
ATOM     11  S   UNL     1       1.232  -2.441  -0.022  0.00  0.00    +0.004 S 
ATOM     12  O   UNL     1       2.477  -2.790   0.568  0.00  0.00    -0.169 OA
ATOM     13  O   UNL     1       0.008  -2.823   0.591  0.00  0.00    -0.169 OA
BRANCH  11  14
ATOM     14  C   UNL     1       1.208  -0.679  -0.013  0.00  0.00    +0.089 A 
ATOM     15  C   UNL     1       0.002  -0.004   0.002  0.00  0.00    +0.028 A 
ATOM     16  C   UNL     1      -0.017   1.378   0.010  0.00  0.00    +0.017 A 
ATOM     17  C   UNL     1       1.172   2.086   0.002  0.00  0.00    +0.018 A 
ATOM     18  C   UNL     1       2.379   1.410  -0.013  0.00  0.00    +0.017 A 
ATOM     19  C   UNL     1       2.396   0.028  -0.021  0.00  0.00    +0.028 A 
ATOM     20 BR   UNL     1       1.147   3.976   0.013  0.00  0.00    -0.050 Br
ENDBRANCH  11  14
ENDBRANCH  10  11
ENDBRANCH   8  10
ENDBRANCH   2   5
BRANCH   1  21
ATOM     21  C   UNL     1       5.135  -8.543  -2.298  0.00  0.00    +0.103 C 
BRANCH  21  22
ATOM     22  C   UNL     1       6.581  -8.045  -2.270  0.00  0.00    +0.000 C 
BRANCH  22  23
ATOM     23  C   UNL     1       7.534  -9.237  -2.381  0.00  0.00    -0.077 C 
BRANCH  23  32
ATOM     24  C   UNL     1      13.211  -6.567  -0.986  0.00  0.00    +0.000 A 
ATOM     25  C   UNL     1      12.210  -5.824  -0.388  0.00  0.00    +0.000 A 
ATOM     26  C   UNL     1      10.896  -6.234  -0.489  0.00  0.00    +0.002 A 
ATOM     27  C   UNL     1      10.573  -7.387  -1.189  0.00  0.00    -0.061 A 
ATOM     28  C   UNL     1      11.570  -8.126  -1.788  0.00  0.00    -0.048 A 
ATOM     29  C   UNL     1      12.891  -7.715  -1.684  0.00  0.00    +0.004 A 
ATOM     30  C   UNL     1      11.268  -9.382  -2.564  0.00  0.00    +0.017 C 
ATOM     31  C   UNL     1       9.864  -9.882  -2.220  0.00  0.00    -0.074 C 
ATOM     32  N   UNL     1       8.922  -8.759  -2.354  0.00  0.00    +0.383 N 
ATOM     33  C   UNL     1       9.125  -7.795  -1.268  0.00  0.00    -0.043 C 
ATOM     34  H   UNL     1       9.118  -8.249  -3.309  0.00  0.00    -0.081 HD
ENDBRANCH  23  32
ENDBRANCH  22  23
ENDBRANCH  21  22
ENDBRANCH   1  21
TORSDOF 8
