REMARK  Name = ZINC03323100
REMARK  7 active torsions:
REMARK  status: ('A' for Active; 'I' for Inactive)
REMARK    1  A    between atoms: C_1  and  C_2
REMARK    2  A    between atoms: C_2  and  C_4
REMARK    3  A    between atoms: C_2  and  N_48
REMARK    4  A    between atoms: C_16  and  C_17
REMARK    5  A    between atoms: C_16  and  N_48
REMARK    6  A    between atoms: C_20  and  S_23
REMARK    7  A    between atoms: S_23  and  N_26
REMARK                            x       y       z     vdW  Elec       q    Type
REMARK                         _______ _______ _______ _____ _____    ______ ____
ROOT
ATOM      1  N   UNL     1      -0.120   0.175  -0.347  0.00  0.00    +0.389 N 
ATOM      2  H   UNL     1       0.181  -0.089  -1.293  0.00  0.00    -0.084 HD
ATOM      3  H   UNL     1       0.608  -0.085   0.329  0.00  0.00    -0.084 HD
ENDROOT
BRANCH   1   5
ATOM      4  C   UNL     1      -1.491  -0.676   1.502  0.00  0.00    -0.004 C 
ATOM      5  C   UNL     1      -1.367  -0.540  -0.017  0.00  0.00    +0.014 C 
BRANCH   5   6
ATOM      6  C   UNL     1      -1.333  -1.910  -0.643  0.00  0.00    +0.206 C 
ATOM      7  O   UNL     1      -0.271  -2.416  -0.938  0.00  0.00    -0.277 OA
ATOM      8  N   UNL     1      -2.483  -2.574  -0.875  0.00  0.00    -0.272 N 
ATOM      9  C   UNL     1      -3.780  -1.944  -0.591  0.00  0.00    +0.114 C 
ATOM     10  C   UNL     1      -4.659  -2.972   0.123  0.00  0.00    +0.024 C 
ATOM     11  C   UNL     1      -4.905  -4.153  -0.815  0.00  0.00    +0.038 C 
ATOM     12  C   UNL     1      -3.603  -4.666  -1.370  0.00  0.00    -0.026 A 
ATOM     13  C   UNL     1      -2.462  -3.879  -1.385  0.00  0.00    +0.039 A 
ATOM     14  C   UNL     1      -1.277  -4.382  -1.909  0.00  0.00    +0.024 A 
ATOM     15  C   UNL     1      -1.235  -5.667  -2.414  0.00  0.00    +0.002 A 
ATOM     16  C   UNL     1      -2.372  -6.452  -2.397  0.00  0.00    +0.000 A 
ATOM     17  C   UNL     1      -3.551  -5.954  -1.877  0.00  0.00    +0.005 A 
ENDBRANCH   5   6
ENDBRANCH   1   5
BRANCH   1  18
ATOM     18  C   UNL     1      -0.336   1.633  -0.294  0.00  0.00    -0.046 C 
BRANCH  18  19
ATOM     19  C   UNL     1       0.953   2.336  -0.636  0.00  0.00    -0.064 A 
ATOM     20  C   UNL     1       1.846   2.666   0.366  0.00  0.00    +0.003 A 
ATOM     21  C   UNL     1       3.030   3.307   0.052  0.00  0.00    +0.029 A 
ATOM     22  C   UNL     1       3.316   3.625  -1.263  0.00  0.00    +0.105 A 
ATOM     23  C   UNL     1       2.421   3.299  -2.264  0.00  0.00    +0.029 A 
ATOM     24  C   UNL     1       1.238   2.655  -1.950  0.00  0.00    +0.003 A 
BRANCH  22  25
ATOM     25  S   UNL     1       4.824   4.446  -1.662  0.00  0.00    +0.056 S 
ATOM     26  O   UNL     1       5.737   4.152  -0.614  0.00  0.00    -0.153 OA
ATOM     27  O   UNL     1       5.103   4.143  -3.022  0.00  0.00    -0.153 OA
BRANCH  25  28
ATOM     28  N   UNL     1       4.529   6.074  -1.590  0.00  0.00    -0.204 NA
ATOM     29  H   UNL     1       3.644   6.396  -1.359  0.00  0.00    +0.144 HD
ATOM     30  H   UNL     1       5.241   6.704  -1.780  0.00  0.00    +0.144 HD
ENDBRANCH  25  28
ENDBRANCH  22  25
ENDBRANCH  18  19
ENDBRANCH   1  18
TORSDOF 6
