REMARK  Name = ZINC67612951
REMARK  11 active torsions:
REMARK  status: ('A' for Active; 'I' for Inactive)
REMARK    1  A    between atoms: C_1  and  C_2
REMARK    2  A    between atoms: N_7  and  C_9
REMARK    3  A    between atoms: C_9  and  C_10
REMARK    4  A    between atoms: C_9  and  C_11
REMARK    5  A    between atoms: C_9  and  C_12
REMARK    6  A    between atoms: C_12  and  N_13
REMARK    7  A    between atoms: C_14  and  C_16
REMARK    8  A    between atoms: C_16  and  C_17
REMARK    9  A    between atoms: C_17  and  C_18
REMARK   10  A    between atoms: C_18  and  C_19
REMARK   11  A    between atoms: C_19  and  C_20
REMARK                            x       y       z     vdW  Elec       q    Type
REMARK                         _______ _______ _______ _____ _____    ______ ____
ROOT
ATOM      1  N   UNL     1       2.186  -4.461   1.142  0.00  0.00    -0.317 N 
ATOM      2  C   UNL     1       2.321  -5.782   0.914  0.00  0.00    +0.213 C 
ATOM      3  O   UNL     1       1.925  -6.582   1.736  0.00  0.00    -0.276 OA
ATOM      4  H   UNL     1       2.502  -3.821   0.485  0.00  0.00    +0.149 HD
ENDROOT
BRANCH   1   5
ATOM      5  C   UNL     1       1.562  -3.991   2.382  0.00  0.00    +0.092 C 
BRANCH   5   6
ATOM      6  C   UNL     1       1.534  -2.461   2.390  0.00  0.00    -0.055 C 
ATOM      7  C   UNL     1       2.963  -1.924   2.303  0.00  0.00    -0.008 C 
ATOM      8  C   UNL     1       0.882  -1.970   3.685  0.00  0.00    -0.008 C 
BRANCH   6  14
ATOM      9  C   UNL     1      -0.019   1.526   0.010  0.00  0.00    +0.005 C 
ATOM     10  C   UNL     1       0.002  -0.004   0.002  0.00  0.00    -0.031 C 
ATOM     11  C   UNL     1      -1.434  -0.535   0.015  0.00  0.00    -0.001 C 
ATOM     12  C   UNL     1      -1.402  -2.064   0.086  0.00  0.00    -0.018 C 
ATOM     13  C   UNL     1      -0.613  -2.496   1.324  0.00  0.00    -0.078 C 
ATOM     14  N   UNL     1       0.758  -1.980   1.239  0.00  0.00    +0.384 N 
ATOM     15  C   UNL     1       0.740  -0.512   1.242  0.00  0.00    -0.075 C 
ATOM     16  H   UNL     1       1.188  -2.307   0.386  0.00  0.00    -0.081 HD
ENDBRANCH   6  14
ENDBRANCH   5   6
ENDBRANCH   1   5
BRANCH   2  17
ATOM     17  C   UNL     1       2.962  -6.266  -0.361  0.00  0.00    +0.096 C 
BRANCH  17  18
ATOM     18  C   UNL     1       2.991  -7.795  -0.369  0.00  0.00    +0.009 C 
BRANCH  18  19
ATOM     19  C   UNL     1       3.642  -8.286  -1.663  0.00  0.00    +0.002 C 
BRANCH  19  20
ATOM     20  C   UNL     1       3.671  -9.816  -1.672  0.00  0.00    +0.016 C 
BRANCH  20  21
ATOM     21  C   UNL     1       4.322 -10.307  -2.966  0.00  0.00    +0.069 C 
ATOM     22  C   UNL     1       4.341 -11.812  -3.030  0.00  0.00    +0.108 C 
ATOM     23  C   UNL     1       5.533 -12.257  -3.933  0.00  0.00    +0.105 C 
ATOM     24  C   UNL     1       6.781 -11.675  -3.274  0.00  0.00    +0.093 C 
ATOM     25  S   UNL     1       6.139  -9.940  -2.983  0.00  0.00    -0.154 S 
ATOM     26  N   UNL     1       5.287 -13.681  -3.960  0.00  0.00    -0.294 N 
ATOM     27  C   UNL     1       3.929 -13.818  -3.897  0.00  0.00    +0.300 C 
ATOM     28  O   UNL     1       3.343 -14.854  -4.144  0.00  0.00    -0.253 OA
ATOM     29  N   UNL     1       3.306 -12.661  -3.542  0.00  0.00    -0.294 N 
ATOM     30  H   UNL     1       5.947 -14.390  -4.012  0.00  0.00    +0.151 HD
ATOM     31  H   UNL     1       2.360 -12.459  -3.615  0.00  0.00    +0.151 HD
ENDBRANCH  20  21
ENDBRANCH  19  20
ENDBRANCH  18  19
ENDBRANCH  17  18
ENDBRANCH   2  17
TORSDOF 8
