REMARK  Name = ZINC43109806
REMARK  8 active torsions:
REMARK  status: ('A' for Active; 'I' for Inactive)
REMARK    1  A    between atoms: C_1  and  N_2
REMARK    2  A    between atoms: N_2  and  C_3
REMARK    3  A    between atoms: N_2  and  C_4
REMARK    4  A    between atoms: C_4  and  C_10
REMARK    5  A    between atoms: C_10  and  N_11
REMARK    6  A    between atoms: N_14  and  N_15
REMARK    7  A    between atoms: C_16  and  C_18
REMARK    8  A    between atoms: N_20  and  C_21
REMARK                            x       y       z     vdW  Elec       q    Type
REMARK                         _______ _______ _______ _____ _____    ______ ____
ROOT
ATOM      1  N   UNL     1      -1.430  -0.478  -2.432  0.00  0.00    -0.300 N 
ATOM      2  C   UNL     1      -1.907  -0.152  -3.650  0.00  0.00    +0.316 C 
ATOM      3  O   UNL     1      -2.906   0.534  -3.749  0.00  0.00    -0.251 OA
ATOM      4  N   UNL     1      -1.276  -0.587  -4.759  0.00  0.00    -0.218 N 
ATOM      5  H   UNL     1      -0.633  -1.026  -2.354  0.00  0.00    +0.150 HD
ATOM      6  H   UNL     1      -1.619  -0.352  -5.636  0.00  0.00    +0.174 HD
ENDROOT
BRANCH   4   7
ATOM      7  N   UNL     1      -0.125  -1.377  -4.646  0.00  0.00    -0.225 N 
ATOM      8  C   UNL     1       0.506  -1.812  -5.755  0.00  0.00    +0.315 C 
ATOM      9  O   UNL     1       0.077  -1.519  -6.851  0.00  0.00    -0.264 OA
ATOM     10  H   UNL     1       0.218  -1.612  -3.769  0.00  0.00    +0.173 HD
BRANCH   8  11
ATOM     11  C   UNL     1       1.734  -2.655  -5.634  0.00  0.00    +0.301 C 
ATOM     12  O   UNL     1       2.163  -2.949  -4.537  0.00  0.00    -0.265 OA
ATOM     13  N   UNL     1       2.365  -3.090  -6.743  0.00  0.00    -0.305 N 
ATOM     14  H   UNL     1       2.022  -2.856  -7.619  0.00  0.00    +0.149 HD
BRANCH  13  15
ATOM     15  C   UNL     1       3.568  -3.917  -6.624  0.00  0.00    +0.073 C 
ATOM     16  C   UNL     1       4.744  -3.589  -7.547  0.00  0.00    +0.024 C 
ATOM     17  C   UNL     1       3.905  -4.846  -7.792  0.00  0.00    +0.024 C 
ENDBRANCH  13  15
ENDBRANCH   8  11
ENDBRANCH   4   7
BRANCH   1  18
ATOM     18  C   UNL     1      -2.116  -0.006  -1.227  0.00  0.00    +0.094 C 
BRANCH  18  19
ATOM     19  C   UNL     1      -1.376  -0.512   0.012  0.00  0.00    -0.050 C 
ATOM     20  C   UNL     1      -2.092  -0.019   1.271  0.00  0.00    -0.010 C 
ATOM     21  C   UNL     1      -3.528  -0.549   1.282  0.00  0.00    -0.001 C 
ATOM     22  C   UNL     1      -3.507  -2.079   1.274  0.00  0.00    -0.000 C 
ATOM     23  C   UNL     1      -2.791  -2.572   0.015  0.00  0.00    -0.001 C 
ATOM     24  C   UNL     1      -1.355  -2.042   0.004  0.00  0.00    -0.010 C 
BRANCH  19  26
ATOM     25  C   UNL     1      -0.018   1.465   0.010  0.00  0.00    -0.096 C 
ATOM     26  N   UNL     1       0.002  -0.004   0.002  0.00  0.00    +0.381 N 
ATOM     27  C   UNL     1       0.713  -0.491   1.192  0.00  0.00    -0.096 C 
ATOM     28  H   UNL     1       0.474  -0.330  -0.828  0.00  0.00    -0.082 HD
ENDBRANCH  19  26
ENDBRANCH  18  19
ENDBRANCH   1  18
TORSDOF 6
