REMARK  Name = ZINC02927272
REMARK  10 active torsions:
REMARK  status: ('A' for Active; 'I' for Inactive)
REMARK    1  A    between atoms: C_1  and  C_2
REMARK    2  A    between atoms: C_2  and  O_3
REMARK    3  A    between atoms: O_3  and  C_4
REMARK    4  A    between atoms: C_7  and  N_10
REMARK    5  A    between atoms: C_14  and  C_33
REMARK    6  A    between atoms: C_20  and  S_21
REMARK    7  A    between atoms: S_21  and  C_22
REMARK    8  A    between atoms: C_22  and  C_23
REMARK    9  A    between atoms: N_25  and  C_26
REMARK   10  A    between atoms: C_30  and  C_32
REMARK                            x       y       z     vdW  Elec       q    Type
REMARK                         _______ _______ _______ _____ _____    ______ ____
ROOT
ATOM      1  N   UNL     1       3.493  10.644   0.593  0.00  0.00    -0.275 N 
ATOM      2  C   UNL     1       3.265  12.008   0.691  0.00  0.00    +0.124 A 
ATOM      3  N   UNL     1       4.256  12.859   0.794  0.00  0.00    -0.384 N 
ATOM      4  C   UNL     1       1.868  12.460   0.682  0.00  0.00    +0.082 A 
ATOM      5  C   UNL     1       1.241  13.715   0.763  0.00  0.00    +0.072 A 
ATOM      6  N   UNL     1      -0.051  13.534   0.706  0.00  0.00    -0.177 NA
ATOM      7  N   UNL     1      -0.325  12.166   0.585  0.00  0.00    -0.260 N 
ATOM      8  H   UNL     1      -1.367  11.818   0.521  0.00  0.00    +0.191 HD
ATOM      9  C   UNL     1       0.858  11.494   0.569  0.00  0.00    +0.162 A 
ATOM     10  N   UNL     1       1.188  10.197   0.474  0.00  0.00    -0.204 NA
ATOM     11  C   UNL     1       2.433   9.787   0.482  0.00  0.00    +0.177 A 
ATOM     12  C   UNL     1       1.940  15.043   0.896  0.00  0.00    +0.068 C 
ATOM     13  H   UNL     1       4.050  13.937   0.872  0.00  0.00    +0.157 HD
ATOM     14  H   UNL     1       5.295  12.496   0.804  0.00  0.00    +0.157 HD
ENDROOT
BRANCH   1  18
ATOM     15  C   UNL     1       7.393   9.164   0.616  0.00  0.00    +0.121 A 
ATOM     16  C   UNL     1       6.605   9.026  -0.518  0.00  0.00    +0.047 A 
ATOM     17  C   UNL     1       5.314   9.516  -0.526  0.00  0.00    +0.030 A 
ATOM     18  C   UNL     1       4.804  10.146   0.601  0.00  0.00    +0.051 A 
ATOM     19  C   UNL     1       5.594  10.288   1.734  0.00  0.00    +0.030 A 
ATOM     20  C   UNL     1       6.883   9.794   1.743  0.00  0.00    +0.047 A 
BRANCH  15  21
ATOM     21  O   UNL     1       8.664   8.682   0.624  0.00  0.00    -0.492 OA
BRANCH  21  23
ATOM     22  C   UNL     1      10.813   8.258   1.645  0.00  0.00    +0.048 C 
ATOM     23  C   UNL     1       9.418   8.859   1.825  0.00  0.00    +0.225 C 
ENDBRANCH  21  23
ENDBRANCH  15  21
ENDBRANCH   1  18
BRANCH  11  24
ATOM     24  S   UNL     1       2.753   8.059   0.352  0.00  0.00    -0.078 S 
BRANCH  24  25
ATOM     25  C   UNL     1       1.059   7.433   0.245  0.00  0.00    +0.173 C 
BRANCH  25  26
ATOM     26  C   UNL     1       1.085   5.931   0.123  0.00  0.00    +0.227 C 
ATOM     27  O   UNL     1       2.146   5.342   0.111  0.00  0.00    -0.275 OA
ATOM     28  N   UNL     1      -0.069   5.242   0.029  0.00  0.00    -0.285 N 
ATOM     29  H   UNL     1      -1.026   5.779  -0.047  0.00  0.00    +0.155 HD
BRANCH  28  30
ATOM     30  C   UNL     1      -0.051   3.842   0.028  0.00  0.00    +0.034 A 
ATOM     31  C   UNL     1       0.907   3.158   0.765  0.00  0.00    +0.023 A 
ATOM     32  C   UNL     1       0.922   1.778   0.762  0.00  0.00    +0.002 A 
ATOM     33  C   UNL     1      -0.014   1.076   0.025  0.00  0.00    +0.003 A 
ATOM     34  C   UNL     1      -0.966   1.754  -0.714  0.00  0.00    -0.049 A 
ATOM     35  C   UNL     1      -0.990   3.135  -0.711  0.00  0.00    +0.026 A 
ATOM     36  C   UNL     1      -1.981   0.985  -1.521  0.00  0.00    +0.044 C 
ENDBRANCH  28  30
ENDBRANCH  25  26
ENDBRANCH  24  25
ENDBRANCH  11  24
TORSDOF 7
