REMARK  Name = ZINC63389915
REMARK  5 active torsions:
REMARK  status: ('A' for Active; 'I' for Inactive)
REMARK    1  A    between atoms: N_4  and  C_6
REMARK    2  A    between atoms: C_12  and  C_13
REMARK    3  A    between atoms: N_15  and  C_16
REMARK    4  A    between atoms: C_16  and  C_17
REMARK    5  A    between atoms: C_17  and  C_18
REMARK                            x       y       z     vdW  Elec       q    Type
REMARK                         _______ _______ _______ _____ _____    ______ ____
ROOT
ATOM      1  C   UNL     1      -1.620  -3.642   1.644  0.00  0.00    +0.238 C 
ATOM      2  O   UNL     1      -0.785  -3.193   2.410  0.00  0.00    -0.271 OA
ATOM      3  N   UNL     1      -2.770  -4.154   2.126  0.00  0.00    -0.311 N 
ATOM      4  H   UNL     1      -3.434  -4.511   1.516  0.00  0.00    +0.149 HD
ENDROOT
BRANCH   1  10
ATOM      5  C   UNL     1       1.896  -2.046   0.088  0.00  0.00    +0.233 C 
ATOM      6  N   UNL     1       0.850  -2.959   0.599  0.00  0.00    -0.318 N 
ATOM      7  C   UNL     1      -0.186  -3.222  -0.225  0.00  0.00    +0.021 C 
ATOM      8  C   UNL     1       0.060  -3.044  -1.715  0.00  0.00    +0.123 C 
ATOM      9  S   UNL     1       1.784  -2.389  -1.722  0.00  0.00    -0.111 S 
ATOM     10  C   UNL     1      -1.382  -3.624   0.250  0.00  0.00    +0.086 C 
ATOM     11  H   UNL     1       0.906  -3.350   1.485  0.00  0.00    +0.149 HD
BRANCH   5  15
ATOM     12  C   UNL     1       0.423   1.175   0.816  0.00  0.00    +0.019 A 
ATOM     13  C   UNL     1       1.794   1.499   0.790  0.00  0.00    +0.019 A 
ATOM     14  C   UNL     1       2.472   0.364   0.524  0.00  0.00    +0.088 A 
ATOM     15  N   UNL     1       1.571  -0.648   0.384  0.00  0.00    -0.326 N 
ATOM     16  C   UNL     1       0.316  -0.145   0.563  0.00  0.00    +0.088 A 
ENDBRANCH   5  15
ENDBRANCH   1  10
BRANCH   3  17
ATOM     17  C   UNL     1      -3.016  -4.171   3.570  0.00  0.00    +0.109 C 
BRANCH  17  18
ATOM     18  C   UNL     1      -4.383  -4.800   3.847  0.00  0.00    +0.052 C 
BRANCH  18  19
ATOM     19  C   UNL     1      -4.636  -4.819   5.332  0.00  0.00    -0.040 C 
ATOM     20  C   UNL     1      -5.321  -3.901   6.052  0.00  0.00    +0.000 A 
ATOM     21  C   UNL     1      -6.008  -2.658   5.681  0.00  0.00    +0.030 A 
ATOM     22  C   UNL     1      -6.620  -1.933   6.646  0.00  0.00    +0.042 A 
ATOM     23  C   UNL     1      -6.612  -2.338   7.989  0.00  0.00    +0.022 A 
ATOM     24  C   UNL     1      -6.001  -3.467   8.406  0.00  0.00    +0.027 A 
ATOM     25  C   UNL     1      -5.327  -4.306   7.476  0.00  0.00    +0.043 A 
ATOM     26  N   UNL     1      -4.672  -5.431   7.630  0.00  0.00    -0.380 N 
ATOM     27  C   UNL     1      -4.180  -5.870   6.319  0.00  0.00    +0.144 C 
ATOM     28 CL   UNL     1      -7.434  -0.463   6.211  0.00  0.00    -0.084 Cl
ATOM     29  H   UNL     1      -4.538  -5.897   8.470  0.00  0.00    +0.160 HD
ENDBRANCH  18  19
ENDBRANCH  17  18
ENDBRANCH   3  17
TORSDOF 5
