REMARK  Name = ZINC50359424
REMARK  6 active torsions:
REMARK  status: ('A' for Active; 'I' for Inactive)
REMARK    1  A    between atoms: C_2  and  C_8
REMARK    2  A    between atoms: C_8  and  N_9
REMARK    3  A    between atoms: N_9  and  C_10
REMARK    4  A    between atoms: C_10  and  C_11
REMARK    5  A    between atoms: C_11  and  S_12
REMARK    6  A    between atoms: S_12  and  N_15
REMARK                            x       y       z     vdW  Elec       q    Type
REMARK                         _______ _______ _______ _____ _____    ______ ____
ROOT
ATOM      1  N   UNL     1       1.899   3.708   1.388  0.00  0.00    +0.385 N 
ATOM      2  H   UNL     1       1.016   3.643   1.872  0.00  0.00    -0.085 HD
ATOM      3  H   UNL     1       2.582   3.130   1.855  0.00  0.00    -0.085 HD
ENDROOT
BRANCH   1   4
ATOM      4  C   UNL     1       1.734   3.250   0.003  0.00  0.00    -0.007 C 
BRANCH   4   6
ATOM      5  C   UNL     1      -0.017   1.410   0.010  0.00  0.00    +0.059 A 
ATOM      6  C   UNL     1       1.265   1.818  -0.000  0.00  0.00    +0.091 A 
ATOM      7  O   UNL     1       2.056   0.732  -0.014  0.00  0.00    -0.454 OA
ATOM      8  C   UNL     1       1.296  -0.376  -0.012  0.00  0.00    +0.184 A 
ATOM      9  C   UNL     1       0.002  -0.004   0.002  0.00  0.00    +0.070 A 
ATOM     10 BR   UNL     1      -1.501  -1.152   0.011  0.00  0.00    -0.046 Br
ATOM     11 BR   UNL     1       1.936  -2.156  -0.029  0.00  0.00    -0.007 Br
ENDBRANCH   4   6
ENDBRANCH   1   4
BRANCH   1  12
ATOM     12  C   UNL     1       2.357   5.104   1.391  0.00  0.00    -0.058 C 
BRANCH  12  13
ATOM     13  C   UNL     1       2.529   5.582   2.834  0.00  0.00    +0.166 C 
BRANCH  13  14
ATOM     14  S   UNL     1       3.094   7.305   2.838  0.00  0.00    +0.025 S 
ATOM     15  O   UNL     1       4.415   7.389   2.320  0.00  0.00    -0.158 OA
ATOM     16  O   UNL     1       2.068   8.157   2.346  0.00  0.00    -0.158 OA
BRANCH  14  17
ATOM     17  N   UNL     1       3.241   7.702   4.439  0.00  0.00    -0.208 NA
ATOM     18  H   UNL     1       3.034   7.045   5.122  0.00  0.00    +0.144 HD
ATOM     19  H   UNL     1       3.535   8.590   4.693  0.00  0.00    +0.144 HD
ENDBRANCH  14  17
ENDBRANCH  13  14
ENDBRANCH  12  13
ENDBRANCH   1  12
TORSDOF 6
