REMARK  Name = ZINC15064590
REMARK  7 active torsions:
REMARK  status: ('A' for Active; 'I' for Inactive)
REMARK    1  A    between atoms: C_5  and  C_7
REMARK    2  A    between atoms: C_7  and  N_8
REMARK    3  A    between atoms: C_12  and  C_15
REMARK    4  A    between atoms: C_12  and  O_26
REMARK    5  A    between atoms: C_15  and  N_51
REMARK    6  A    between atoms: C_16  and  C_17
REMARK    7  A    between atoms: C_16  and  N_51
REMARK                            x       y       z     vdW  Elec       q    Type
REMARK                         _______ _______ _______ _____ _____    ______ ____
ROOT
ATOM      1  N   UNL     1       2.677   4.499  -1.335  0.00  0.00    -0.295 N 
ATOM      2  C   UNL     1       3.419   3.696  -2.300  0.00  0.00    +0.108 C 
ATOM      3  C   UNL     1       3.154   4.195  -3.723  0.00  0.00    +0.022 C 
ATOM      4  C   UNL     1       3.393   5.709  -3.762  0.00  0.00    +0.044 C 
ATOM      5  C   UNL     1       2.309   6.391  -2.924  0.00  0.00    +0.127 C 
ATOM      6  C   UNL     1       2.194   5.715  -1.588  0.00  0.00    +0.246 C 
ATOM      7  O   UNL     1       1.631   6.308  -0.692  0.00  0.00    -0.273 OA
ENDROOT
BRANCH   5   8
ATOM      8  O   UNL     1       1.057   6.307  -3.608  0.00  0.00    -0.381 OA
ATOM      9  H   UNL     1       0.323   6.725  -3.139  0.00  0.00    +0.211 HD
ENDBRANCH   5   8
BRANCH   1  10
ATOM     10  C   UNL     1       2.453   3.935  -0.001  0.00  0.00    +0.145 C 
BRANCH  10  15
ATOM     11  C   UNL     1      -0.013   1.076   0.008  0.00  0.00    +0.000 A 
ATOM     12  C   UNL     1      -1.220   1.750   0.017  0.00  0.00    +0.003 A 
ATOM     13  C   UNL     1      -1.240   3.132   0.030  0.00  0.00    +0.038 A 
ATOM     14  C   UNL     1      -0.050   3.841   0.022  0.00  0.00    +0.128 A 
ATOM     15  C   UNL     1       1.158   3.165   0.007  0.00  0.00    +0.005 A 
ATOM     16  C   UNL     1       1.175   1.783   0.000  0.00  0.00    +0.008 A 
ATOM     17  F   UNL     1      -0.068   5.192   0.030  0.00  0.00    -0.205 F 
ENDBRANCH  10  15
ENDBRANCH   1  10
BRANCH   5  18
ATOM     18  C   UNL     1       2.678   7.862  -2.720  0.00  0.00    -0.037 C 
BRANCH  18  19
ATOM     19  N   UNL     1       1.690   8.488  -1.821  0.00  0.00    +0.385 N 
ATOM     20  H   UNL     1       1.695   7.998  -0.919  0.00  0.00    -0.085 HD
ATOM     21  H   UNL     1       0.756   8.418  -2.243  0.00  0.00    -0.085 HD
BRANCH  19  22
ATOM     22  C   UNL     1       2.021   9.909  -1.606  0.00  0.00    -0.024 C 
BRANCH  22  23
ATOM     23  C   UNL     1       0.996  10.521  -0.686  0.00  0.00    +0.049 A 
ATOM     24  C   UNL     1      -0.196  11.144  -1.082  0.00  0.00    -0.006 A 
ATOM     25  C   UNL     1      -0.838  11.556   0.033  0.00  0.00    +0.039 A 
ATOM     26  N   UNL     1      -0.077  11.216   1.097  0.00  0.00    -0.281 N 
ATOM     27  H   UNL     1      -0.293  11.395   2.057  0.00  0.00    +0.189 HD
ATOM     28  N   UNL     1       1.068  10.568   0.619  0.00  0.00    -0.180 NA
ATOM     29  C   UNL     1      -2.141  12.234  -0.332  0.00  0.00    +0.055 C 
ATOM     30  C   UNL     1      -2.425  11.797  -1.786  0.00  0.00    +0.011 C 
ATOM     31  C   UNL     1      -1.005  11.493  -2.312  0.00  0.00    +0.039 C 
ENDBRANCH  22  23
ENDBRANCH  19  22
ENDBRANCH  18  19
ENDBRANCH   5  18
TORSDOF 7
