REMARK  Name = ZINC10042655
REMARK  12 active torsions:
REMARK  status: ('A' for Active; 'I' for Inactive)
REMARK    1  A    between atoms: C_1  and  C_2
REMARK    2  A    between atoms: C_2  and  C_3
REMARK    3  A    between atoms: C_2  and  C_4
REMARK    4  A    between atoms: C_4  and  C_6
REMARK    5  A    between atoms: C_4  and  N_21
REMARK    6  A    between atoms: N_8  and  N_9
REMARK    7  A    between atoms: C_10  and  C_11
REMARK    8  A    between atoms: C_15  and  O_19
REMARK    9  A    between atoms: C_16  and  O_17
REMARK   10  A    between atoms: O_17  and  C_18
REMARK   11  A    between atoms: O_19  and  C_20
REMARK   12  A    between atoms: C_22  and  C_24
REMARK                            x       y       z     vdW  Elec       q    Type
REMARK                         _______ _______ _______ _____ _____    ______ ____
ROOT
ATOM      1  C   UNL     1       5.715   4.005   1.589  0.00  0.00    +0.163 C 
ENDROOT
BRANCH   1   2
ATOM      2  C   UNL     1       5.282   5.434   1.383  0.00  0.00    +0.253 C 
ATOM      3  O   UNL     1       4.112   5.736   1.500  0.00  0.00    -0.272 OA
ATOM      4  N   UNL     1       6.193   6.376   1.069  0.00  0.00    -0.205 N 
ATOM      5  H   UNL     1       7.115   6.123   0.905  0.00  0.00    +0.177 HD
BRANCH   4   6
ATOM      6  N   UNL     1       5.809   7.720   0.980  0.00  0.00    -0.188 NA
ATOM      7  C   UNL     1       6.658   8.612   0.568  0.00  0.00    +0.142 C 
BRANCH   7   8
ATOM      8  C   UNL     1       7.928   8.190  -0.048  0.00  0.00    +0.040 A 
ATOM      9  C   UNL     1       8.026   6.944  -0.674  0.00  0.00    +0.013 A 
ATOM     10  C   UNL     1       9.216   6.554  -1.250  0.00  0.00    +0.004 A 
ATOM     11  C   UNL     1      10.319   7.390  -1.211  0.00  0.00    +0.049 A 
ATOM     12  C   UNL     1      10.237   8.628  -0.594  0.00  0.00    +0.162 A 
ATOM     13  C   UNL     1       9.042   9.038  -0.014  0.00  0.00    +0.170 A 
BRANCH  13  14
ATOM     14  O   UNL     1       8.956  10.254   0.587  0.00  0.00    -0.491 OA
ATOM     15  C   UNL     1       9.371  10.334   1.952  0.00  0.00    +0.277 C 
ENDBRANCH  13  14
BRANCH  12  16
ATOM     16  O   UNL     1      11.324   9.444  -0.560  0.00  0.00    -0.491 OA
ATOM     17  C   UNL     1      12.517   8.961  -1.180  0.00  0.00    +0.277 C 
ENDBRANCH  12  16
ENDBRANCH   7   8
ENDBRANCH   4   6
ENDBRANCH   1   2
BRANCH   1  18
ATOM     18  N   UNL     1       4.655   3.269   2.281  0.00  0.00    -0.300 N 
ATOM     19  C   UNL     1       4.959   2.177   3.011  0.00  0.00    +0.245 C 
ATOM     20  O   UNL     1       6.113   1.804   3.094  0.00  0.00    -0.270 OA
ATOM     21  H   UNL     1       3.734   3.567   2.215  0.00  0.00    +0.150 HD
BRANCH  19  22
ATOM     22  C   UNL     1       3.890   1.434   3.710  0.00  0.00    +0.038 A 
ATOM     23  C   UNL     1       2.563   1.861   3.617  0.00  0.00    +0.014 A 
ATOM     24  C   UNL     1       1.570   1.164   4.272  0.00  0.00    +0.022 A 
ATOM     25  C   UNL     1       1.884   0.043   5.021  0.00  0.00    +0.059 A 
ATOM     26  C   UNL     1       3.199  -0.387   5.117  0.00  0.00    +0.060 A 
ATOM     27  C   UNL     1       4.202   0.303   4.466  0.00  0.00    +0.034 A 
ATOM     28 CL   UNL     1       3.584  -1.794   6.058  0.00  0.00    -0.082 Cl
ATOM     29 CL   UNL     1       0.628  -0.829   5.843  0.00  0.00    -0.082 Cl
ENDBRANCH  19  22
ENDBRANCH   1  18
BRANCH   1  31
ATOM     30  C   UNL     1       6.462   1.915   0.441  0.00  0.00    +0.009 C 
ATOM     31  C   UNL     1       5.984   3.354   0.231  0.00  0.00    +0.012 C 
ATOM     32  C   UNL     1       4.698   3.348  -0.597  0.00  0.00    +0.009 C 
ENDBRANCH   1  31
TORSDOF 8
