REMARK  Name = ZINC08773128
REMARK  5 active torsions:
REMARK  status: ('A' for Active; 'I' for Inactive)
REMARK    1  A    between atoms: C_1  and  C_2
REMARK    2  A    between atoms: C_9  and  C_27
REMARK    3  A    between atoms: C_11  and  C_18
REMARK    4  A    between atoms: C_22  and  N_24
REMARK    5  A    between atoms: C_27  and  C_29
REMARK                            x       y       z     vdW  Elec       q    Type
REMARK                         _______ _______ _______ _____ _____    ______ ____
ROOT
ATOM      1  C   UNL     1      -2.035  -2.724   0.469  0.00  0.00    +0.044 C 
ATOM      2  C   UNL     1      -0.591  -2.858   0.878  0.00  0.00    -0.050 A 
ATOM      3  C   UNL     1      -0.175  -3.960   1.604  0.00  0.00    +0.005 A 
ATOM      4  C   UNL     1       1.145  -4.088   1.981  0.00  0.00    +0.024 A 
ATOM      5  C   UNL     1       2.072  -3.108   1.633  0.00  0.00    +0.036 A 
ATOM      6  C   UNL     1       1.642  -2.005   0.901  0.00  0.00    -0.027 A 
ATOM      7  C   UNL     1       0.323  -1.880   0.527  0.00  0.00    +0.008 A 
ATOM      8  C   UNL     1       2.861  -1.149   0.689  0.00  0.00    +0.052 C 
ATOM      9  C   UNL     1       2.671   0.246   1.290  0.00  0.00    +0.069 C 
ATOM     10  C   UNL     1       2.389   1.171   0.088  0.00  0.00    +0.016 C 
ATOM     11  C   UNL     1       2.415   0.252  -1.147  0.00  0.00    -0.047 C 
ATOM     12  C   UNL     1       4.614  -0.835  -0.947  0.00  0.00    -0.005 C 
ATOM     13  S   UNL     1       4.625   0.046  -2.571  0.00  0.00    -0.181 S 
ATOM     14  C   UNL     1       3.069   1.004  -2.325  0.00  0.00    +0.052 C 
ATOM     15  C   UNL     1       3.978  -1.891   1.375  0.00  0.00    +0.212 C 
ATOM     16  O   UNL     1       5.139  -1.546   1.447  0.00  0.00    -0.277 OA
ATOM     17  N   UNL     1       3.440  -3.011   1.893  0.00  0.00    -0.286 N 
ATOM     18  H   UNL     1       3.945  -3.674   2.390  0.00  0.00    +0.155 HD
ATOM     19  N   UNL     1       3.127  -0.963  -0.727  0.00  0.00    +0.401 N 
ATOM     20  H   UNL     1       2.776  -1.769  -1.259  0.00  0.00    -0.078 HD
ENDROOT
BRANCH  10  21
ATOM     21  C   UNL     1       1.034   1.814   0.230  0.00  0.00    -0.043 A 
ATOM     22  C   UNL     1       0.020   1.152   0.898  0.00  0.00    +0.004 A 
ATOM     23  C   UNL     1      -1.224   1.740   1.024  0.00  0.00    +0.002 A 
ATOM     24  C   UNL     1      -1.453   2.995   0.492  0.00  0.00    +0.033 A 
ATOM     25  C   UNL     1      -0.439   3.658  -0.175  0.00  0.00    +0.126 A 
ATOM     26  C   UNL     1       0.804   3.067  -0.306  0.00  0.00    +0.036 A 
BRANCH  25  27
ATOM     27  N   UNL     1      -0.685   5.000  -0.749  0.00  0.00    +0.056 N 
ATOM     28  O   UNL     1       0.208   5.585  -1.336  0.00  0.00    -0.126 OA
ATOM     29  O   UNL     1      -1.780   5.521  -0.633  0.00  0.00    -0.126 OA
ENDBRANCH  25  27
ENDBRANCH  10  21
BRANCH   9  30
ATOM     30  C   UNL     1       3.924   0.684   2.003  0.00  0.00    +0.166 C 
ATOM     31  O   UNL     1       4.797   1.264   1.394  0.00  0.00    -0.292 OA
BRANCH  30  32
ATOM     32  C   UNL     1       4.088   0.407   3.439  0.00  0.00    +0.018 A 
ATOM     33  C   UNL     1       3.081  -0.256   4.147  0.00  0.00    +0.011 A 
ATOM     34  C   UNL     1       3.244  -0.515   5.492  0.00  0.00    +0.001 A 
ATOM     35  C   UNL     1       4.397  -0.112   6.143  0.00  0.00    +0.000 A 
ATOM     36  C   UNL     1       5.396   0.549   5.450  0.00  0.00    +0.001 A 
ATOM     37  C   UNL     1       5.250   0.812   4.105  0.00  0.00    +0.011 A 
ENDBRANCH  30  32
ENDBRANCH   9  30
TORSDOF 4
