REMARK  Name = ZINC43064723
REMARK  14 active torsions:
REMARK  status: ('A' for Active; 'I' for Inactive)
REMARK    1  A    between atoms: C_1  and  C_2
REMARK    2  A    between atoms: C_2  and  C_3
REMARK    3  A    between atoms: C_2  and  N_4
REMARK    4  A    between atoms: N_4  and  C_5
REMARK    5  A    between atoms: N_4  and  C_24
REMARK    6  A    between atoms: C_5  and  C_6
REMARK    7  A    between atoms: C_6  and  N_7
REMARK    8  A    between atoms: N_10  and  N_11
REMARK    9  A    between atoms: C_12  and  C_14
REMARK   10  A    between atoms: C_14  and  O_15
REMARK   11  A    between atoms: O_15  and  C_16
REMARK   12  A    between atoms: C_19  and  C_22
REMARK   13  A    between atoms: C_24  and  C_25
REMARK   14  A    between atoms: C_24  and  C_26
REMARK                            x       y       z     vdW  Elec       q    Type
REMARK                         _______ _______ _______ _____ _____    ______ ____
ROOT
ATOM      1  N   UNL     1      -4.520   0.820  -1.906  0.00  0.00    -0.300 N 
ATOM      2  C   UNL     1      -5.723   1.403  -1.734  0.00  0.00    +0.316 C 
ATOM      3  O   UNL     1      -6.143   1.614  -0.613  0.00  0.00    -0.251 OA
ATOM      4  N   UNL     1      -6.462   1.752  -2.807  0.00  0.00    -0.218 N 
ATOM      5  H   UNL     1      -4.186   0.652  -2.800  0.00  0.00    +0.150 HD
ATOM      6  H   UNL     1      -7.328   2.172  -2.683  0.00  0.00    +0.174 HD
ENDROOT
BRANCH   4   7
ATOM      7  N   UNL     1      -5.979   1.509  -4.099  0.00  0.00    -0.230 N 
ATOM      8  C   UNL     1      -6.717   1.858  -5.171  0.00  0.00    +0.267 C 
ATOM      9  O   UNL     1      -7.800   2.382  -5.017  0.00  0.00    -0.271 OA
ATOM     10  H   UNL     1      -5.113   1.089  -4.222  0.00  0.00    +0.173 HD
BRANCH   8  11
ATOM     11  C   UNL     1      -6.197   1.596  -6.561  0.00  0.00    +0.326 C 
BRANCH  11  12
ATOM     12  O   UNL     1      -7.154   2.051  -7.521  0.00  0.00    -0.483 OA
BRANCH  12  13
ATOM     13  C   UNL     1      -6.838   1.889  -8.831  0.00  0.00    +0.121 A 
ATOM     14  C   UNL     1      -5.631   1.297  -9.184  0.00  0.00    +0.047 A 
ATOM     15  C   UNL     1      -5.307   1.129 -10.512  0.00  0.00    +0.022 A 
ATOM     16  C   UNL     1      -6.193   1.556 -11.505  0.00  0.00    +0.052 A 
ATOM     17  C   UNL     1      -7.405   2.151 -11.145  0.00  0.00    +0.022 A 
ATOM     18  C   UNL     1      -7.724   2.310  -9.815  0.00  0.00    +0.047 A 
BRANCH  16  19
ATOM     19  C   UNL     1      -5.859   1.385 -12.887  0.00  0.00    +0.099 C 
ATOM     20  N   UNL     1      -5.595   1.249 -13.983  0.00  0.00    -0.191 NA
ENDBRANCH  16  19
ENDBRANCH  12  13
ENDBRANCH  11  12
ENDBRANCH   8  11
ENDBRANCH   4   7
BRANCH   1  21
ATOM     21  C   UNL     1      -3.718   0.441  -0.740  0.00  0.00    +0.087 C 
BRANCH  21  22
ATOM     22  C   UNL     1      -2.408  -0.196  -1.208  0.00  0.00    -0.059 C 
BRANCH  22  23
ATOM     23  N   UNL     1      -1.616  -0.603  -0.040  0.00  0.00    +0.384 N 
ATOM     24  H   UNL     1      -1.479   0.191   0.567  0.00  0.00    -0.081 HD
BRANCH  23  26
ATOM     25  C   UNL     1       0.420  -0.018  -1.267  0.00  0.00    -0.014 C 
ATOM     26  C   UNL     1      -0.311  -1.110  -0.485  0.00  0.00    -0.074 C 
ATOM     27  C   UNL     1       0.523  -1.511   0.733  0.00  0.00    -0.014 C 
ENDBRANCH  23  26
BRANCH  23  28
ATOM     28  C   UNL     1      -2.329  -1.660   0.690  0.00  0.00    -0.074 C 
ATOM     29  C   UNL     1      -2.028  -3.016   0.048  0.00  0.00    -0.014 C 
ATOM     30  C   UNL     1      -1.868  -1.673   2.148  0.00  0.00    -0.014 C 
ENDBRANCH  23  28
ENDBRANCH  22  23
ENDBRANCH  21  22
ENDBRANCH   1  21
TORSDOF 10
