REMARK  Name = ZINC65770014
REMARK  5 active torsions:
REMARK  status: ('A' for Active; 'I' for Inactive)
REMARK    1  A    between atoms: C_1  and  C_2
REMARK    2  A    between atoms: N_13  and  C_14
REMARK    3  A    between atoms: C_18  and  C_20
REMARK    4  A    between atoms: C_20  and  N_21
REMARK    5  A    between atoms: C_25  and  C_26
REMARK                            x       y       z     vdW  Elec       q    Type
REMARK                         _______ _______ _______ _____ _____    ______ ____
ROOT
ATOM      1  C   UNL     1       3.192   0.743   3.544  0.00  0.00    +0.035 A 
ATOM      2  C   UNL     1       3.183   2.103   3.264  0.00  0.00    +0.023 A 
ATOM      3  C   UNL     1       3.933   2.970   4.034  0.00  0.00    +0.002 A 
ATOM      4  C   UNL     1       4.693   2.485   5.083  0.00  0.00    +0.002 A 
ATOM      5  C   UNL     1       4.704   1.131   5.364  0.00  0.00    -0.062 A 
ATOM      6  C   UNL     1       3.951   0.260   4.602  0.00  0.00    +0.025 A 
ENDROOT
BRANCH   1  19
ATOM      7  C   UNL     1      -1.120   1.244   1.412  0.00  0.00    +0.033 C 
ATOM      8  C   UNL     1      -0.767  -0.168   0.941  0.00  0.00    +0.105 C 
ATOM      9  C   UNL     1      -1.879  -1.139   1.334  0.00  0.00    -0.017 A 
ATOM     10  C   UNL     1      -3.231  -0.880   1.113  0.00  0.00    +0.013 A 
ATOM     11  C   UNL     1      -4.163  -1.788   1.485  0.00  0.00    +0.046 A 
ATOM     12  S   UNL     1      -3.154  -3.086   2.183  0.00  0.00    -0.101 S 
ATOM     13  C   UNL     1      -1.573  -2.322   1.931  0.00  0.00    -0.004 A 
ATOM     14  C   UNL     1      -0.221  -2.847   2.291  0.00  0.00    +0.062 C 
ATOM     15  C   UNL     1       0.840  -2.037   1.529  0.00  0.00    +0.115 C 
ATOM     16  N   UNL     1       0.471  -0.616   1.594  0.00  0.00    -0.278 N 
ATOM     17  C   UNL     1       1.257   0.265   2.244  0.00  0.00    +0.307 C 
ATOM     18  O   UNL     1       0.906   1.424   2.360  0.00  0.00    -0.252 OA
ATOM     19  N   UNL     1       2.433  -0.138   2.766  0.00  0.00    -0.269 N 
ATOM     20  H   UNL     1       2.752  -1.039   2.602  0.00  0.00    +0.156 HD
ENDBRANCH   1  19
BRANCH   5  21
ATOM     21  C   UNL     1       5.534   0.607   6.508  0.00  0.00    -0.042 C 
BRANCH  21  22
ATOM     22  N   UNL     1       4.729   0.606   7.737  0.00  0.00    +0.390 N 
ATOM     23  C   UNL     1       3.653  -0.414   7.643  0.00  0.00    -0.077 C 
ATOM     24  C   UNL     1       3.293  -0.685   9.126  0.00  0.00    -0.020 C 
ATOM     25  C   UNL     1       4.666  -0.617   9.833  0.00  0.00    -0.008 C 
ATOM     26  C   UNL     1       5.562   0.208   8.892  0.00  0.00    +0.019 C 
ATOM     27  H   UNL     1       4.331   1.520   7.893  0.00  0.00    -0.080 HD
BRANCH  26  28
ATOM     28  C   UNL     1       6.067   1.435   9.608  0.00  0.00    +0.197 C 
ATOM     29  O   UNL     1       5.768   2.538   9.204  0.00  0.00    -0.278 OA
ATOM     30  N   UNL     1       6.851   1.305  10.696  0.00  0.00    -0.331 N 
ATOM     31  H   UNL     1       7.090   0.422  11.019  0.00  0.00    +0.145 HD
ATOM     32  H   UNL     1       7.175   2.094  11.157  0.00  0.00    +0.145 HD
ENDBRANCH  26  28
ENDBRANCH  21  22
ENDBRANCH   5  21
TORSDOF 4
