REMARK  Name = ZINC28914821
REMARK  10 active torsions:
REMARK  status: ('A' for Active; 'I' for Inactive)
REMARK    1  A    between atoms: C_1  and  C_2
REMARK    2  A    between atoms: C_4  and  C_28
REMARK    3  A    between atoms: C_5  and  N_9
REMARK    4  A    between atoms: C_6  and  C_8
REMARK    5  A    between atoms: C_10  and  C_12
REMARK    6  A    between atoms: C_12  and  N_13
REMARK    7  A    between atoms: N_22  and  C_23
REMARK    8  A    between atoms: C_23  and  C_24
REMARK    9  A    between atoms: C_24  and  C_26
REMARK   10  A    between atoms: C_24  and  O_27
REMARK                            x       y       z     vdW  Elec       q    Type
REMARK                         _______ _______ _______ _____ _____    ______ ____
ROOT
ATOM      1  N   UNL     1      -5.971   2.899  -1.278  0.00  0.00    -0.305 N 
ATOM      2  C   UNL     1      -6.829   2.131  -0.508  0.00  0.00    +0.068 A 
ATOM      3  C   UNL     1      -7.037   1.997   0.857  0.00  0.00    +0.028 A 
ATOM      4  C   UNL     1      -7.996   1.122   1.323  0.00  0.00    +0.002 A 
ATOM      5  C   UNL     1      -8.755   0.373   0.435  0.00  0.00    +0.002 A 
ATOM      6  C   UNL     1      -8.562   0.493  -0.923  0.00  0.00    +0.028 A 
ATOM      7  C   UNL     1      -7.595   1.375  -1.411  0.00  0.00    +0.065 A 
ATOM      8  N   UNL     1      -7.180   1.708  -2.662  0.00  0.00    -0.327 N 
ATOM      9  C   UNL     1      -6.231   2.607  -2.586  0.00  0.00    +0.175 A 
ATOM     10  N   UNL     1      -5.586   3.171  -3.667  0.00  0.00    -0.314 N 
ATOM     11  H   UNL     1      -4.795   3.919  -3.506  0.00  0.00    +0.149 HD
ATOM     12  H   UNL     1      -7.642   1.231  -3.539  0.00  0.00    +0.169 HD
ENDROOT
BRANCH   1  13
ATOM     13  C   UNL     1      -4.975   3.851  -0.781  0.00  0.00    +0.221 C 
BRANCH  13  15
ATOM     14  N   UNL     1      -2.595   3.822  -0.108  0.00  0.00    -0.284 N 
ATOM     15  C   UNL     1      -3.664   3.140  -0.565  0.00  0.00    +0.237 C 
ATOM     16  O   UNL     1      -3.571   1.955  -0.802  0.00  0.00    -0.274 OA
ATOM     17  H   UNL     1      -2.700   4.877   0.185  0.00  0.00    +0.155 HD
BRANCH  14  22
ATOM     18  C   UNL     1       2.445   1.251   0.304  0.00  0.00    +0.044 C 
ATOM     19  C   UNL     1       1.106   1.934   0.195  0.00  0.00    -0.050 A 
ATOM     20  C   UNL     1       0.525   2.118  -1.046  0.00  0.00    +0.008 A 
ATOM     21  C   UNL     1      -0.700   2.748  -1.150  0.00  0.00    -0.029 A 
ATOM     22  C   UNL     1      -1.352   3.188  -0.006  0.00  0.00    +0.039 A 
ATOM     23  C   UNL     1      -0.766   3.002   1.239  0.00  0.00    -0.029 A 
ATOM     24  C   UNL     1       0.461   2.375   1.336  0.00  0.00    +0.008 A 
ATOM     25  C   UNL     1      -1.468   3.483   2.483  0.00  0.00    +0.045 C 
ATOM     26  C   UNL     1      -1.329   2.954  -2.504  0.00  0.00    +0.045 C 
ENDBRANCH  14  22
ENDBRANCH  13  15
ENDBRANCH   1  13
BRANCH  10  27
ATOM     27  C   UNL     1      -5.954   2.775  -5.028  0.00  0.00    +0.135 C 
BRANCH  27  28
ATOM     28  C   UNL     1      -5.094   3.544  -6.033  0.00  0.00    +0.128 C 
ATOM     29  C   UNL     1      -5.479   3.130  -7.455  0.00  0.00    +0.039 C 
BRANCH  28  30
ATOM     30  O   UNL     1      -5.311   4.947  -5.870  0.00  0.00    -0.391 OA
ATOM     31  H   UNL     1      -4.776   5.664  -6.510  0.00  0.00    +0.210 HD
ENDBRANCH  28  30
ENDBRANCH  27  28
ENDBRANCH  10  27
TORSDOF 6
