REMARK  Name = ZINC19737034
REMARK  5 active torsions:
REMARK  status: ('A' for Active; 'I' for Inactive)
REMARK    1  A    between atoms: C_1  and  C_2
REMARK    2  A    between atoms: C_1  and  C_4
REMARK    3  A    between atoms: C_2  and  N_3
REMARK    4  A    between atoms: C_4  and  N_5
REMARK    5  A    between atoms: N_5  and  C_6
REMARK                            x       y       z     vdW  Elec       q    Type
REMARK                         _______ _______ _______ _____ _____    ______ ____
ROOT
ATOM      1  C   UNL     1      -0.017   1.395   0.010  0.00  0.00    +0.067 A 
ATOM      2  C   UNL     1      -1.229   2.074   0.019  0.00  0.00    +0.083 A 
ATOM      3  C   UNL     1      -1.245   3.457   0.033  0.00  0.00    +0.081 A 
ATOM      4  C   UNL     1      -0.054   4.165   0.025  0.00  0.00    +0.080 A 
ATOM      5  C   UNL     1       1.155   3.490   0.010  0.00  0.00    +0.081 A 
ATOM      6  C   UNL     1       1.176   2.107   0.002  0.00  0.00    +0.083 A 
ATOM      7 CL   UNL     1       2.692   1.262  -0.018  0.00  0.00    -0.080 Cl
ATOM      8 CL   UNL     1       2.645   4.380   0.001  0.00  0.00    -0.080 Cl
ATOM      9 CL   UNL     1      -0.078   5.901   0.035  0.00  0.00    -0.080 Cl
ATOM     10 CL   UNL     1      -2.759   4.307   0.051  0.00  0.00    -0.080 Cl
ATOM     11 CL   UNL     1      -2.721   1.188   0.021  0.00  0.00    -0.080 Cl
ENDROOT
BRANCH   1  12
ATOM     12  N   UNL     1       0.002  -0.004   0.002  0.00  0.00    -0.342 N 
ATOM     13  H   UNL     1       0.432  -0.686  -0.746  0.00  0.00    +0.146 HD
BRANCH  12  14
ATOM     14  C   UNL     1      -0.665  -0.546   1.193  0.00  0.00    +0.100 C 
BRANCH  14  15
ATOM     15  C   UNL     1      -0.624  -2.075   1.149  0.00  0.00    -0.001 C 
BRANCH  15  16
ATOM     16  C   UNL     1      -1.319  -2.640   2.390  0.00  0.00    -0.085 C 
BRANCH  16  17
ATOM     17  N   UNL     1      -1.280  -4.107   2.348  0.00  0.00    +0.378 N 
ATOM     18  H   UNL     1      -1.779  -4.513   3.240  0.00  0.00    -0.090 HD
ATOM     19  H   UNL     1      -0.233  -4.446   2.328  0.00  0.00    -0.090 HD
ATOM     20  H   UNL     1      -1.798  -4.462   1.444  0.00  0.00    -0.090 HD
ENDBRANCH  16  17
ENDBRANCH  15  16
ENDBRANCH  14  15
ENDBRANCH  12  14
ENDBRANCH   1  12
TORSDOF 5
