REMARK  Name = ZINC00089498
REMARK  5 active torsions:
REMARK  status: ('A' for Active; 'I' for Inactive)
REMARK    1  A    between atoms: C_1  and  N_2
REMARK    2  A    between atoms: N_7  and  C_10
REMARK    3  A    between atoms: N_11  and  C_20
REMARK    4  A    between atoms: C_20  and  C_21
REMARK    5  A    between atoms: C_21  and  N_44
REMARK                            x       y       z     vdW  Elec       q    Type
REMARK                         _______ _______ _______ _____ _____    ______ ____
ROOT
ATOM      1  C   UNL     1      -1.567  -6.554   1.073  0.00  0.00    +0.155 C 
ATOM      2  N   UNL     1      -1.380  -5.178   1.539  0.00  0.00    -0.280 N 
ATOM      3  C   UNL     1      -1.403  -4.130   0.632  0.00  0.00    +0.170 A 
ATOM      4  C   UNL     1      -1.222  -2.834   1.101  0.00  0.00    +0.153 A 
ATOM      5  C   UNL     1      -1.021  -2.623   2.476  0.00  0.00    +0.282 A 
ATOM      6  O   UNL     1      -0.860  -1.495   2.909  0.00  0.00    -0.265 OA
ATOM      7  N   UNL     1      -1.009  -3.682   3.312  0.00  0.00    -0.262 N 
ATOM      8  C   UNL     1      -1.184  -4.932   2.848  0.00  0.00    +0.333 A 
ATOM      9  O   UNL     1      -1.167  -5.863   3.630  0.00  0.00    -0.246 OA
ATOM     10  C   UNL     1      -0.800  -3.468   4.746  0.00  0.00    +0.157 C 
ATOM     11  N   UNL     1      -1.292  -2.003  -0.010  0.00  0.00    -0.308 N 
ATOM     12  C   UNL     1      -1.513  -2.805  -1.085  0.00  0.00    +0.201 A 
ATOM     13  N   UNL     1      -1.571  -4.061  -0.690  0.00  0.00    -0.196 NA
ATOM     14  N   UNL     1      -1.651  -2.373  -2.384  0.00  0.00    -0.301 N 
ATOM     15  C   UNL     1      -2.989  -2.687  -2.904  0.00  0.00    +0.108 C 
ATOM     16  C   UNL     1      -3.156  -2.067  -4.292  0.00  0.00    +0.019 C 
ATOM     17  C   UNL     1      -2.080  -2.624  -5.229  0.00  0.00    +0.003 C 
ATOM     18  C   UNL     1      -0.699  -2.326  -4.640  0.00  0.00    +0.019 C 
ATOM     19  C   UNL     1      -0.602  -2.939  -3.241  0.00  0.00    +0.108 C 
ENDROOT
BRANCH  11  20
ATOM     20  C   UNL     1      -1.161  -0.544  -0.020  0.00  0.00    +0.106 C 
BRANCH  20  21
ATOM     21  C   UNL     1       0.315  -0.167  -0.163  0.00  0.00    -0.064 C 
BRANCH  21  24
ATOM     22  H   UNL     1       1.414   1.571  -0.267  0.00  0.00    -0.090 HD
ATOM     23  H   UNL     1      -0.117   1.706  -0.902  0.00  0.00    -0.090 HD
ATOM     24  N   UNL     1       0.439   1.302  -0.150  0.00  0.00    +0.379 N 
ATOM     25  H   UNL     1       0.097   1.661   0.749  0.00  0.00    -0.090 HD
ENDBRANCH  21  24
ENDBRANCH  20  21
ENDBRANCH  11  20
TORSDOF 3
