REMARK  Name = ZINC09310400
REMARK  3 active torsions:
REMARK  status: ('A' for Active; 'I' for Inactive)
REMARK    1  A    between atoms: C_4  and  N_7
REMARK    2  A    between atoms: N_14  and  N_15
REMARK    3  A    between atoms: N_29  and  C_30
REMARK                            x       y       z     vdW  Elec       q    Type
REMARK                         _______ _______ _______ _____ _____    ______ ____
ROOT
ATOM      1  N   UNL     1       3.220  -0.651   0.912  0.00  0.00    -0.285 N 
ATOM      2  C   UNL     1       3.253  -2.032   0.871  0.00  0.00    +0.203 A 
ATOM      3  N   UNL     1       2.292  -2.701   0.240  0.00  0.00    -0.300 N 
ATOM      4  C   UNL     1       2.322  -4.030   0.200  0.00  0.00    +0.203 A 
ATOM      5  N   UNL     1       3.313  -4.691   0.790  0.00  0.00    -0.181 NA
ATOM      6  C   UNL     1       4.275  -4.022   1.422  0.00  0.00    +0.241 A 
ATOM      7  N   UNL     1       4.247  -2.691   1.457  0.00  0.00    -0.181 NA
ATOM      8  N   UNL     1       5.302  -4.705   2.034  0.00  0.00    -0.204 N 
ATOM      9  N   UNL     1       1.323  -4.724  -0.455  0.00  0.00    -0.285 N 
ATOM     10  H   UNL     1       2.447  -0.174   0.572  0.00  0.00    +0.155 HD
ATOM     11  H   UNL     1       5.325  -5.675   2.005  0.00  0.00    +0.177 HD
ATOM     12  H   UNL     1       0.615  -4.242  -0.909  0.00  0.00    +0.155 HD
ATOM     13  H   UNL     1       1.569  -2.220  -0.191  0.00  0.00    +0.171 HD
ENDROOT
BRANCH   8  14
ATOM     14  N   UNL     1       6.315  -4.001   2.698  0.00  0.00    -0.176 NA
ATOM     15  C   UNL     1       7.269  -4.636   3.266  0.00  0.00    +0.137 C 
ATOM     16  C   UNL     1       8.396  -4.042   4.004  0.00  0.00    +0.014 A 
ATOM     17  C   UNL     1       8.804  -2.660   4.329  0.00  0.00    +0.011 A 
ATOM     18  C   UNL     1       9.903  -2.457   5.030  0.00  0.00    +0.001 A 
ATOM     19  C   UNL     1      10.743  -3.577   5.503  0.00  0.00    +0.008 A 
ATOM     20  C   UNL     1      10.379  -4.803   5.214  0.00  0.00    -0.017 A 
ATOM     21  C   UNL     1       9.155  -4.997   4.435  0.00  0.00    +0.002 A 
ATOM     22  C   UNL     1       8.685  -6.333   4.073  0.00  0.00    +0.032 A 
ATOM     23  C   UNL     1       9.395  -7.363   4.468  0.00  0.00    +0.012 A 
ATOM     24  C   UNL     1      10.627  -7.193   5.252  0.00  0.00    +0.001 A 
ATOM     25  C   UNL     1      11.110  -6.019   5.612  0.00  0.00    +0.008 A 
ATOM     26  C   UNL     1       7.442  -6.112   3.310  0.00  0.00    +0.214 C 
ATOM     27  O   UNL     1       6.723  -6.949   2.824  0.00  0.00    -0.285 OA
ENDBRANCH   8  14
BRANCH   1  31
ATOM     28  C   UNL     1       6.442   1.462   2.495  0.00  0.00    +0.000 A 
ATOM     29  C   UNL     1       5.734   1.981   1.426  0.00  0.00    +0.002 A 
ATOM     30  C   UNL     1       4.666   1.283   0.899  0.00  0.00    +0.023 A 
ATOM     31  C   UNL     1       4.302   0.058   1.443  0.00  0.00    +0.034 A 
ATOM     32  C   UNL     1       5.014  -0.461   2.517  0.00  0.00    +0.023 A 
ATOM     33  C   UNL     1       6.082   0.242   3.039  0.00  0.00    +0.002 A 
ENDBRANCH   1  31
BRANCH   9  34
ATOM     34  C   UNL     1       1.333  -6.123  -0.463  0.00  0.00    +0.034 A 
ATOM     35  C   UNL     1       2.539  -6.810  -0.468  0.00  0.00    +0.023 A 
ATOM     36  C   UNL     1       2.546  -8.191  -0.475  0.00  0.00    +0.002 A 
ATOM     37  C   UNL     1       1.352  -8.890  -0.477  0.00  0.00    +0.000 A 
ATOM     38  C   UNL     1       0.149  -8.208  -0.472  0.00  0.00    +0.002 A 
ATOM     39  C   UNL     1       0.136  -6.827  -0.459  0.00  0.00    +0.023 A 
ENDBRANCH   9  34
TORSDOF 3
