REMARK  Name = ZINC22787926
REMARK  8 active torsions:
REMARK  status: ('A' for Active; 'I' for Inactive)
REMARK    1  A    between atoms: C_1  and  C_2
REMARK    2  A    between atoms: C_2  and  C_4
REMARK    3  A    between atoms: C_2  and  N_18
REMARK    4  A    between atoms: N_6  and  C_7
REMARK    5  A    between atoms: C_8  and  C_15
REMARK    6  A    between atoms: N_21  and  C_24
REMARK    7  A    between atoms: C_24  and  C_25
REMARK    8  A    between atoms: N_27  and  C_28
REMARK                            x       y       z     vdW  Elec       q    Type
REMARK                         _______ _______ _______ _____ _____    ______ ____
ROOT
ATOM      1  C   UNL     1       6.853  -1.500   0.950  0.00  0.00    +0.034 C 
ATOM      2  C   UNL     1       7.053  -0.603  -0.273  0.00  0.00    +0.140 C 
ENDROOT
BRANCH   2   3
ATOM      3  N   UNL     1       5.857   0.226  -0.474  0.00  0.00    -0.295 NA
ATOM      4  C   UNL     1       5.961   1.009  -1.713  0.00  0.00    +0.066 C 
ATOM      5  C   UNL     1       4.735   1.916  -1.844  0.00  0.00    -0.063 C 
ATOM      6  N   UNL     1       3.518   1.093  -1.845  0.00  0.00    +0.387 N 
ATOM      7  C   UNL     1       3.414   0.310  -0.606  0.00  0.00    -0.063 C 
ATOM      8  C   UNL     1       4.640  -0.597  -0.474  0.00  0.00    +0.066 C 
ATOM      9  H   UNL     1       3.584   0.389  -2.687  0.00  0.00    -0.081 HD
BRANCH   6  10
ATOM     10  C   UNL     1       2.322   1.922  -2.045  0.00  0.00    +0.019 C 
BRANCH  10  11
ATOM     11  C   UNL     1       1.129   1.033  -2.285  0.00  0.00    +0.201 C 
ATOM     12  O   UNL     1       1.262  -0.173  -2.289  0.00  0.00    -0.278 OA
ATOM     13  N   UNL     1      -0.085   1.577  -2.502  0.00  0.00    -0.286 N 
ATOM     14  H   UNL     1      -0.221   2.666  -2.423  0.00  0.00    +0.155 HD
BRANCH  13  15
ATOM     15  C   UNL     1      -1.172   0.758  -2.826  0.00  0.00    +0.052 A 
ATOM     16  C   UNL     1      -0.956  -0.505  -3.363  0.00  0.00    +0.025 A 
ATOM     17  C   UNL     1      -2.031  -1.313  -3.678  0.00  0.00    +0.002 A 
ATOM     18  C   UNL     1      -3.321  -0.863  -3.469  0.00  0.00    +0.002 A 
ATOM     19  C   UNL     1      -3.541   0.395  -2.940  0.00  0.00    +0.022 A 
ATOM     20  C   UNL     1      -2.470   1.208  -2.618  0.00  0.00    +0.062 A 
ATOM     21 CL   UNL     1      -2.746   2.788  -1.955  0.00  0.00    -0.082 Cl
ENDBRANCH  13  15
ENDBRANCH  10  11
ENDBRANCH   6  10
ENDBRANCH   2   3
BRANCH   2  22
ATOM     22  C   UNL     1       8.250   0.286  -0.053  0.00  0.00    +0.235 C 
ATOM     23  O   UNL     1       8.102   1.400   0.403  0.00  0.00    -0.274 OA
ATOM     24  N   UNL     1       9.485  -0.156  -0.364  0.00  0.00    -0.278 N 
ATOM     25  H   UNL     1       9.619  -1.166  -0.777  0.00  0.00    +0.155 HD
BRANCH  24  26
ATOM     26  C   UNL     1      10.586   0.662  -0.161  0.00  0.00    +0.084 A 
ATOM     27  C   UNL     1      11.919   0.387  -0.410  0.00  0.00    +0.068 A 
ATOM     28  C   UNL     1      12.895   1.435  -0.109  0.00  0.00    -0.023 A 
ATOM     29  C   UNL     1      12.377   2.569   0.395  0.00  0.00    -0.004 A 
ATOM     30  S   UNL     1      10.627   2.273   0.471  0.00  0.00    -0.077 S 
ATOM     31  C   UNL     1      13.439   3.596   0.681  0.00  0.00    +0.043 C 
ATOM     32  C   UNL     1      14.670   3.115  -0.118  0.00  0.00    +0.010 C 
ATOM     33  C   UNL     1      14.412   1.597  -0.210  0.00  0.00    +0.037 C 
BRANCH  27  34
ATOM     34  C   UNL     1      12.339  -0.906  -0.959  0.00  0.00    +0.244 C 
ATOM     35  O   UNL     1      12.409  -1.061  -2.164  0.00  0.00    -0.270 OA
ATOM     36  N   UNL     1      12.646  -1.923  -0.130  0.00  0.00    -0.325 N 
ATOM     37  H   UNL     1      12.960  -2.893  -0.542  0.00  0.00    +0.145 HD
ATOM     38  H   UNL     1      12.582  -1.782   0.959  0.00  0.00    +0.145 HD
ENDBRANCH  27  34
ENDBRANCH  24  26
ENDBRANCH   2  22
TORSDOF 7
