REMARK  Name = ZINC39688433
REMARK  8 active torsions:
REMARK  status: ('A' for Active; 'I' for Inactive)
REMARK    1  A    between atoms: C_1  and  C_2
REMARK    2  A    between atoms: C_2  and  C_4
REMARK    3  A    between atoms: C_2  and  N_12
REMARK    4  A    between atoms: C_4  and  C_5
REMARK    5  A    between atoms: C_13  and  C_15
REMARK    6  A    between atoms: C_26  and  C_28
REMARK    7  A    between atoms: C_28  and  C_29
REMARK    8  A    between atoms: C_29  and  C_30
REMARK                            x       y       z     vdW  Elec       q    Type
REMARK                         _______ _______ _______ _____ _____    ______ ____
ROOT
ATOM      1  C   UNL     1       0.803  -1.282  -3.441  0.00  0.00    +0.100 C 
ATOM      2  C   UNL     1       1.188  -2.764  -3.230  0.00  0.00    +0.121 C 
ATOM      3  N   UNL     1       0.083  -3.530  -3.853  0.00  0.00    -0.300 N 
ATOM      4  C   UNL     1      -0.249  -2.767  -5.080  0.00  0.00    +0.115 C 
ATOM      5  C   UNL     1      -0.137  -1.288  -4.659  0.00  0.00    -0.004 C 
ATOM      6  C   UNL     1       0.460  -0.459  -5.792  0.00  0.00    -0.010 C 
ATOM      7  C   UNL     1      -0.518  -0.432  -6.969  0.00  0.00    -0.082 C 
ATOM      8  N   UNL     1      -1.795   0.147  -6.533  0.00  0.00    +0.379 N 
ATOM      9  C   UNL     1      -2.408  -0.706  -5.508  0.00  0.00    -0.082 C 
ATOM     10  C   UNL     1      -1.509  -0.746  -4.269  0.00  0.00    -0.010 C 
ATOM     11  C   UNL     1      -0.490  -4.665  -3.406  0.00  0.00    +0.216 C 
ATOM     12  O   UNL     1      -1.329  -5.226  -4.079  0.00  0.00    -0.276 OA
ATOM     13  H   UNL     1      -1.632   1.067  -6.150  0.00  0.00    -0.086 HD
ATOM     14  H   UNL     1      -2.417   0.221  -7.324  0.00  0.00    -0.086 HD
ENDROOT
BRANCH   1  16
ATOM     15  N   UNL     1       0.145   0.566  -1.935  0.00  0.00    -0.312 N 
ATOM     16  C   UNL     1       0.086  -0.748  -2.228  0.00  0.00    +0.218 C 
ATOM     17  O   UNL     1      -0.543  -1.501  -1.515  0.00  0.00    -0.275 OA
ATOM     18  H   UNL     1       0.705   1.157  -2.463  0.00  0.00    +0.149 HD
BRANCH  15  20
ATOM     19  C   UNL     1      -2.035   1.480  -1.309  0.00  0.00    +0.028 C 
ATOM     20  C   UNL     1      -0.636   1.103  -0.818  0.00  0.00    +0.074 C 
BRANCH  20  21
ATOM     21  C   UNL     1       0.060   2.346  -0.260  0.00  0.00    +0.057 C 
BRANCH  21  22
ATOM     22  C   UNL     1       1.384   1.953   0.344  0.00  0.00    -0.045 A 
ATOM     23  C   UNL     1       1.437   1.475   1.640  0.00  0.00    +0.006 A 
ATOM     24  C   UNL     1       2.650   1.113   2.194  0.00  0.00    +0.038 A 
ATOM     25  C   UNL     1       3.812   1.229   1.451  0.00  0.00    +0.123 A 
ATOM     26  C   UNL     1       3.758   1.708   0.153  0.00  0.00    +0.038 A 
ATOM     27  C   UNL     1       2.543   2.064  -0.401  0.00  0.00    +0.006 A 
ATOM     28  F   UNL     1       4.999   0.876   1.992  0.00  0.00    -0.205 F 
ENDBRANCH  21  22
ENDBRANCH  20  21
ENDBRANCH  15  20
ENDBRANCH   1  16
BRANCH  11  29
ATOM     29  C   UNL     1      -0.089  -5.236  -2.070  0.00  0.00    +0.100 C 
BRANCH  29  30
ATOM     30  C   UNL     1      -0.783  -6.583  -1.863  0.00  0.00    +0.044 C 
BRANCH  30  31
ATOM     31  C   UNL     1      -0.463  -7.107  -0.486  0.00  0.00    -0.047 A 
ATOM     32  C   UNL     1       0.699  -7.826  -0.274  0.00  0.00    +0.003 A 
ATOM     33  C   UNL     1       0.993  -8.306   0.989  0.00  0.00    +0.000 A 
ATOM     34  C   UNL     1       0.126  -8.066   2.039  0.00  0.00    +0.000 A 
ATOM     35  C   UNL     1      -1.035  -7.346   1.826  0.00  0.00    +0.000 A 
ATOM     36  C   UNL     1      -1.327  -6.863   0.565  0.00  0.00    +0.003 A 
ENDBRANCH  30  31
ENDBRANCH  29  30
ENDBRANCH  11  29
TORSDOF 7
