REMARK  Name = ZINC63282152
REMARK  7 active torsions:
REMARK  status: ('A' for Active; 'I' for Inactive)
REMARK    1  A    between atoms: C_6  and  C_11
REMARK    2  A    between atoms: C_11  and  C_12
REMARK    3  A    between atoms: C_12  and  N_13
REMARK    4  A    between atoms: C_14  and  C_16
REMARK    5  A    between atoms: C_20  and  N_23
REMARK    6  A    between atoms: N_23  and  S_24
REMARK    7  A    between atoms: S_24  and  C_27
REMARK                            x       y       z     vdW  Elec       q    Type
REMARK                         _______ _______ _______ _____ _____    ______ ____
ROOT
ATOM      1  C   UNL     1       7.421  -4.335  -3.860  0.00  0.00    +0.086 C 
ATOM      2  C   UNL     1       8.744  -4.423  -4.109  0.00  0.00    +0.021 C 
ATOM      3  C   UNL     1       9.272  -5.017  -5.404  0.00  0.00    +0.122 C 
ATOM      4  S   UNL     1      11.091  -4.968  -5.108  0.00  0.00    -0.116 S 
ATOM      5  C   UNL     1      11.012  -4.583  -3.306  0.00  0.00    +0.220 C 
ATOM      6  N   UNL     1       9.660  -3.982  -3.221  0.00  0.00    -0.322 N 
ATOM      7  H   UNL     1       9.443  -3.307  -2.560  0.00  0.00    +0.148 HD
ENDROOT
BRANCH   1   9
ATOM      8  N   UNL     1       5.652  -3.711  -2.376  0.00  0.00    -0.312 N 
ATOM      9  C   UNL     1       6.967  -3.912  -2.589  0.00  0.00    +0.238 C 
ATOM     10  O   UNL     1       7.765  -3.729  -1.687  0.00  0.00    -0.271 OA
ATOM     11  H   UNL     1       5.016  -3.856  -3.094  0.00  0.00    +0.149 HD
BRANCH   8  12
ATOM     12  C   UNL     1       5.181  -3.272  -1.060  0.00  0.00    +0.107 C 
BRANCH  12  13
ATOM     13  C   UNL     1       3.659  -3.120  -1.087  0.00  0.00    +0.047 C 
BRANCH  13  19
ATOM     14  C   UNL     1       0.178   0.819   0.994  0.00  0.00    +0.001 A 
ATOM     15  C   UNL     1       1.395   1.494   1.159  0.00  0.00    +0.002 A 
ATOM     16  C   UNL     1       2.591   0.879   1.044  0.00  0.00    +0.026 A 
ATOM     17  C   UNL     1       2.660  -0.510   0.746  0.00  0.00    +0.043 A 
ATOM     18  N   UNL     1       3.679  -1.319   0.586  0.00  0.00    -0.378 N 
ATOM     19  C   UNL     1       3.168  -2.662   0.288  0.00  0.00    +0.104 C 
ATOM     20  C   UNL     1       1.661  -2.542   0.291  0.00  0.00    +0.007 C 
ATOM     21  C   UNL     1       1.388  -1.246   0.568  0.00  0.00    -0.004 A 
ATOM     22  C   UNL     1       0.131  -0.502   0.709  0.00  0.00    +0.010 A 
ATOM     23  H   UNL     1       4.615  -1.071   0.653  0.00  0.00    +0.160 HD
ENDBRANCH  13  19
ENDBRANCH  12  13
ENDBRANCH   8  12
ENDBRANCH   1   9
BRANCH   5  24
ATOM     24  N   UNL     1      11.108  -5.802  -2.498  0.00  0.00    -0.161 NA
ATOM     25  H   UNL     1      10.306  -6.296  -2.269  0.00  0.00    +0.151 HD
BRANCH  24  26
ATOM     26  S   UNL     1      12.587  -6.335  -1.978  0.00  0.00    +0.061 S 
ATOM     27  O   UNL     1      12.349  -7.506  -1.208  0.00  0.00    -0.153 OA
ATOM     28  O   UNL     1      13.443  -6.331  -3.112  0.00  0.00    -0.153 OA
BRANCH  26  29
ATOM     29  C   UNL     1      13.217  -5.122  -0.867  0.00  0.00    +0.105 A 
ATOM     30  C   UNL     1      13.986  -4.078  -1.347  0.00  0.00    +0.030 A 
ATOM     31  C   UNL     1      14.480  -3.126  -0.476  0.00  0.00    +0.022 A 
ATOM     32  C   UNL     1      14.206  -3.217   0.877  0.00  0.00    +0.041 A 
ATOM     33  C   UNL     1      13.437  -4.262   1.357  0.00  0.00    +0.022 A 
ATOM     34  C   UNL     1      12.938  -5.211   0.484  0.00  0.00    +0.030 A 
ATOM     35 CL   UNL     1      14.828  -2.022   1.972  0.00  0.00    -0.084 Cl
ENDBRANCH  26  29
ENDBRANCH  24  26
ENDBRANCH   5  24
TORSDOF 7
