REMARK  Name = ZINC23830799
REMARK  13 active torsions:
REMARK  status: ('A' for Active; 'I' for Inactive)
REMARK    1  A    between atoms: C_1  and  C_2
REMARK    2  A    between atoms: C_4  and  C_29
REMARK    3  A    between atoms: C_5  and  N_9
REMARK    4  A    between atoms: C_6  and  C_8
REMARK    5  A    between atoms: C_10  and  C_12
REMARK    6  A    between atoms: C_12  and  N_13
REMARK    7  A    between atoms: N_13  and  C_14
REMARK    8  A    between atoms: N_13  and  C_15
REMARK    9  A    between atoms: C_15  and  C_17
REMARK   10  A    between atoms: C_15  and  C_18
REMARK   11  A    between atoms: N_20  and  C_21
REMARK   12  A    between atoms: C_26  and  S_27
REMARK   13  A    between atoms: S_27  and  C_28
REMARK                            x       y       z     vdW  Elec       q    Type
REMARK                         _______ _______ _______ _____ _____    ______ ____
ROOT
ATOM      1  N   UNL     1       3.170   1.890  -1.309  0.00  0.00    +0.391 N 
ATOM      2  C   UNL     1       3.010   1.652  -2.749  0.00  0.00    -0.094 C 
ATOM      3  H   UNL     1       2.933   2.946  -1.113  0.00  0.00    -0.080 HD
ENDROOT
BRANCH   1   4
ATOM      4  C   UNL     1       4.558   1.653  -0.887  0.00  0.00    +0.017 C 
ATOM      5  C   UNL     1       4.991   0.252  -1.326  0.00  0.00    -0.004 C 
BRANCH   4   6
ATOM      6  C   UNL     1       5.458   2.680  -1.523  0.00  0.00    +0.203 C 
ATOM      7  O   UNL     1       4.991   3.526  -2.255  0.00  0.00    -0.277 OA
ATOM      8  N   UNL     1       6.784   2.658  -1.278  0.00  0.00    -0.286 N 
ATOM      9  H   UNL     1       7.219   1.843  -0.681  0.00  0.00    +0.155 HD
BRANCH   8  10
ATOM     10  C   UNL     1       7.606   3.674  -1.782  0.00  0.00    +0.047 A 
ATOM     11  C   UNL     1       7.264   4.327  -2.956  0.00  0.00    +0.024 A 
ATOM     12  C   UNL     1       8.075   5.333  -3.450  0.00  0.00    +0.002 A 
ATOM     13  C   UNL     1       9.234   5.683  -2.782  0.00  0.00    +0.001 A 
ATOM     14  C   UNL     1       9.586   5.034  -1.614  0.00  0.00    +0.016 A 
ATOM     15  C   UNL     1       8.776   4.027  -1.108  0.00  0.00    +0.029 A 
BRANCH  15  16
ATOM     16  S   UNL     1       9.223   3.196   0.381  0.00  0.00    -0.127 S 
ATOM     17  C   UNL     1      10.780   3.985   0.872  0.00  0.00    +0.090 C 
ENDBRANCH  15  16
ENDBRANCH   8  10
ENDBRANCH   4   6
ENDBRANCH   1   4
BRANCH   1  18
ATOM     18  C   UNL     1       2.236   1.065  -0.532  0.00  0.00    +0.020 C 
BRANCH  18  20
ATOM     19  N   UNL     1      -0.210   0.889  -0.207  0.00  0.00    -0.287 N 
ATOM     20  C   UNL     1       0.823   1.507  -0.813  0.00  0.00    +0.201 C 
ATOM     21  O   UNL     1       0.615   2.419  -1.585  0.00  0.00    -0.278 OA
ATOM     22  H   UNL     1      -0.028   0.014   0.434  0.00  0.00    +0.155 HD
BRANCH  19  27
ATOM     23  C   UNL     1      -5.499   2.799  -0.962  0.00  0.00    +0.044 C 
ATOM     24  C   UNL     1      -4.094   2.291  -0.761  0.00  0.00    -0.050 A 
ATOM     25  C   UNL     1      -3.807   0.955  -0.969  0.00  0.00    +0.008 A 
ATOM     26  C   UNL     1      -2.520   0.487  -0.786  0.00  0.00    -0.029 A 
ATOM     27  C   UNL     1      -1.515   1.360  -0.393  0.00  0.00    +0.039 A 
ATOM     28  C   UNL     1      -1.807   2.700  -0.180  0.00  0.00    -0.029 A 
ATOM     29  C   UNL     1      -3.095   3.163  -0.369  0.00  0.00    +0.008 A 
ATOM     30  C   UNL     1      -0.720   3.650   0.253  0.00  0.00    +0.045 C 
ATOM     31  C   UNL     1      -2.209  -0.970  -1.013  0.00  0.00    +0.045 C 
ENDBRANCH  19  27
ENDBRANCH  18  20
ENDBRANCH   1  18
TORSDOF 7
