REMARK  Name = ZINC09451266
REMARK  12 active torsions:
REMARK  status: ('A' for Active; 'I' for Inactive)
REMARK    1  A    between atoms: C_1  and  C_2
REMARK    2  A    between atoms: C_2  and  C_3
REMARK    3  A    between atoms: C_3  and  C_5
REMARK    4  A    between atoms: C_3  and  C_6
REMARK    5  A    between atoms: C_9  and  N_12
REMARK    6  A    between atoms: C_13  and  C_15
REMARK    7  A    between atoms: C_15  and  S_16
REMARK    8  A    between atoms: S_16  and  C_17
REMARK    9  A    between atoms: C_20  and  C_23
REMARK   10  A    between atoms: N_21  and  N_22
REMARK   11  A    between atoms: C_25  and  C_29
REMARK   12  A    between atoms: C_32  and  C_35
REMARK                            x       y       z     vdW  Elec       q    Type
REMARK                         _______ _______ _______ _____ _____    ______ ____
ROOT
ATOM      1  C   UNL     1      -1.552 -10.476  -3.866  0.00  0.00    +0.209 A 
ATOM      2  N   UNL     1      -1.058 -11.223  -2.905  0.00  0.00    -0.120 NA
ATOM      3  N   UNL     1      -1.333 -12.459  -3.120  0.00  0.00    -0.125 NA
ATOM      4  C   UNL     1      -2.021 -12.579  -4.232  0.00  0.00    +0.202 A 
ATOM      5  N   UNL     1      -2.187 -11.312  -4.741  0.00  0.00    -0.222 N 
ENDROOT
BRANCH   4   6
ATOM      6  C   UNL     1      -2.526 -13.837  -4.822  0.00  0.00    +0.132 A 
ATOM      7  C   UNL     1      -2.357 -15.126  -4.284  0.00  0.00    +0.061 A 
ATOM      8  C   UNL     1      -2.967 -16.011  -5.124  0.00  0.00    +0.066 A 
ATOM      9  N   UNL     1      -3.502 -15.297  -6.157  0.00  0.00    -0.276 N 
ATOM     10  H   UNL     1      -3.996 -15.664  -6.907  0.00  0.00    +0.189 HD
ATOM     11  N   UNL     1      -3.216 -13.944  -5.941  0.00  0.00    -0.170 NA
BRANCH   8  12
ATOM     12  C   UNL     1      -3.037 -17.478  -4.947  0.00  0.00    -0.000 A 
ATOM     13  C   UNL     1      -2.448 -18.078  -3.834  0.00  0.00    +0.010 A 
ATOM     14  C   UNL     1      -2.517 -19.447  -3.674  0.00  0.00    +0.004 A 
ATOM     15  C   UNL     1      -3.168 -20.224  -4.615  0.00  0.00    -0.050 A 
ATOM     16  C   UNL     1      -3.754 -19.635  -5.721  0.00  0.00    +0.004 A 
ATOM     17  C   UNL     1      -3.697 -18.267  -5.889  0.00  0.00    +0.010 A 
ATOM     18  C   UNL     1      -3.239 -21.719  -4.435  0.00  0.00    +0.044 C 
ENDBRANCH   8  12
ENDBRANCH   4   6
BRANCH   5  19
ATOM     19  N   UNL     1      -2.847 -10.963  -5.885  0.00  0.00    -0.295 N 
ATOM     20  H   UNL     1      -2.222 -10.965  -6.678  0.00  0.00    +0.163 HD
ATOM     21  H   UNL     1      -3.637 -11.569  -6.046  0.00  0.00    +0.163 HD
ENDBRANCH   5  19
BRANCH   1  22
ATOM     22  S   UNL     1      -1.427  -8.724  -3.999  0.00  0.00    -0.075 S 
BRANCH  22  23
ATOM     23  C   UNL     1      -0.473  -8.240  -2.534  0.00  0.00    +0.173 C 
BRANCH  23  25
ATOM     24  N   UNL     1       0.392  -6.155  -1.523  0.00  0.00    -0.285 N 
ATOM     25  C   UNL     1      -0.291  -6.744  -2.524  0.00  0.00    +0.227 C 
ATOM     26  O   UNL     1      -0.759  -6.071  -3.417  0.00  0.00    -0.275 OA
ATOM     27  H   UNL     1       0.832  -6.698  -0.850  0.00  0.00    +0.155 HD
BRANCH  24  31
ATOM     28  C   UNL     1       0.616  -2.000  -1.316  0.00  0.00    -0.044 A 
ATOM     29  C   UNL     1      -0.523  -2.606  -1.816  0.00  0.00    +0.006 A 
ATOM     30  C   UNL     1      -0.600  -3.983  -1.886  0.00  0.00    +0.023 A 
ATOM     31  C   UNL     1       0.468  -4.760  -1.454  0.00  0.00    +0.033 A 
ATOM     32  C   UNL     1       1.609  -4.148  -0.953  0.00  0.00    +0.023 A 
ATOM     33  C   UNL     1       1.682  -2.770  -0.890  0.00  0.00    +0.006 A 
BRANCH  28  34
ATOM     34  C   UNL     1       0.696  -0.497  -1.241  0.00  0.00    +0.016 C 
ATOM     35  C   UNL     1      -0.423   0.030  -0.341  0.00  0.00    +0.012 C 
BRANCH  34  37
ATOM     36  C   UNL     1       0.748   1.607  -2.587  0.00  0.00    +0.004 C 
ATOM     37  C   UNL     1       0.542   0.093  -2.644  0.00  0.00    +0.004 C 
ENDBRANCH  34  37
ENDBRANCH  28  34
ENDBRANCH  24  31
ENDBRANCH  23  25
ENDBRANCH  22  23
ENDBRANCH   1  22
TORSDOF 9
