REMARK  Name = ZINC39710688
REMARK  12 active torsions:
REMARK  status: ('A' for Active; 'I' for Inactive)
REMARK    1  A    between atoms: C_1  and  C_2
REMARK    2  A    between atoms: C_7  and  C_14
REMARK    3  A    between atoms: C_14  and  C_16
REMARK    4  A    between atoms: C_14  and  N_26
REMARK    5  A    between atoms: N_21  and  C_22
REMARK    6  A    between atoms: C_22  and  C_23
REMARK    7  A    between atoms: C_22  and  C_24
REMARK    8  A    between atoms: C_22  and  C_25
REMARK    9  A    between atoms: N_26  and  C_27
REMARK   10  A    between atoms: N_26  and  C_33
REMARK   11  A    between atoms: C_27  and  C_28
REMARK   12  A    between atoms: C_33  and  C_34
REMARK                            x       y       z     vdW  Elec       q    Type
REMARK                         _______ _______ _______ _____ _____    ______ ____
ROOT
ATOM      1  C   UNL     1      -1.047  -5.732   1.303  0.00  0.00    -0.008 C 
ENDROOT
BRANCH   1   8
ATOM      2  C   UNL     1       5.325  -6.582  -2.554  0.00  0.00    +0.044 C 
ATOM      3  C   UNL     1       4.264  -6.476  -1.490  0.00  0.00    -0.049 A 
ATOM      4  C   UNL     1       4.260  -7.409  -0.453  0.00  0.00    +0.004 A 
ATOM      5  C   UNL     1       3.328  -7.365   0.534  0.00  0.00    +0.010 A 
ATOM      6  C   UNL     1       2.313  -6.311   0.500  0.00  0.00    -0.007 A 
ATOM      7  C   UNL     1       1.359  -6.228   1.470  0.00  0.00    -0.006 C 
ATOM      8  C   UNL     1       0.347  -5.104   1.355  0.00  0.00    +0.088 C 
ATOM      9  C   UNL     1       0.478  -4.169   0.174  0.00  0.00    +0.223 C 
ATOM     10  O   UNL     1      -0.306  -3.250   0.033  0.00  0.00    -0.275 OA
ATOM     11  N   UNL     1       1.450  -4.353  -0.704  0.00  0.00    -0.285 N 
ATOM     12  C   UNL     1       2.341  -5.339  -0.607  0.00  0.00    +0.041 A 
ATOM     13  C   UNL     1       3.352  -5.471  -1.576  0.00  0.00    +0.027 A 
ATOM     14  H   UNL     1       1.517  -3.742  -1.454  0.00  0.00    +0.155 HD
ENDBRANCH   1   8
BRANCH   1  15
ATOM     15  C   UNL     1      -2.105  -4.627   1.340  0.00  0.00    +0.205 C 
ATOM     16  N   UNL     1      -1.948  -3.807   2.549  0.00  0.00    -0.152 NA
ATOM     17  N   UNL     1      -2.975  -3.892   3.225  0.00  0.00    -0.070 NA
ATOM     18  N   UNL     1      -3.938  -4.718   2.647  0.00  0.00    -0.179 N 
ATOM     19  N   UNL     1      -3.458  -5.212   1.460  0.00  0.00    -0.183 NA
ATOM     20  H   UNL     1      -4.811  -4.913   3.024  0.00  0.00    +0.191 HD
BRANCH  19  21
ATOM     21  C   UNL     1      -4.309  -4.804   0.334  0.00  0.00    +0.035 C 
ATOM     22  C   UNL     1      -3.623  -5.171  -0.984  0.00  0.00    +0.029 C 
ATOM     23  C   UNL     1      -5.655  -5.525   0.426  0.00  0.00    +0.029 C 
ATOM     24  C   UNL     1      -4.535  -3.292   0.387  0.00  0.00    +0.029 C 
ENDBRANCH  19  21
ENDBRANCH   1  15
BRANCH   1  25
ATOM     25  N   UNL     1      -1.228  -6.622   2.458  0.00  0.00    +0.392 N 
ATOM     26  H   UNL     1      -0.418  -7.216   2.553  0.00  0.00    -0.080 HD
BRANCH  25  27
ATOM     27  C   UNL     1      -1.390  -5.816   3.675  0.00  0.00    -0.002 C 
BRANCH  27  28
ATOM     28  C   UNL     1      -1.085  -6.665   4.883  0.00  0.00    +0.089 A 
ATOM     29  C   UNL     1       0.121  -6.806   5.460  0.00  0.00    +0.042 A 
ATOM     30  C   UNL     1      -0.049  -7.686   6.554  0.00  0.00    +0.041 A 
ATOM     31  C   UNL     1      -1.349  -8.029   6.580  0.00  0.00    +0.195 A 
ATOM     32  O   UNL     1      -1.973  -7.403   5.569  0.00  0.00    -0.470 OA
ENDBRANCH  27  28
ENDBRANCH  25  27
BRANCH  25  33
ATOM     33  C   UNL     1      -2.423  -7.451   2.255  0.00  0.00    -0.034 C 
BRANCH  33  34
ATOM     34  C   UNL     1      -2.189  -8.397   1.106  0.00  0.00    -0.027 A 
ATOM     35  C   UNL     1      -1.762  -9.683   1.133  0.00  0.00    +0.009 A 
ATOM     36  C   UNL     1      -1.619 -10.367  -0.060  0.00  0.00    +0.008 A 
ATOM     37  C   UNL     1      -1.911  -9.732  -1.221  0.00  0.00    +0.045 A 
ATOM     38  S   UNL     1      -2.411  -8.118  -0.643  0.00  0.00    -0.103 S 
ENDBRANCH  33  34
ENDBRANCH  25  33
ENDBRANCH   1  25
TORSDOF 8
