REMARK  Name = ZINC63162080
REMARK  6 active torsions:
REMARK  status: ('A' for Active; 'I' for Inactive)
REMARK    1  A    between atoms: N_9  and  C_11
REMARK    2  A    between atoms: C_11  and  C_12
REMARK    3  A    between atoms: C_12  and  C_13
REMARK    4  A    between atoms: C_13  and  N_14
REMARK    5  A    between atoms: N_17  and  C_18
REMARK    6  A    between atoms: C_20  and  C_26
REMARK                            x       y       z     vdW  Elec       q    Type
REMARK                         _______ _______ _______ _____ _____    ______ ____
ROOT
ATOM      1  N   UNL     1       8.292  -2.233   1.760  0.00  0.00    -0.299 N 
ATOM      2  C   UNL     1       9.553  -2.710   1.787  0.00  0.00    +0.304 C 
ATOM      3  O   UNL     1       9.914  -3.519   0.954  0.00  0.00    -0.253 OA
ATOM      4  N   UNL     1      10.412  -2.291   2.737  0.00  0.00    -0.265 N 
ATOM      5  H   UNL     1       8.004  -1.588   2.425  0.00  0.00    +0.150 HD
ATOM      6  H   UNL     1      10.147  -1.593   3.356  0.00  0.00    +0.157 HD
ENDROOT
BRANCH   4   7
ATOM      7  C   UNL     1      11.688  -2.865   2.830  0.00  0.00    +0.100 A 
ATOM      8  C   UNL     1      12.807  -2.086   2.725  0.00  0.00    +0.042 A 
ATOM      9  C   UNL     1      14.070  -2.685   2.823  0.00  0.00    +0.073 A 
ATOM     10  C   UNL     1      14.174  -4.019   3.019  0.00  0.00    +0.098 A 
ATOM     11  N   UNL     1      13.063  -4.796   3.124  0.00  0.00    -0.327 N 
ATOM     12  H   UNL     1      13.157  -5.751   3.265  0.00  0.00    +0.168 HD
ATOM     13  C   UNL     1      11.833  -4.254   3.041  0.00  0.00    +0.270 A 
ATOM     14  O   UNL     1      10.844  -4.963   3.142  0.00  0.00    -0.266 OA
BRANCH   9  15
ATOM     15  C   UNL     1      15.315  -1.842   2.709  0.00  0.00    +0.419 C 
ATOM     16  F   UNL     1      16.444  -2.658   2.838  0.00  0.00    -0.166 F 
ATOM     17  F   UNL     1      15.336  -1.209   1.462  0.00  0.00    -0.166 F 
ATOM     18  F   UNL     1      15.318  -0.877   3.722  0.00  0.00    -0.166 F 
ENDBRANCH   9  15
ENDBRANCH   4   7
BRANCH   1  19
ATOM     19  C   UNL     1       7.358  -2.689   0.727  0.00  0.00    +0.104 C 
BRANCH  19  20
ATOM     20  C   UNL     1       6.007  -1.999   0.922  0.00  0.00    +0.000 C 
BRANCH  20  21
ATOM     21  C   UNL     1       5.031  -2.475  -0.157  0.00  0.00    -0.077 C 
BRANCH  21  30
ATOM     22  C   UNL     1       0.107   1.638  -0.096  0.00  0.00    +0.000 A 
ATOM     23  C   UNL     1       1.285   2.345   0.062  0.00  0.00    +0.000 A 
ATOM     24  C   UNL     1       2.495   1.682   0.027  0.00  0.00    +0.002 A 
ATOM     25  C   UNL     1       2.537   0.309  -0.166  0.00  0.00    -0.061 A 
ATOM     26  C   UNL     1       1.362  -0.395  -0.321  0.00  0.00    -0.048 A 
ATOM     27  C   UNL     1       0.147   0.271  -0.287  0.00  0.00    +0.004 A 
ATOM     28  C   UNL     1       1.362  -1.889  -0.524  0.00  0.00    +0.017 C 
ATOM     29  C   UNL     1       2.760  -2.356  -0.930  0.00  0.00    -0.074 C 
ATOM     30  N   UNL     1       3.733  -1.812   0.030  0.00  0.00    +0.383 N 
ATOM     31  C   UNL     1       3.880  -0.373  -0.202  0.00  0.00    -0.043 C 
ATOM     32  H   UNL     1       3.404  -1.971   0.971  0.00  0.00    -0.081 HD
ENDBRANCH  21  30
ENDBRANCH  20  21
ENDBRANCH  19  20
ENDBRANCH   1  19
TORSDOF 6
