REMARK  Name = ZINC11956187
REMARK  13 active torsions:
REMARK  status: ('A' for Active; 'I' for Inactive)
REMARK    1  A    between atoms: C_1  and  C_2
REMARK    2  A    between atoms: C_2  and  O_3
REMARK    3  A    between atoms: O_3  and  C_4
REMARK    4  A    between atoms: C_6  and  C_24
REMARK    5  A    between atoms: C_9  and  O_10
REMARK    6  A    between atoms: O_10  and  C_11
REMARK    7  A    between atoms: C_11  and  C_12
REMARK    8  A    between atoms: C_12  and  O_13
REMARK    9  A    between atoms: O_13  and  C_14
REMARK   10  A    between atoms: C_16  and  C_22
REMARK   11  A    between atoms: C_18  and  C_20
REMARK   12  A    between atoms: C_24  and  C_25
REMARK   13  A    between atoms: C_25  and  N_51
REMARK                            x       y       z     vdW  Elec       q    Type
REMARK                         _______ _______ _______ _____ _____    ______ ____
ROOT
ATOM      1  C   UNL     1      -5.675  -2.081   0.972  0.00  0.00    +0.164 A 
ATOM      2  C   UNL     1      -6.708  -2.989   1.138  0.00  0.00    +0.053 A 
ATOM      3  C   UNL     1      -7.890  -2.590   1.735  0.00  0.00    -0.044 A 
ATOM      4  C   UNL     1      -8.044  -1.286   2.167  0.00  0.00    +0.027 A 
ATOM      5  C   UNL     1      -7.015  -0.376   2.009  0.00  0.00    +0.086 A 
ATOM      6  C   UNL     1      -5.829  -0.768   1.407  0.00  0.00    +0.180 A 
ATOM      7 CL   UNL     1      -7.209   1.259   2.559  0.00  0.00    -0.080 Cl
ENDROOT
BRANCH   1   8
ATOM      8  O   UNL     1      -4.511  -2.472   0.386  0.00  0.00    -0.489 OA
BRANCH   8  10
ATOM      9  C   UNL     1      -3.053  -4.086  -0.666  0.00  0.00    +0.048 C 
ATOM     10  C   UNL     1      -4.424  -3.835  -0.035  0.00  0.00    +0.226 C 
ENDBRANCH   8  10
ENDBRANCH   1   8
BRANCH   6  11
ATOM     11  O   UNL     1      -4.817   0.126   1.246  0.00  0.00    -0.483 OA
BRANCH  11  12
ATOM     12  C   UNL     1      -4.801   0.875   0.029  0.00  0.00    +0.270 C 
BRANCH  12  13
ATOM     13  C   UNL     1      -3.600   1.823   0.029  0.00  0.00    +0.270 C 
BRANCH  13  14
ATOM     14  O   UNL     1      -2.392   1.059   0.019  0.00  0.00    -0.489 OA
BRANCH  14  15
ATOM     15  C   UNL     1      -1.223   1.754   0.017  0.00  0.00    +0.121 A 
ATOM     16  C   UNL     1      -0.013   1.076   0.008  0.00  0.00    +0.050 A 
ATOM     17  C   UNL     1       1.174   1.783   0.000  0.00  0.00    -0.028 A 
ATOM     18  C   UNL     1       1.156   3.167   0.008  0.00  0.00    +0.047 A 
ATOM     19  C   UNL     1      -0.051   3.844   0.024  0.00  0.00    -0.028 A 
ATOM     20  C   UNL     1      -1.239   3.140   0.032  0.00  0.00    +0.050 A 
ATOM     21  C   UNL     1      -0.068   5.351   0.033  0.00  0.00    +0.045 C 
ATOM     22 CL   UNL     1       2.648   4.053  -0.001  0.00  0.00    -0.083 Cl
ATOM     23  C   UNL     1       2.489   1.048  -0.017  0.00  0.00    +0.045 C 
ENDBRANCH  14  15
ENDBRANCH  13  14
ENDBRANCH  12  13
ENDBRANCH  11  12
ENDBRANCH   6  11
BRANCH   3  24
ATOM     24  C   UNL     1      -9.012  -3.580   1.915  0.00  0.00    +0.016 C 
BRANCH  24  25
ATOM     25  C   UNL     1      -8.863  -4.280   3.267  0.00  0.00    -0.082 C 
BRANCH  25  28
ATOM     26  H   UNL     1      -9.881  -5.720   4.329  0.00  0.00    -0.090 HD
ATOM     27  H   UNL     1     -10.855  -4.793   3.350  0.00  0.00    -0.090 HD
ATOM     28  N   UNL     1      -9.953  -5.260   3.424  0.00  0.00    +0.378 N 
ATOM     29  H   UNL     1      -9.880  -5.966   2.682  0.00  0.00    -0.090 HD
ENDBRANCH  25  28
ENDBRANCH  24  25
ENDBRANCH   3  24
TORSDOF 10
