REMARK  Name = ZINC37840624
REMARK  4 active torsions:
REMARK  status: ('A' for Active; 'I' for Inactive)
REMARK    1  A    between atoms: C_1  and  C_2
REMARK    2  A    between atoms: C_3  and  S_8
REMARK    3  A    between atoms: S_8  and  N_11
REMARK    4  A    between atoms: C_14  and  N_17
REMARK                            x       y       z     vdW  Elec       q    Type
REMARK                         _______ _______ _______ _____ _____    ______ ____
ROOT
ATOM      1  N   UNL     1      -1.454   0.520  -3.020  0.00  0.00    -0.176 NA
ATOM      2  C   UNL     1      -2.630  -0.230  -3.481  0.00  0.00    +0.111 C 
ATOM      3  C   UNL     1      -3.188   0.450  -4.735  0.00  0.00    +0.039 C 
ATOM      4  C   UNL     1      -3.463   1.925  -4.431  0.00  0.00    +0.080 C 
ATOM      5  C   UNL     1      -2.156   2.620  -4.045  0.00  0.00    +0.039 C 
ATOM      6  C   UNL     1      -1.587   1.963  -2.778  0.00  0.00    +0.111 C 
ENDROOT
BRANCH   4   7
ATOM      7  N   UNL     1      -4.029   2.571  -5.618  0.00  0.00    -0.281 N 
ATOM      8  C   UNL     1      -5.343   3.225  -5.687  0.00  0.00    +0.128 C 
ATOM      9  C   UNL     1      -5.431   3.726  -7.142  0.00  0.00    +0.124 C 
ATOM     10  N   UNL     1      -4.156   3.299  -7.738  0.00  0.00    -0.298 N 
ATOM     11  C   UNL     1      -3.427   2.663  -6.811  0.00  0.00    +0.303 C 
ATOM     12  O   UNL     1      -2.322   2.208  -7.034  0.00  0.00    -0.253 OA
ATOM     13  H   UNL     1      -3.884   3.457  -8.656  0.00  0.00    +0.150 HD
ENDBRANCH   4   7
BRANCH   1  14
ATOM     14  S   UNL     1      -0.008  -0.247  -2.770  0.00  0.00    +0.064 S 
ATOM     15  O   UNL     1       1.003   0.745  -2.881  0.00  0.00    -0.153 OA
ATOM     16  O   UNL     1      -0.023  -1.415  -3.579  0.00  0.00    -0.153 OA
BRANCH  14  19
ATOM     17  C   UNL     1      -0.018   1.503   0.010  0.00  0.00    +0.067 C 
ATOM     18  C   UNL     1       0.002  -0.004   0.002  0.00  0.00    +0.059 A 
ATOM     19  C   UNL     1       0.008  -0.796  -1.095  0.00  0.00    +0.145 A 
ATOM     20  C   UNL     1       0.028  -2.127  -0.666  0.00  0.00    +0.163 A 
ATOM     21  N   UNL     1       0.035  -2.134   0.643  0.00  0.00    -0.180 NA
ATOM     22  N   UNL     1       0.024  -0.805   1.088  0.00  0.00    -0.280 N 
ATOM     23  H   UNL     1       0.029  -0.513   2.013  0.00  0.00    +0.189 HD
ENDBRANCH  14  19
ENDBRANCH   1  14
TORSDOF 3
