REMARK  Name = ZINC09882191
REMARK  9 active torsions:
REMARK  status: ('A' for Active; 'I' for Inactive)
REMARK    1  A    between atoms: C_1  and  C_2
REMARK    2  A    between atoms: C_5  and  N_9
REMARK    3  A    between atoms: C_6  and  C_8
REMARK    4  A    between atoms: C_13  and  C_15
REMARK    5  A    between atoms: C_15  and  N_51
REMARK    6  A    between atoms: C_16  and  N_51
REMARK    7  A    between atoms: C_17  and  C_18
REMARK    8  A    between atoms: C_17  and  N_51
REMARK    9  A    between atoms: N_20  and  C_21
REMARK                            x       y       z     vdW  Elec       q    Type
REMARK                         _______ _______ _______ _____ _____    ______ ____
ROOT
ATOM      1  C   UNL     1       3.920   1.096  -0.316  0.00  0.00    +0.019 C 
ENDROOT
BRANCH   1   6
ATOM      2  N   UNL     1      -0.739  -0.084  -0.423  0.00  0.00    -0.269 N 
ATOM      3  C   UNL     1       0.552  -0.472  -0.400  0.00  0.00    +0.310 C 
ATOM      4  O   UNL     1       0.831  -1.655  -0.411  0.00  0.00    -0.252 OA
ATOM      5  N   UNL     1       1.533   0.452  -0.368  0.00  0.00    -0.241 N 
ATOM      6  C   UNL     1       2.823   0.064  -0.350  0.00  0.00    +0.204 C 
ATOM      7  O   UNL     1       3.102  -1.116  -0.362  0.00  0.00    -0.277 OA
ATOM      8  H   UNL     1      -0.965   0.855  -0.331  0.00  0.00    +0.156 HD
ATOM      9  H   UNL     1       1.310   1.396  -0.359  0.00  0.00    +0.159 HD
BRANCH   2  14
ATOM     10  C   UNL     1      -4.849  -3.942  -1.064  0.00  0.00    +0.044 C 
ATOM     11  C   UNL     1      -3.757  -2.917  -0.894  0.00  0.00    -0.050 A 
ATOM     12  C   UNL     1      -2.540  -3.094  -1.526  0.00  0.00    +0.005 A 
ATOM     13  C   UNL     1      -1.537  -2.157  -1.372  0.00  0.00    +0.024 A 
ATOM     14  C   UNL     1      -1.753  -1.035  -0.582  0.00  0.00    +0.038 A 
ATOM     15  C   UNL     1      -2.974  -0.863   0.055  0.00  0.00    -0.029 A 
ATOM     16  C   UNL     1      -3.974  -1.802  -0.106  0.00  0.00    +0.008 A 
ATOM     17  C   UNL     1      -3.210   0.350   0.918  0.00  0.00    +0.045 C 
ENDBRANCH   2  14
ENDBRANCH   1   6
BRANCH   1  19
ATOM     18  C   UNL     1       5.416  -0.330   0.945  0.00  0.00    -0.095 C 
ATOM     19  N   UNL     1       5.226   0.405  -0.323  0.00  0.00    +0.389 N 
ATOM     20  H   UNL     1       5.245  -0.264  -1.102  0.00  0.00    -0.081 HD
BRANCH  19  21
ATOM     21  C   UNL     1       6.317   1.386  -0.506  0.00  0.00    +0.019 C 
BRANCH  21  22
ATOM     22  C   UNL     1       7.608   0.642  -0.730  0.00  0.00    +0.201 C 
ATOM     23  O   UNL     1       7.619  -0.571  -0.721  0.00  0.00    -0.278 OA
ATOM     24  N   UNL     1       8.751   1.324  -0.941  0.00  0.00    -0.285 N 
ATOM     25  H   UNL     1       8.759   2.292  -0.867  0.00  0.00    +0.155 HD
BRANCH  24  26
ATOM     26  C   UNL     1       9.927   0.637  -1.268  0.00  0.00    +0.072 A 
ATOM     27  C   UNL     1       9.867  -0.519  -2.035  0.00  0.00    +0.029 A 
ATOM     28  C   UNL     1      11.027  -1.194  -2.361  0.00  0.00    +0.043 A 
ATOM     29  C   UNL     1      12.251  -0.726  -1.915  0.00  0.00    +0.161 A 
ATOM     30  C   UNL     1      12.316   0.425  -1.144  0.00  0.00    +0.195 A 
ATOM     31  C   UNL     1      11.156   1.107  -0.820  0.00  0.00    +0.182 A 
ATOM     32  F   UNL     1      11.218   2.229  -0.069  0.00  0.00    -0.200 F 
ATOM     33  F   UNL     1      13.512   0.880  -0.709  0.00  0.00    -0.199 F 
ATOM     34  F   UNL     1      13.384  -1.391  -2.231  0.00  0.00    -0.202 F 
ENDBRANCH  24  26
ENDBRANCH  21  22
ENDBRANCH  19  21
ENDBRANCH   1  19
TORSDOF 6
