REMARK  Name = ZINC12691710
REMARK  15 active torsions:
REMARK  status: ('A' for Active; 'I' for Inactive)
REMARK    1  A    between atoms: C_1  and  C_2
REMARK    2  A    between atoms: C_2  and  N_3
REMARK    3  A    between atoms: N_3  and  C_4
REMARK    4  A    between atoms: N_3  and  C_8
REMARK    5  A    between atoms: C_4  and  C_5
REMARK    6  A    between atoms: C_5  and  C_6
REMARK    7  A    between atoms: C_11  and  C_15
REMARK    8  A    between atoms: C_12  and  C_14
REMARK    9  A    between atoms: C_15  and  N_55
REMARK   10  A    between atoms: C_16  and  C_18
REMARK   11  A    between atoms: C_16  and  C_19
REMARK   12  A    between atoms: C_16  and  N_55
REMARK   13  A    between atoms: C_19  and  C_21
REMARK   14  A    between atoms: C_19  and  O_28
REMARK   15  A    between atoms: C_24  and  O_27
REMARK                            x       y       z     vdW  Elec       q    Type
REMARK                         _______ _______ _______ _____ _____    ______ ____
ROOT
ATOM      1  N   UNL     1       7.006  -0.064   1.144  0.00  0.00    +0.385 N 
ATOM      2  H   UNL     1       6.749   0.353   2.046  0.00  0.00    -0.085 HD
ATOM      3  H   UNL     1       6.723   0.565   0.383  0.00  0.00    -0.085 HD
ENDROOT
BRANCH   1   4
ATOM      4  C   UNL     1       8.467  -0.260   1.096  0.00  0.00    -0.041 C 
ATOM      5  C   UNL     1       8.934  -0.267  -0.361  0.00  0.00    -0.011 C 
BRANCH   4   6
ATOM      6  C   UNL     1       9.152   0.885   1.845  0.00  0.00    +0.130 C 
BRANCH   6   7
ATOM      7  C   UNL     1       8.692   0.892   3.280  0.00  0.00    -0.020 A 
ATOM      8  C   UNL     1       7.473   1.456   3.612  0.00  0.00    +0.009 A 
ATOM      9  C   UNL     1       7.047   1.459   4.926  0.00  0.00    +0.046 A 
ATOM     10  C   UNL     1       7.848   0.906   5.915  0.00  0.00    +0.117 A 
ATOM     11  C   UNL     1       9.072   0.346   5.580  0.00  0.00    +0.046 A 
ATOM     12  C   UNL     1       9.491   0.340   4.264  0.00  0.00    +0.009 A 
BRANCH  10  13
ATOM     13  O   UNL     1       7.433   0.913   7.209  0.00  0.00    -0.507 OA
ATOM     14  H   UNL     1       7.704   1.698   7.705  0.00  0.00    +0.292 HD
ENDBRANCH  10  13
ENDBRANCH   6   7
BRANCH   6  15
ATOM     15  O   UNL     1       8.810   2.129   1.230  0.00  0.00    -0.389 OA
ATOM     16  H   UNL     1       7.862   2.318   1.224  0.00  0.00    +0.210 HD
ENDBRANCH   6  15
ENDBRANCH   4   6
ENDBRANCH   1   4
BRANCH   1  17
ATOM     17  C   UNL     1       6.311  -1.357   0.991  0.00  0.00    -0.046 C 
BRANCH  17  21
ATOM     18  C   UNL     1       2.090  -0.703   1.140  0.00  0.00    +0.030 A 
ATOM     19  C   UNL     1       2.764  -1.158   2.266  0.00  0.00    +0.023 A 
ATOM     20  C   UNL     1       4.127  -1.373   2.213  0.00  0.00    +0.004 A 
ATOM     21  C   UNL     1       4.823  -1.126   1.043  0.00  0.00    -0.061 A 
ATOM     22  C   UNL     1       4.156  -0.668  -0.078  0.00  0.00    -0.047 A 
ATOM     23  C   UNL     1       2.792  -0.456  -0.033  0.00  0.00    +0.026 A 
ATOM     24  C   UNL     1       4.918  -0.401  -1.350  0.00  0.00    +0.044 C 
BRANCH  18  25
ATOM     25  N   UNL     1       0.711  -0.489   1.189  0.00  0.00    -0.329 N 
BRANCH  25  27
ATOM     26  C   UNL     1      -0.019   1.526   0.010  0.00  0.00    +0.024 C 
ATOM     27  C   UNL     1       0.002  -0.004   0.002  0.00  0.00    +0.102 C 
ENDBRANCH  25  27
BRANCH  25  28
ATOM     28  C   UNL     1      -0.028  -0.750   2.427  0.00  0.00    +0.120 C 
BRANCH  28  29
ATOM     29  C   UNL     1      -0.511  -2.202   2.437  0.00  0.00    +0.137 C 
BRANCH  29  30
ATOM     30  C   UNL     1      -1.252  -2.464   3.681  0.00  0.00    +0.064 C 
ATOM     31  N   UNL     1      -1.825  -2.667   4.641  0.00  0.00    -0.197 NA
ENDBRANCH  29  30
ENDBRANCH  28  29
ENDBRANCH  25  28
ENDBRANCH  18  25
ENDBRANCH  17  21
ENDBRANCH   1  17
TORSDOF 12
