REMARK  Name = ZINC54025590
REMARK  10 active torsions:
REMARK  status: ('A' for Active; 'I' for Inactive)
REMARK    1  A    between atoms: C_1  and  N_2
REMARK    2  A    between atoms: N_2  and  C_3
REMARK    3  A    between atoms: N_2  and  C_4
REMARK    4  A    between atoms: C_4  and  C_6
REMARK    5  A    between atoms: C_4  and  C_22
REMARK    6  A    between atoms: C_6  and  N_7
REMARK    7  A    between atoms: N_10  and  C_11
REMARK    8  A    between atoms: C_11  and  C_12
REMARK    9  A    between atoms: C_15  and  S_18
REMARK   10  A    between atoms: S_18  and  N_21
REMARK                            x       y       z     vdW  Elec       q    Type
REMARK                         _______ _______ _______ _____ _____    ______ ____
ROOT
ATOM      1  N   UNL     1      -1.766   1.531  -1.169  0.00  0.00    -0.301 N 
ATOM      2  C   UNL     1      -2.260   2.263  -2.188  0.00  0.00    +0.300 C 
ATOM      3  O   UNL     1      -2.936   1.731  -3.047  0.00  0.00    -0.253 OA
ATOM      4  N   UNL     1      -2.004   3.585  -2.254  0.00  0.00    -0.295 N 
ATOM      5  H   UNL     1      -1.227   1.956  -0.484  0.00  0.00    +0.150 HD
ATOM      6  H   UNL     1      -1.465   4.009  -1.569  0.00  0.00    +0.151 HD
ENDROOT
BRANCH   1   7
ATOM      7  C   UNL     1      -2.044   0.095  -1.098  0.00  0.00    +0.095 C 
BRANCH   7   8
ATOM      8  C   UNL     1      -1.280  -0.514   0.080  0.00  0.00    -0.014 C 
BRANCH   8   9
ATOM      9  C   UNL     1      -1.798   0.069   1.370  0.00  0.00    -0.022 A 
ATOM     10  C   UNL     1      -1.272   1.061   2.129  0.00  0.00    +0.009 A 
ATOM     11  C   UNL     1      -1.927   1.438   3.287  0.00  0.00    +0.008 A 
ATOM     12  C   UNL     1      -3.075   0.803   3.629  0.00  0.00    +0.045 A 
ATOM     13  S   UNL     1      -3.265  -0.362   2.290  0.00  0.00    -0.103 S 
ENDBRANCH   8   9
BRANCH   8  15
ATOM     14  C   UNL     1      -0.940  -2.543  -1.154  0.00  0.00    -0.096 C 
ATOM     15  N   UNL     1      -1.474  -1.970   0.089  0.00  0.00    +0.382 N 
ATOM     16  C   UNL     1      -0.769  -2.551   1.239  0.00  0.00    -0.096 C 
ATOM     17  H   UNL     1      -2.459  -2.178   0.159  0.00  0.00    -0.082 HD
ENDBRANCH   8  15
ENDBRANCH   7   8
ENDBRANCH   1   7
BRANCH   4  18
ATOM     18  C   UNL     1      -2.541   4.380  -3.361  0.00  0.00    +0.141 C 
BRANCH  18  19
ATOM     19  C   UNL     1      -2.113   5.816  -3.201  0.00  0.00    -0.030 A 
ATOM     20  C   UNL     1      -2.901   6.697  -2.484  0.00  0.00    +0.007 A 
ATOM     21  C   UNL     1      -2.509   8.014  -2.337  0.00  0.00    +0.029 A 
ATOM     22  C   UNL     1      -1.328   8.451  -2.908  0.00  0.00    +0.105 A 
ATOM     23  C   UNL     1      -0.539   7.570  -3.624  0.00  0.00    +0.029 A 
ATOM     24  C   UNL     1      -0.930   6.252  -3.767  0.00  0.00    +0.007 A 
BRANCH  22  25
ATOM     25  S   UNL     1      -0.828  10.130  -2.722  0.00  0.00    +0.056 S 
ATOM     26  O   UNL     1       0.040  10.418  -3.809  0.00  0.00    -0.153 OA
ATOM     27  O   UNL     1      -2.009  10.880  -2.471  0.00  0.00    -0.153 OA
BRANCH  25  28
ATOM     28  N   UNL     1       0.090  10.219  -1.346  0.00  0.00    -0.204 NA
ATOM     29  H   UNL     1       0.795  10.880  -1.276  0.00  0.00    +0.144 HD
ATOM     30  H   UNL     1      -0.078   9.608  -0.611  0.00  0.00    +0.144 HD
ENDBRANCH  25  28
ENDBRANCH  22  25
ENDBRANCH  18  19
ENDBRANCH   4  18
TORSDOF 8
