REMARK  Name = ZINC10100460
REMARK  10 active torsions:
REMARK  status: ('A' for Active; 'I' for Inactive)
REMARK    1  A    between atoms: C_1  and  N_57
REMARK    2  A    between atoms: C_2  and  N_57
REMARK    3  A    between atoms: C_3  and  C_4
REMARK    4  A    between atoms: C_3  and  N_57
REMARK    5  A    between atoms: C_4  and  N_5
REMARK    6  A    between atoms: C_16  and  C_18
REMARK    7  A    between atoms: C_21  and  S_24
REMARK    8  A    between atoms: S_24  and  N_27
REMARK    9  A    between atoms: N_27  and  C_28
REMARK   10  A    between atoms: N_27  and  C_29
REMARK                            x       y       z     vdW  Elec       q    Type
REMARK                         _______ _______ _______ _____ _____    ______ ____
ROOT
ATOM      1  N   UNL     1       3.566  -0.289  -0.213  0.00  0.00    -0.248 N 
ATOM      2  C   UNL     1       2.260   0.023   0.122  0.00  0.00    +0.168 A 
ATOM      3  N   UNL     1       1.278  -0.785   0.448  0.00  0.00    -0.223 NA
ATOM      4  C   UNL     1       0.041  -0.337   0.755  0.00  0.00    +0.099 A 
ATOM      5  C   UNL     1      -0.133   1.065   0.704  0.00  0.00    +0.042 A 
ATOM      6  S   UNL     1       1.481   1.629   0.221  0.00  0.00    -0.052 S 
ATOM      7  C   UNL     1      -1.329   1.674   0.993  0.00  0.00    +0.017 A 
ATOM      8  C   UNL     1      -2.422   0.902   1.343  0.00  0.00    +0.003 A 
ATOM      9  C   UNL     1      -2.288  -0.477   1.404  0.00  0.00    +0.022 A 
ATOM     10  C   UNL     1      -1.097  -1.095   1.121  0.00  0.00    +0.067 A 
ATOM     11 CL   UNL     1      -0.983  -2.825   1.213  0.00  0.00    -0.081 Cl
ATOM     12  C   UNL     1       3.968  -1.575  -0.232  0.00  0.00    +0.252 C 
ATOM     13  O   UNL     1       3.219  -2.452   0.153  0.00  0.00    -0.270 OA
ENDROOT
BRANCH  12  14
ATOM     14  C   UNL     1       5.320  -1.920  -0.720  0.00  0.00    +0.037 A 
ATOM     15  C   UNL     1       6.431  -1.203  -0.272  0.00  0.00    +0.015 A 
ATOM     16  C   UNL     1       7.690  -1.534  -0.727  0.00  0.00    +0.029 A 
ATOM     17  C   UNL     1       7.853  -2.566  -1.634  0.00  0.00    +0.106 A 
ATOM     18  C   UNL     1       6.755  -3.277  -2.087  0.00  0.00    +0.029 A 
ATOM     19  C   UNL     1       5.490  -2.961  -1.635  0.00  0.00    +0.015 A 
BRANCH  17  20
ATOM     20  S   UNL     1       9.464  -2.978  -2.216  0.00  0.00    +0.061 S 
ATOM     21  O   UNL     1      10.380  -2.524  -1.229  0.00  0.00    -0.153 OA
ATOM     22  O   UNL     1       9.410  -4.333  -2.639  0.00  0.00    -0.153 OA
BRANCH  20  23
ATOM     23  N   UNL     1       9.742  -2.069  -3.573  0.00  0.00    -0.177 NA
ATOM     24  C   UNL     1      10.359  -0.746  -3.454  0.00  0.00    +0.132 C 
BRANCH  23  25
ATOM     25  C   UNL     1       9.370  -2.588  -4.891  0.00  0.00    +0.080 C 
ATOM     26  C   UNL     1       9.831  -1.798  -6.117  0.00  0.00    +0.022 C 
ATOM     27  C   UNL     1       8.357  -1.784  -5.708  0.00  0.00    +0.022 C 
ENDBRANCH  23  25
ENDBRANCH  20  23
ENDBRANCH  17  20
ENDBRANCH  12  14
BRANCH   1  28
ATOM     28  C   UNL     1       4.511   0.779  -0.548  0.00  0.00    +0.097 C 
BRANCH  28  29
ATOM     29  C   UNL     1       5.062   1.395   0.740  0.00  0.00    -0.060 C 
BRANCH  29  32
ATOM     30  C   UNL     1       5.543   3.520  -0.317  0.00  0.00    -0.097 C 
ATOM     31  C   UNL     1       6.821   2.810   1.614  0.00  0.00    -0.097 C 
ATOM     32  N   UNL     1       6.126   2.359   0.390  0.00  0.00    +0.377 N 
ATOM     33  H   UNL     1       6.804   1.898  -0.228  0.00  0.00    -0.083 HD
ENDBRANCH  29  32
ENDBRANCH  28  29
ENDBRANCH   1  28
TORSDOF 7
