REMARK  Name = ZINC38959698
REMARK  6 active torsions:
REMARK  status: ('A' for Active; 'I' for Inactive)
REMARK    1  A    between atoms: C_1  and  O_2
REMARK    2  A    between atoms: O_2  and  C_3
REMARK    3  A    between atoms: C_6  and  N_9
REMARK    4  A    between atoms: C_17  and  C_19
REMARK    5  A    between atoms: C_19  and  S_20
REMARK    6  A    between atoms: S_20  and  C_21
REMARK                            x       y       z     vdW  Elec       q    Type
REMARK                         _______ _______ _______ _____ _____    ______ ____
ROOT
ATOM      1  N   UNL     1       2.043  -4.586  -3.345  0.00  0.00    -0.328 N 
ATOM      2  C   UNL     1       2.471  -3.830  -4.412  0.00  0.00    +0.180 C 
ATOM      3  N   UNL     1       2.447  -2.530  -4.341  0.00  0.00    -0.371 N 
ATOM      4  N   UNL     1       2.927  -4.449  -5.558  0.00  0.00    -0.298 N 
ATOM      5  C   UNL     1       3.072  -5.815  -5.590  0.00  0.00    +0.211 A 
ATOM      6  N   UNL     1       3.673  -6.399  -6.661  0.00  0.00    -0.293 N 
ATOM      7  C   UNL     1       3.819  -7.740  -6.699  0.00  0.00    +0.253 A 
ATOM      8  C   UNL     1       3.340  -8.503  -5.619  0.00  0.00    +0.094 A 
ATOM      9  C   UNL     1       2.746  -7.862  -4.572  0.00  0.00    +0.060 A 
ATOM     10  N   UNL     1       2.631  -6.536  -4.579  0.00  0.00    -0.218 NA
ATOM     11  O   UNL     1       4.356  -8.280  -7.653  0.00  0.00    -0.268 OA
ATOM     12  H   UNL     1       2.138  -5.551  -3.366  0.00  0.00    +0.169 HD
ATOM     13  H   UNL     1       2.688  -1.996  -5.114  0.00  0.00    +0.159 HD
ATOM     14  H   UNL     1       2.187  -2.094  -3.514  0.00  0.00    +0.159 HD
ATOM     15  H   UNL     1       3.145  -3.920  -6.342  0.00  0.00    +0.172 HD
ATOM     16  H   UNL     1       3.996  -5.853  -7.395  0.00  0.00    +0.172 HD
ENDROOT
BRANCH   1  20
ATOM     17  C   UNL     1       0.336  -2.728  -0.026  0.00  0.00    +0.120 A 
ATOM     18  C   UNL     1       1.538  -2.263  -0.539  0.00  0.00    +0.047 A 
ATOM     19  C   UNL     1       2.104  -2.877  -1.638  0.00  0.00    +0.029 A 
ATOM     20  C   UNL     1       1.470  -3.962  -2.230  0.00  0.00    +0.042 A 
ATOM     21  C   UNL     1       0.267  -4.426  -1.716  0.00  0.00    +0.029 A 
ATOM     22  C   UNL     1      -0.295  -3.814  -0.613  0.00  0.00    +0.047 A 
BRANCH  17  24
ATOM     23  C   UNL     1       0.483  -1.008   1.610  0.00  0.00    +0.277 C 
ATOM     24  O   UNL     1      -0.221  -2.121   1.056  0.00  0.00    -0.495 OA
ENDBRANCH  17  24
ENDBRANCH   1  20
BRANCH   9  25
ATOM     25  C   UNL     1       2.224  -8.656  -3.402  0.00  0.00    +0.127 C 
BRANCH  25  26
ATOM     26  S   UNL     1       3.346  -8.462  -1.990  0.00  0.00    -0.121 S 
BRANCH  26  27
ATOM     27  C   UNL     1       2.586  -9.465  -0.684  0.00  0.00    +0.193 C 
ATOM     28  N   UNL     1       2.402 -10.855  -1.124  0.00  0.00    -0.323 N 
ATOM     29  C   UNL     1       1.099 -11.344  -1.185  0.00  0.00    +0.042 A 
ATOM     30  C   UNL     1       0.730 -12.642  -1.582  0.00  0.00    +0.024 A 
ATOM     31  C   UNL     1      -0.590 -13.031  -1.610  0.00  0.00    +0.002 A 
ATOM     32  C   UNL     1      -1.599 -12.157  -1.249  0.00  0.00    +0.001 A 
ATOM     33  C   UNL     1      -1.265 -10.872  -0.854  0.00  0.00    +0.016 A 
ATOM     34  C   UNL     1       0.056 -10.485  -0.826  0.00  0.00    +0.031 A 
ATOM     35  S   UNL     1       0.847  -8.953  -0.385  0.00  0.00    -0.090 S 
ATOM     36  H   UNL     1       3.160 -11.411  -1.363  0.00  0.00    +0.148 HD
ENDBRANCH  26  27
ENDBRANCH  25  26
ENDBRANCH   9  25
TORSDOF 5
