REMARK  Name = ZINC59502462
REMARK  12 active torsions:
REMARK  status: ('A' for Active; 'I' for Inactive)
REMARK    1  A    between atoms: C_1  and  C_2
REMARK    2  A    between atoms: C_5  and  C_25
REMARK    3  A    between atoms: C_6  and  O_8
REMARK    4  A    between atoms: O_8  and  C_9
REMARK    5  A    between atoms: C_9  and  C_10
REMARK    6  A    between atoms: C_10  and  N_11
REMARK    7  A    between atoms: C_12  and  C_22
REMARK    8  A    between atoms: N_13  and  N_14
REMARK    9  A    between atoms: N_14  and  C_15
REMARK   10  A    between atoms: C_22  and  C_24
REMARK   11  A    between atoms: C_25  and  C_26
REMARK   12  A    between atoms: C_25  and  C_27
REMARK                            x       y       z     vdW  Elec       q    Type
REMARK                         _______ _______ _______ _____ _____    ______ ____
ROOT
ATOM      1  N   UNL     1       1.499  -3.506   4.962  0.00  0.00    -0.324 N 
ATOM      2  C   UNL     1       1.597  -4.599   5.832  0.00  0.00    +0.152 C 
ATOM      3  N   UNL     1       0.727  -4.746   6.799  0.00  0.00    -0.291 N 
ATOM      4  H   UNL     1       2.060  -3.463   4.171  0.00  0.00    +0.148 HD
ATOM      5  H   UNL     1       0.971  -5.232   7.602  0.00  0.00    +0.186 HD
ENDROOT
BRANCH   2   6
ATOM      6  C   UNL     1       2.638  -5.544   5.667  0.00  0.00    +0.192 C 
ATOM      7  O   UNL     1       2.724  -6.492   6.422  0.00  0.00    -0.289 OA
ATOM      8  C   UNL     1       3.640  -5.374   4.554  0.00  0.00    +0.094 C 
ENDBRANCH   2   6
BRANCH   3   9
ATOM      9  N   UNL     1      -0.558  -4.201   6.674  0.00  0.00    -0.259 N 
ATOM     10  H   UNL     1      -0.764  -3.611   5.932  0.00  0.00    +0.172 HD
BRANCH   9  11
ATOM     11  C   UNL     1      -1.539  -4.505   7.617  0.00  0.00    +0.046 A 
ATOM     12  C   UNL     1      -1.243  -5.345   8.685  0.00  0.00    +0.026 A 
ATOM     13  C   UNL     1      -2.217  -5.644   9.616  0.00  0.00    +0.017 A 
ATOM     14  C   UNL     1      -3.487  -5.110   9.488  0.00  0.00    +0.018 A 
ATOM     15  C   UNL     1      -3.786  -4.274   8.426  0.00  0.00    +0.017 A 
ATOM     16  C   UNL     1      -2.814  -3.965   7.495  0.00  0.00    +0.026 A 
ATOM     17 BR   UNL     1      -4.818  -5.524  10.766  0.00  0.00    -0.050 Br
ENDBRANCH   9  11
ENDBRANCH   3   9
BRANCH   1  18
ATOM     18  C   UNL     1       0.549  -2.427   5.245  0.00  0.00    +0.144 C 
BRANCH  18  19
ATOM     19  C   UNL     1       1.099  -1.107   4.700  0.00  0.00    +0.247 C 
BRANCH  19  20
ATOM     20  O   UNL     1       1.178  -1.177   3.275  0.00  0.00    -0.490 OA
BRANCH  20  26
ATOM     21  C   UNL     1       2.921   3.378   3.477  0.00  0.00    +0.044 C 
ATOM     22  C   UNL     1       2.509   2.159   2.692  0.00  0.00    -0.047 A 
ATOM     23  C   UNL     1       2.611   2.158   1.313  0.00  0.00    +0.004 A 
ATOM     24  C   UNL     1       2.234   1.041   0.591  0.00  0.00    +0.008 A 
ATOM     25  C   UNL     1       1.754  -0.077   1.245  0.00  0.00    -0.003 A 
ATOM     26  C   UNL     1       1.650  -0.078   2.628  0.00  0.00    +0.124 A 
ATOM     27  C   UNL     1       2.035   1.042   3.352  0.00  0.00    +0.049 A 
BRANCH  25  28
ATOM     28  C   UNL     1       1.342  -1.293   0.457  0.00  0.00    +0.016 C 
ATOM     29  C   UNL     1       0.216  -0.919  -0.508  0.00  0.00    +0.012 C 
ATOM     30  C   UNL     1       2.541  -1.817  -0.337  0.00  0.00    +0.012 C 
ENDBRANCH  25  28
ENDBRANCH  20  26
ENDBRANCH  19  20
ENDBRANCH  18  19
ENDBRANCH   1  18
TORSDOF 8
