REMARK  Name = ZINC35037395
REMARK  10 active torsions:
REMARK  status: ('A' for Active; 'I' for Inactive)
REMARK    1  A    between atoms: C_1  and  C_2
REMARK    2  A    between atoms: C_2  and  C_4
REMARK    3  A    between atoms: C_2  and  N_22
REMARK    4  A    between atoms: N_14  and  C_15
REMARK    5  A    between atoms: N_22  and  C_23
REMARK    6  A    between atoms: C_23  and  C_24
REMARK    7  A    between atoms: C_24  and  N_25
REMARK    8  A    between atoms: N_25  and  C_26
REMARK    9  A    between atoms: N_25  and  C_27
REMARK   10  A    between atoms: N_30  and  C_31
REMARK                            x       y       z     vdW  Elec       q    Type
REMARK                         _______ _______ _______ _____ _____    ______ ____
ROOT
ATOM      1  C   UNL     1       0.067   0.508   0.281  0.00  0.00    +0.036 C 
ATOM      2  C   UNL     1       0.544  -0.945   0.304  0.00  0.00    +0.141 C 
ENDROOT
BRANCH   2   3
ATOM      3  C   UNL     1       1.557  -1.124   1.405  0.00  0.00    +0.138 A 
ATOM      4  N   UNL     1       1.226  -0.772   2.610  0.00  0.00    -0.231 NA
ATOM      5  C   UNL     1       2.086  -0.904   3.651  0.00  0.00    +0.078 A 
ATOM      6  C   UNL     1       1.730  -0.526   4.947  0.00  0.00    +0.028 A 
ATOM      7  C   UNL     1       2.634  -0.678   5.974  0.00  0.00    +0.002 A 
ATOM      8  C   UNL     1       3.898  -1.204   5.738  0.00  0.00    +0.001 A 
ATOM      9  C   UNL     1       4.272  -1.584   4.468  0.00  0.00    +0.015 A 
ATOM     10  C   UNL     1       3.372  -1.439   3.414  0.00  0.00    +0.065 A 
ATOM     11  C   UNL     1       3.715  -1.828   2.039  0.00  0.00    +0.266 A 
ATOM     12  O   UNL     1       4.806  -2.295   1.768  0.00  0.00    -0.267 OA
ATOM     13  N   UNL     1       2.770  -1.652   1.087  0.00  0.00    -0.263 N 
BRANCH  13  14
ATOM     14  C   UNL     1       3.044  -2.011  -0.239  0.00  0.00    +0.051 A 
ATOM     15  C   UNL     1       3.503  -1.057  -1.137  0.00  0.00    +0.028 A 
ATOM     16  C   UNL     1       3.773  -1.414  -2.444  0.00  0.00    +0.022 A 
ATOM     17  C   UNL     1       3.586  -2.721  -2.858  0.00  0.00    +0.041 A 
ATOM     18  C   UNL     1       3.129  -3.674  -1.965  0.00  0.00    +0.022 A 
ATOM     19  C   UNL     1       2.864  -3.324  -0.656  0.00  0.00    +0.028 A 
ATOM     20 CL   UNL     1       3.926  -3.166  -4.502  0.00  0.00    -0.084 Cl
ENDBRANCH  13  14
ENDBRANCH   2   3
BRANCH   2  21
ATOM     21  N   UNL     1      -0.599  -1.830   0.543  0.00  0.00    -0.277 N 
ATOM     22  C   UNL     1      -0.928  -2.768  -0.367  0.00  0.00    +0.307 C 
ATOM     23  O   UNL     1      -0.276  -2.879  -1.387  0.00  0.00    -0.252 OA
ATOM     24  N   UNL     1      -1.979  -3.582  -0.147  0.00  0.00    -0.269 N 
ATOM     25  H   UNL     1      -2.449  -3.549   0.701  0.00  0.00    +0.156 HD
BRANCH  24  26
ATOM     26  C   UNL     1      -2.393  -4.474  -1.142  0.00  0.00    +0.037 A 
ATOM     27  C   UNL     1      -2.947  -5.699  -0.791  0.00  0.00    +0.023 A 
ATOM     28  C   UNL     1      -3.355  -6.579  -1.774  0.00  0.00    +0.005 A 
ATOM     29  C   UNL     1      -3.213  -6.243  -3.108  0.00  0.00    +0.038 A 
ATOM     30  C   UNL     1      -2.662  -5.023  -3.462  0.00  0.00    +0.125 A 
ATOM     31  C   UNL     1      -2.257  -4.135  -2.481  0.00  0.00    +0.061 A 
ATOM     32  F   UNL     1      -2.524  -4.697  -4.766  0.00  0.00    -0.205 F 
ENDBRANCH  24  26
BRANCH  21  33
ATOM     33  C   UNL     1      -1.385  -1.695   1.772  0.00  0.00    +0.091 C 
BRANCH  33  34
ATOM     34  C   UNL     1      -2.527  -0.704   1.542  0.00  0.00    -0.060 C 
BRANCH  34  35
ATOM     35  N   UNL     1      -3.315  -0.570   2.774  0.00  0.00    +0.377 N 
ATOM     36  C   UNL     1      -4.338   0.469   2.591  0.00  0.00    -0.097 C 
ATOM     37  C   UNL     1      -3.967  -1.850   3.081  0.00  0.00    -0.097 C 
ATOM     38  H   UNL     1      -2.706  -0.311   3.536  0.00  0.00    -0.083 HD
ENDBRANCH  34  35
ENDBRANCH  33  34
ENDBRANCH  21  33
ENDBRANCH   2  21
TORSDOF 7
