REMARK  Name = ZINC12872676
REMARK  8 active torsions:
REMARK  status: ('A' for Active; 'I' for Inactive)
REMARK    1  A    between atoms: C_1  and  C_2
REMARK    2  A    between atoms: C_16  and  C_18
REMARK    3  A    between atoms: C_18  and  C_20
REMARK    4  A    between atoms: C_18  and  O_21
REMARK    5  A    between atoms: N_24  and  C_27
REMARK    6  A    between atoms: C_27  and  C_28
REMARK    7  A    between atoms: C_33  and  O_34
REMARK    8  A    between atoms: O_34  and  C_35
REMARK                            x       y       z     vdW  Elec       q    Type
REMARK                         _______ _______ _______ _____ _____    ______ ____
ROOT
ATOM      1  C   UNL     1       3.710  -0.715  -0.037  0.00  0.00    +0.045 C 
ATOM      2  C   UNL     1       2.398   0.027  -0.021  0.00  0.00    -0.029 A 
ATOM      3  C   UNL     1       1.210  -0.676  -0.013  0.00  0.00    +0.005 A 
ATOM      4  C   UNL     1       0.002  -0.004   0.002  0.00  0.00    +0.001 A 
ATOM      5  C   UNL     1      -0.017   1.380   0.010  0.00  0.00    +0.004 A 
ATOM      6  C   UNL     1       1.166   2.085   0.002  0.00  0.00    -0.027 A 
ATOM      7  C   UNL     1       2.388   1.419  -0.014  0.00  0.00    +0.039 A 
ATOM      8  N   UNL     1       3.439   2.340  -0.020  0.00  0.00    -0.286 N 
ATOM      9  C   UNL     1       2.999   3.613  -0.010  0.00  0.00    +0.211 C 
ATOM     10  O   UNL     1       3.682   4.615  -0.014  0.00  0.00    -0.277 OA
ATOM     11  C   UNL     1       1.496   3.550   0.006  0.00  0.00    +0.050 C 
ATOM     12  C   UNL     1       0.890   4.267  -1.206  0.00  0.00    +0.088 C 
ATOM     13  C   UNL     1       0.477   5.666  -0.670  0.00  0.00    +0.075 C 
ATOM     14  C   UNL     1       0.888   5.656   0.818  0.00  0.00    -0.028 C 
ATOM     15  C   UNL     1       1.370   6.612  -1.440  0.00  0.00    +0.224 C 
ATOM     16  O   UNL     1       1.371   7.819  -1.331  0.00  0.00    -0.275 OA
ATOM     17  N   UNL     1       2.159   5.910  -2.260  0.00  0.00    -0.237 N 
ATOM     18  C   UNL     1       1.976   4.585  -2.209  0.00  0.00    +0.225 C 
ATOM     19  O   UNL     1       2.586   3.768  -2.864  0.00  0.00    -0.275 OA
ATOM     20  H   UNL     1       4.376   2.091  -0.030  0.00  0.00    +0.155 HD
ATOM     21  N   UNL     1       0.952   4.239   1.165  0.00  0.00    +0.396 N 
ATOM     22  H   UNL     1       1.563   4.101   1.979  0.00  0.00    -0.083 HD
ATOM     23  H   UNL     1       0.012   3.885   1.379  0.00  0.00    -0.083 HD
ENDROOT
BRANCH  14  24
ATOM     24  C   UNL     1      -0.145   6.406   1.661  0.00  0.00    +0.098 C 
ATOM     25  C   UNL     1       0.282   6.383   3.130  0.00  0.00    +0.036 C 
BRANCH  24  26
ATOM     26  O   UNL     1      -0.234   7.760   1.212  0.00  0.00    -0.394 OA
ATOM     27  H   UNL     1       0.597   8.251   1.275  0.00  0.00    +0.210 HD
ENDBRANCH  24  26
ENDBRANCH  14  24
BRANCH  17  28
ATOM     28  C   UNL     1       3.144   6.539  -3.144  0.00  0.00    +0.155 C 
BRANCH  28  29
ATOM     29  C   UNL     1       4.462   6.659  -2.423  0.00  0.00    +0.012 A 
ATOM     30  C   UNL     1       4.834   7.864  -1.857  0.00  0.00    +0.009 A 
ATOM     31  C   UNL     1       6.042   7.974  -1.195  0.00  0.00    +0.001 A 
ATOM     32  C   UNL     1       6.882   6.880  -1.097  0.00  0.00    +0.004 A 
ATOM     33  C   UNL     1       6.515   5.673  -1.661  0.00  0.00    +0.046 A 
ATOM     34  C   UNL     1       5.300   5.559  -2.321  0.00  0.00    +0.125 A 
BRANCH  34  35
ATOM     35  O   UNL     1       4.934   4.371  -2.872  0.00  0.00    -0.495 OA
ATOM     36  C   UNL     1       5.847   3.281  -2.729  0.00  0.00    +0.277 C 
ENDBRANCH  34  35
ENDBRANCH  28  29
ENDBRANCH  17  28
TORSDOF 5
