REMARK  Name = ZINC63552611
REMARK  11 active torsions:
REMARK  status: ('A' for Active; 'I' for Inactive)
REMARK    1  A    between atoms: C_1  and  C_2
REMARK    2  A    between atoms: C_2  and  C_3
REMARK    3  A    between atoms: C_3  and  C_5
REMARK    4  A    between atoms: C_3  and  N_6
REMARK    5  A    between atoms: C_11  and  C_21
REMARK    6  A    between atoms: C_21  and  C_22
REMARK    7  A    between atoms: C_22  and  C_23
REMARK    8  A    between atoms: C_23  and  C_24
REMARK    9  A    between atoms: N_26  and  C_27
REMARK   10  A    between atoms: C_27  and  C_28
REMARK   11  A    between atoms: C_28  and  C_29
REMARK                            x       y       z     vdW  Elec       q    Type
REMARK                         _______ _______ _______ _____ _____    ______ ____
ROOT
ATOM      1  N   UNL     1       2.125  -0.091  -1.209  0.00  0.00    -0.262 N 
ATOM      2  C   UNL     1       2.661   0.772  -2.255  0.00  0.00    +0.253 C 
ATOM      3  N   UNL     1       1.647   1.686  -2.815  0.00  0.00    -0.219 NA
ATOM      4  N   UNL     1       2.450   2.837  -3.274  0.00  0.00    -0.234 NA
ATOM      5  C   UNL     1       3.466   3.002  -2.199  0.00  0.00    +0.158 C 
ATOM      6  N   UNL     1       3.702   1.658  -1.689  0.00  0.00    -0.280 N 
ATOM      7  C   UNL     1       4.629   1.171  -0.767  0.00  0.00    +0.053 A 
ATOM      8  C   UNL     1       5.902   1.577  -0.449  0.00  0.00    +0.031 A 
ATOM      9  C   UNL     1       6.595   0.911   0.510  0.00  0.00    +0.048 A 
ATOM     10  S   UNL     1       5.545  -0.301   1.024  0.00  0.00    -0.090 S 
ATOM     11  C   UNL     1       4.176   0.056  -0.024  0.00  0.00    +0.095 A 
ATOM     12  C   UNL     1       2.914  -0.519  -0.186  0.00  0.00    +0.258 C 
ATOM     13  O   UNL     1       2.529  -1.392   0.571  0.00  0.00    -0.269 OA
ATOM     14  H   UNL     1       0.984   1.966  -2.108  0.00  0.00    +0.144 HD
ATOM     15  H   UNL     1       1.879   3.664  -3.362  0.00  0.00    +0.143 HD
ENDROOT
BRANCH   1  16
ATOM     16  C   UNL     1       0.718  -0.497  -1.257  0.00  0.00    +0.076 C 
ATOM     17  C   UNL     1       0.630  -2.023  -1.329  0.00  0.00    +0.028 C 
BRANCH  16  19
ATOM     18  C   UNL     1      -0.019   1.526   0.010  0.00  0.00    +0.006 C 
ATOM     19  C   UNL     1       0.002  -0.004   0.002  0.00  0.00    +0.019 C 
ENDBRANCH  16  19
ENDBRANCH   1  16
BRANCH   5  20
ATOM     20  C   UNL     1       4.756   3.591  -2.773  0.00  0.00    +0.040 C 
BRANCH  20  21
ATOM     21  C   UNL     1       4.496   5.021  -3.250  0.00  0.00    +0.012 C 
BRANCH  21  22
ATOM     22  C   UNL     1       5.787   5.609  -3.824  0.00  0.00    +0.096 C 
BRANCH  22  23
ATOM     23  C   UNL     1       5.531   7.018  -4.294  0.00  0.00    +0.213 C 
ATOM     24  O   UNL     1       4.425   7.504  -4.181  0.00  0.00    -0.276 OA
ATOM     25  N   UNL     1       6.530   7.738  -4.840  0.00  0.00    -0.315 N 
ATOM     26  H   UNL     1       7.415   7.350  -4.931  0.00  0.00    +0.149 HD
BRANCH  25  27
ATOM     27  C   UNL     1       6.282   9.108  -5.298  0.00  0.00    +0.108 C 
BRANCH  27  28
ATOM     28  C   UNL     1       7.572   9.696  -5.872  0.00  0.00    +0.052 C 
BRANCH  28  29
ATOM     29  C   UNL     1       7.316  11.105  -6.342  0.00  0.00    -0.040 C 
ATOM     30  C   UNL     1       7.537  12.246  -5.650  0.00  0.00    -0.001 A 
ATOM     31  C   UNL     1       8.059  12.507  -4.303  0.00  0.00    +0.010 A 
ATOM     32  C   UNL     1       8.166  13.786  -3.878  0.00  0.00    +0.001 A 
ATOM     33  C   UNL     1       7.791  14.866  -4.688  0.00  0.00    +0.002 A 
ATOM     34  C   UNL     1       7.302  14.706  -5.936  0.00  0.00    +0.026 A 
ATOM     35  C   UNL     1       7.148  13.404  -6.486  0.00  0.00    +0.043 A 
ATOM     36  N   UNL     1       6.704  12.995  -7.650  0.00  0.00    -0.380 N 
ATOM     37  C   UNL     1       6.767  11.529  -7.686  0.00  0.00    +0.144 C 
ATOM     38  H   UNL     1       6.390  13.566  -8.368  0.00  0.00    +0.160 HD
ENDBRANCH  28  29
ENDBRANCH  27  28
ENDBRANCH  25  27
ENDBRANCH  22  23
ENDBRANCH  21  22
ENDBRANCH  20  21
ENDBRANCH   5  20
TORSDOF 9
