REMARK  Name = ZINC20920564
REMARK  11 active torsions:
REMARK  status: ('A' for Active; 'I' for Inactive)
REMARK    1  A    between atoms: C_1  and  C_2
REMARK    2  A    between atoms: C_5  and  N_9
REMARK    3  A    between atoms: C_10  and  C_12
REMARK    4  A    between atoms: C_12  and  S_13
REMARK    5  A    between atoms: S_13  and  C_14
REMARK    6  A    between atoms: N_18  and  N_19
REMARK    7  A    between atoms: N_20  and  N_21
REMARK    8  A    between atoms: C_22  and  C_23
REMARK    9  A    between atoms: N_26  and  C_28
REMARK   10  A    between atoms: C_28  and  C_29
REMARK   11  A    between atoms: C_28  and  C_30
REMARK                            x       y       z     vdW  Elec       q    Type
REMARK                         _______ _______ _______ _____ _____    ______ ____
ROOT
ATOM      1  C   UNL     1       3.338   2.163  -0.055  0.00  0.00    +0.210 A 
ATOM      2  N   UNL     1       2.667   3.289  -0.047  0.00  0.00    -0.119 NA
ATOM      3  N   UNL     1       1.300   2.979  -0.052  0.00  0.00    -0.109 NA
ATOM      4  C   UNL     1       1.182   1.673  -0.054  0.00  0.00    +0.254 A 
ATOM      5  N   UNL     1       2.438   1.135  -0.060  0.00  0.00    -0.211 N 
ATOM      6  N   UNL     1      -0.010   0.963  -0.056  0.00  0.00    -0.204 N 
ATOM      7  H   UNL     1       0.005  -0.137  -0.059  0.00  0.00    +0.177 HD
ENDROOT
BRANCH   5   8
ATOM      8  N   UNL     1       2.741  -0.197  -0.068  0.00  0.00    -0.294 N 
ATOM      9  H   UNL     1       1.934  -0.945  -0.071  0.00  0.00    +0.163 HD
ATOM     10  H   UNL     1       3.792  -0.522  -0.072  0.00  0.00    +0.163 HD
ENDBRANCH   5   8
BRANCH   6  11
ATOM     11  N   UNL     1      -1.233   1.647  -0.056  0.00  0.00    -0.187 NA
ATOM     12  C   UNL     1      -2.348   0.982  -0.063  0.00  0.00    +0.141 C 
BRANCH  12  13
ATOM     13  C   UNL     1      -3.636   1.703  -0.062  0.00  0.00    +0.032 A 
ATOM     14  C   UNL     1      -3.812   3.103  -0.048  0.00  0.00    +0.143 A 
ATOM     15  N   UNL     1      -5.094   3.352  -0.056  0.00  0.00    -0.179 NA
ATOM     16  N   UNL     1      -5.790   2.138  -0.066  0.00  0.00    -0.268 N 
ATOM     17  C   UNL     1      -4.891   1.133  -0.069  0.00  0.00    +0.118 A 
BRANCH  16  18
ATOM     18  C   UNL     1      -7.247   1.984  -0.071  0.00  0.00    +0.101 C 
ATOM     19  C   UNL     1      -7.737   1.815  -1.510  0.00  0.00    +0.032 C 
ATOM     20  C   UNL     1      -7.633   0.751   0.748  0.00  0.00    +0.032 C 
ENDBRANCH  16  18
ENDBRANCH  12  13
ENDBRANCH   6  11
BRANCH   1  21
ATOM     21  S   UNL     1       5.093   2.003  -0.060  0.00  0.00    -0.075 S 
BRANCH  21  22
ATOM     22  C   UNL     1       5.689   3.716  -0.050  0.00  0.00    +0.173 C 
BRANCH  22  24
ATOM     23  N   UNL     1       7.865   4.894  -0.048  0.00  0.00    -0.284 N 
ATOM     24  C   UNL     1       7.197   3.723  -0.054  0.00  0.00    +0.228 C 
ATOM     25  O   UNL     1       7.808   2.676  -0.062  0.00  0.00    -0.275 OA
ATOM     26  H   UNL     1       7.313   5.843  -0.115  0.00  0.00    +0.155 HD
BRANCH  23  31
ATOM     27  C   UNL     1      13.527   4.925   0.323  0.00  0.00    +0.044 C 
ATOM     28  C   UNL     1      12.023   4.917   0.225  0.00  0.00    -0.049 A 
ATOM     29  C   UNL     1      11.382   3.906  -0.468  0.00  0.00    +0.005 A 
ATOM     30  C   UNL     1      10.004   3.896  -0.560  0.00  0.00    +0.024 A 
ATOM     31  C   UNL     1       9.261   4.902   0.044  0.00  0.00    +0.047 A 
ATOM     32  C   UNL     1       9.908   5.918   0.735  0.00  0.00    +0.039 A 
ATOM     33  C   UNL     1      11.287   5.920   0.828  0.00  0.00    +0.020 A 
ATOM     34 BR   UNL     1       8.902   7.295   1.554  0.00  0.00    -0.048 Br
ENDBRANCH  23  31
ENDBRANCH  22  24
ENDBRANCH  21  22
ENDBRANCH   1  21
TORSDOF 8
