REMARK  Name = ZINC41787504
REMARK  8 active torsions:
REMARK  status: ('A' for Active; 'I' for Inactive)
REMARK    1  A    between atoms: C_1  and  C_2
REMARK    2  A    between atoms: N_8  and  C_9
REMARK    3  A    between atoms: C_9  and  C_10
REMARK    4  A    between atoms: C_10  and  C_11
REMARK    5  A    between atoms: C_11  and  C_12
REMARK    6  A    between atoms: C_12  and  N_13
REMARK    7  A    between atoms: C_14  and  C_16
REMARK    8  A    between atoms: N_18  and  C_19
REMARK                            x       y       z     vdW  Elec       q    Type
REMARK                         _______ _______ _______ _____ _____    ______ ____
ROOT
ATOM      1  N   UNL     1       0.374   0.340   7.324  0.00  0.00    -0.308 N 
ATOM      2  C   UNL     1       0.913   0.109   8.537  0.00  0.00    +0.299 C 
ATOM      3  O   UNL     1       1.927  -0.551   8.634  0.00  0.00    -0.265 OA
ATOM      4  H   UNL     1      -0.437   0.868   7.246  0.00  0.00    +0.149 HD
ENDROOT
BRANCH   2   5
ATOM      5  C   UNL     1       0.264   0.664   9.761  0.00  0.00    +0.303 C 
ATOM      6  O   UNL     1      -0.750   1.325   9.664  0.00  0.00    -0.265 OA
ATOM      7  N   UNL     1       0.803   0.433  10.974  0.00  0.00    -0.278 N 
ATOM      8  H   UNL     1       1.575  -0.149  11.059  0.00  0.00    +0.155 HD
BRANCH   7   9
ATOM      9  C   UNL     1       0.252   1.032  12.110  0.00  0.00    +0.039 A 
ATOM     10  C   UNL     1       1.077   1.440  13.151  0.00  0.00    +0.061 A 
ATOM     11  C   UNL     1       0.529   2.033  14.274  0.00  0.00    +0.128 A 
ATOM     12  C   UNL     1      -0.841   2.220  14.361  0.00  0.00    +0.076 A 
ATOM     13  C   UNL     1      -1.665   1.813  13.325  0.00  0.00    +0.128 A 
ATOM     14  C   UNL     1      -1.121   1.225  12.198  0.00  0.00    +0.061 A 
ATOM     15  F   UNL     1      -3.000   1.996  13.414  0.00  0.00    -0.205 F 
ATOM     16  F   UNL     1       1.330   2.430  15.287  0.00  0.00    -0.205 F 
ENDBRANCH   7   9
ENDBRANCH   2   5
BRANCH   1  17
ATOM     17  C   UNL     1       1.011  -0.205   6.122  0.00  0.00    +0.104 C 
BRANCH  17  18
ATOM     18  C   UNL     1       0.203   0.201   4.888  0.00  0.00    +0.017 C 
BRANCH  18  19
ATOM     19  C   UNL     1       0.869  -0.368   3.633  0.00  0.00    -0.017 C 
BRANCH  19  20
ATOM     20  C   UNL     1       0.061   0.038   2.399  0.00  0.00    -0.078 C 
BRANCH  20  27
ATOM     21  C   UNL     1      -0.015   1.510   0.009  0.00  0.00    -0.013 C 
ATOM     22  C   UNL     1      -0.005  -0.020   0.003  0.00  0.00    -0.072 C 
ATOM     23  C   UNL     1       0.705  -0.520  -1.256  0.00  0.00    -0.016 C 
ATOM     24  C   UNL     1       0.712  -2.052  -1.257  0.00  0.00    -0.003 C 
ATOM     25  C   UNL     1       1.384  -2.551   0.026  0.00  0.00    -0.019 C 
ATOM     26  C   UNL     1       0.648  -1.975   1.237  0.00  0.00    -0.078 C 
ATOM     27  N   UNL     1       0.700  -0.508   1.194  0.00  0.00    +0.381 N 
ATOM     28  H   UNL     1       1.663  -0.208   1.160  0.00  0.00    -0.081 HD
ENDBRANCH  20  27
ENDBRANCH  19  20
ENDBRANCH  18  19
ENDBRANCH  17  18
ENDBRANCH   1  17
TORSDOF 7
