REMARK  Name = ZINC63387046
REMARK  6 active torsions:
REMARK  status: ('A' for Active; 'I' for Inactive)
REMARK    1  A    between atoms: C_4  and  S_7
REMARK    2  A    between atoms: S_7  and  C_10
REMARK    3  A    between atoms: N_21  and  C_24
REMARK    4  A    between atoms: C_22  and  N_23
REMARK    5  A    between atoms: C_24  and  C_25
REMARK    6  A    between atoms: C_25  and  C_26
REMARK                            x       y       z     vdW  Elec       q    Type
REMARK                         _______ _______ _______ _____ _____    ______ ____
ROOT
ATOM      1  C   UNL     1       4.406  -1.094   1.637  0.00  0.00    +0.160 A 
ATOM      2  C   UNL     1       5.183  -0.216   2.429  0.00  0.00    +0.135 A 
ATOM      3  C   UNL     1       5.309  -0.862   3.741  0.00  0.00    +0.163 A 
ATOM      4  N   UNL     1       5.989  -0.269   4.696  0.00  0.00    -0.226 NA
ATOM      5  C   UNL     1       6.562   0.920   4.467  0.00  0.00    +0.092 A 
ATOM      6  C   UNL     1       7.292   1.562   5.484  0.00  0.00    +0.030 A 
ATOM      7  C   UNL     1       7.871   2.770   5.243  0.00  0.00    +0.002 A 
ATOM      8  C   UNL     1       7.753   3.386   3.998  0.00  0.00    +0.002 A 
ATOM      9  C   UNL     1       7.055   2.796   2.991  0.00  0.00    +0.030 A 
ATOM     10  C   UNL     1       6.442   1.546   3.201  0.00  0.00    +0.090 A 
ATOM     11  N   UNL     1       5.753   0.959   2.216  0.00  0.00    -0.240 NA
ATOM     12  N   UNL     1       4.619  -2.053   3.653  0.00  0.00    -0.311 N 
ATOM     13  C   UNL     1       4.084  -2.169   2.394  0.00  0.00    +0.126 A 
ENDROOT
BRANCH   1  14
ATOM     14  S   UNL     1       3.934  -0.832  -0.041  0.00  0.00    +0.030 S 
ATOM     15  O   UNL     1       3.674  -2.114  -0.595  0.00  0.00    -0.164 OA
ATOM     16  O   UNL     1       4.890   0.060  -0.597  0.00  0.00    -0.164 OA
BRANCH  14  20
ATOM     17  C   UNL     1      -0.017   1.378   0.010  0.00  0.00    +0.000 A 
ATOM     18  C   UNL     1       1.171   2.086   0.002  0.00  0.00    +0.002 A 
ATOM     19  C   UNL     1       2.377   1.411  -0.013  0.00  0.00    +0.027 A 
ATOM     20  C   UNL     1       2.396   0.029  -0.020  0.00  0.00    +0.094 A 
ATOM     21  C   UNL     1       1.208  -0.679  -0.012  0.00  0.00    +0.027 A 
ATOM     22  C   UNL     1       0.002  -0.004   0.002  0.00  0.00    +0.002 A 
ENDBRANCH  14  20
ENDBRANCH   1  14
BRANCH  13  23
ATOM     23  N   UNL     1       3.324  -3.239   1.959  0.00  0.00    -0.343 N 
ATOM     24  H   UNL     1       2.981  -3.253   1.052  0.00  0.00    +0.144 HD
ATOM     25  H   UNL     1       3.134  -3.976   2.561  0.00  0.00    +0.144 HD
ENDBRANCH  13  23
BRANCH  12  26
ATOM     26  C   UNL     1       4.475  -3.033   4.732  0.00  0.00    +0.129 C 
BRANCH  26  27
ATOM     27  C   UNL     1       3.222  -2.711   5.549  0.00  0.00    +0.055 C 
BRANCH  27  28
ATOM     28  C   UNL     1       3.074  -3.720   6.659  0.00  0.00    -0.040 C 
ATOM     29  C   UNL     1       3.496  -3.590   7.937  0.00  0.00    -0.001 A 
ATOM     30  C   UNL     1       4.194  -2.513   8.650  0.00  0.00    +0.010 A 
ATOM     31  C   UNL     1       4.490  -2.678   9.959  0.00  0.00    +0.001 A 
ATOM     32  C   UNL     1       4.149  -3.848  10.651  0.00  0.00    +0.002 A 
ATOM     33  C   UNL     1       3.507  -4.881  10.065  0.00  0.00    +0.026 A 
ATOM     34  C   UNL     1       3.146  -4.816   8.691  0.00  0.00    +0.043 A 
ATOM     35  N   UNL     1       2.531  -5.670   7.908  0.00  0.00    -0.380 N 
ATOM     36  C   UNL     1       2.417  -5.079   6.570  0.00  0.00    +0.144 C 
ATOM     37  H   UNL     1       2.204  -6.544   8.171  0.00  0.00    +0.160 HD
ENDBRANCH  27  28
ENDBRANCH  26  27
ENDBRANCH  12  26
TORSDOF 6
