REMARK  Name = ZINC08747047
REMARK  15 active torsions:
REMARK  status: ('A' for Active; 'I' for Inactive)
REMARK    1  A    between atoms: C_1  and  C_2
REMARK    2  A    between atoms: C_2  and  N_3
REMARK    3  A    between atoms: N_3  and  C_4
REMARK    4  A    between atoms: N_3  and  C_8
REMARK    5  A    between atoms: C_4  and  C_5
REMARK    6  A    between atoms: C_5  and  C_6
REMARK    7  A    between atoms: C_11  and  C_15
REMARK    8  A    between atoms: C_12  and  C_14
REMARK    9  A    between atoms: C_15  and  N_55
REMARK   10  A    between atoms: C_16  and  C_18
REMARK   11  A    between atoms: C_16  and  C_19
REMARK   12  A    between atoms: C_16  and  N_55
REMARK   13  A    between atoms: C_19  and  C_21
REMARK   14  A    between atoms: C_19  and  O_28
REMARK   15  A    between atoms: C_24  and  O_27
REMARK                            x       y       z     vdW  Elec       q    Type
REMARK                         _______ _______ _______ _____ _____    ______ ____
ROOT
ATOM      1  N   UNL     1      -2.509  -0.152  -6.634  0.00  0.00    +0.385 N 
ATOM      2  H   UNL     1      -1.610   0.288  -6.865  0.00  0.00    -0.085 HD
ATOM      3  H   UNL     1      -3.042   0.466  -6.011  0.00  0.00    -0.085 HD
ENDROOT
BRANCH   1   4
ATOM      4  C   UNL     1      -3.276  -0.372  -7.875  0.00  0.00    -0.041 C 
ATOM      5  C   UNL     1      -4.770  -0.416  -7.551  0.00  0.00    -0.011 C 
BRANCH   4   6
ATOM      6  C   UNL     1      -2.999   0.777  -8.847  0.00  0.00    +0.130 C 
BRANCH   6   7
ATOM      7  C   UNL     1      -3.684   0.500 -10.160  0.00  0.00    -0.020 A 
ATOM      8  C   UNL     1      -5.012   0.843 -10.332  0.00  0.00    +0.009 A 
ATOM      9  C   UNL     1      -5.641   0.596 -11.537  0.00  0.00    +0.046 A 
ATOM     10  C   UNL     1      -4.941  -0.009 -12.571  0.00  0.00    +0.117 A 
ATOM     11  C   UNL     1      -3.610  -0.358 -12.395  0.00  0.00    +0.046 A 
ATOM     12  C   UNL     1      -2.985  -0.102 -11.190  0.00  0.00    +0.009 A 
BRANCH  10  13
ATOM     13  O   UNL     1      -5.559  -0.260 -13.755  0.00  0.00    -0.507 OA
ATOM     14  H   UNL     1      -5.986  -1.126 -13.801  0.00  0.00    +0.292 HD
ENDBRANCH  10  13
ENDBRANCH   6   7
BRANCH   6  15
ATOM     15  O   UNL     1      -3.499   1.997  -8.297  0.00  0.00    -0.389 OA
ATOM     16  H   UNL     1      -4.451   1.991  -8.127  0.00  0.00    +0.210 HD
ENDBRANCH   6  15
ENDBRANCH   4   6
ENDBRANCH   1   4
BRANCH   1  17
ATOM     17  C   UNL     1      -2.261  -1.436  -5.951  0.00  0.00    -0.046 C 
BRANCH  17  21
ATOM     18  C   UNL     1      -0.038  -0.713  -2.373  0.00  0.00    +0.030 A 
ATOM     19  C   UNL     1       0.611  -1.155  -3.518  0.00  0.00    +0.023 A 
ATOM     20  C   UNL     1      -0.111  -1.393  -4.671  0.00  0.00    +0.004 A 
ATOM     21  C   UNL     1      -1.477  -1.180  -4.690  0.00  0.00    -0.061 A 
ATOM     22  C   UNL     1      -2.126  -0.734  -3.553  0.00  0.00    -0.047 A 
ATOM     23  C   UNL     1      -1.411  -0.500  -2.395  0.00  0.00    +0.026 A 
ATOM     24  C   UNL     1      -3.615  -0.504  -3.578  0.00  0.00    +0.044 C 
BRANCH  18  25
ATOM     25  N   UNL     1       0.688  -0.476  -1.203  0.00  0.00    -0.329 N 
BRANCH  25  27
ATOM     26  C   UNL     1      -0.019   1.526   0.010  0.00  0.00    +0.024 C 
ATOM     27  C   UNL     1       0.002  -0.004   0.002  0.00  0.00    +0.102 C 
ENDBRANCH  25  27
BRANCH  25  28
ATOM     28  C   UNL     1       2.135  -0.701  -1.182  0.00  0.00    +0.120 C 
BRANCH  28  29
ATOM     29  C   UNL     1       2.421  -2.145  -0.763  0.00  0.00    +0.137 C 
BRANCH  29  30
ATOM     30  C   UNL     1       3.876  -2.370  -0.742  0.00  0.00    +0.064 C 
ATOM     31  N   UNL     1       4.998  -2.545  -0.726  0.00  0.00    -0.197 NA
ENDBRANCH  29  30
ENDBRANCH  28  29
ENDBRANCH  25  28
ENDBRANCH  18  25
ENDBRANCH  17  21
ENDBRANCH   1  17
TORSDOF 12
