REMARK  Name = ZINC17218656
REMARK  17 active torsions:
REMARK  status: ('A' for Active; 'I' for Inactive)
REMARK    1  A    between atoms: C_1  and  C_2
REMARK    2  A    between atoms: C_7  and  C_31
REMARK    3  A    between atoms: C_8  and  C_9
REMARK    4  A    between atoms: C_8  and  C_10
REMARK    5  A    between atoms: C_10  and  C_11
REMARK    6  A    between atoms: C_11  and  C_12
REMARK    7  A    between atoms: C_12  and  C_30
REMARK    8  A    between atoms: C_13  and  C_14
REMARK    9  A    between atoms: C_14  and  C_15
REMARK   10  A    between atoms: C_15  and  C_16
REMARK   11  A    between atoms: C_16  and  C_28
REMARK   12  A    between atoms: C_17  and  C_18
REMARK   13  A    between atoms: C_18  and  S_19
REMARK   14  A    between atoms: S_19  and  C_22
REMARK   15  A    between atoms: C_22  and  C_23
REMARK   16  A    between atoms: C_23  and  N_24
REMARK   17  A    between atoms: C_28  and  O_29
REMARK                            x       y       z     vdW  Elec       q    Type
REMARK                         _______ _______ _______ _____ _____    ______ ____
ROOT
ATOM      1  C   UNL     1       0.566  -0.443   8.256  0.00  0.00    -0.047 C 
ATOM      2  C   UNL     1      -0.396   0.386   7.936  0.00  0.00    -0.003 C 
ENDROOT
BRANCH   1   3
ATOM      3  C   UNL     1       0.615  -1.816   7.637  0.00  0.00    +0.037 C 
BRANCH   3   4
ATOM      4  C   UNL     1       1.507  -1.784   6.394  0.00  0.00    +0.031 C 
BRANCH   4   6
ATOM      5  C   UNL     1       2.711  -3.716   5.512  0.00  0.00    -0.076 C 
ATOM      6  C   UNL     1       1.556  -3.156   5.774  0.00  0.00    -0.028 C 
ATOM      7  C   UNL     1       3.987  -2.942   5.719  0.00  0.00    +0.039 C 
BRANCH   5   8
ATOM      8  C   UNL     1       2.764  -5.133   5.003  0.00  0.00    +0.031 C 
BRANCH   8   9
ATOM      9  C   UNL     1       2.833  -5.124   3.474  0.00  0.00    +0.015 C 
BRANCH   9  16
ATOM     10  C   UNL     1       5.217  -6.880   2.749  0.00  0.00    +0.008 C 
ATOM     11  C   UNL     1       3.948  -7.358   3.457  0.00  0.00    -0.004 C 
ATOM     12  C   UNL     1       3.711  -8.842   3.145  0.00  0.00    +0.008 C 
ATOM     13  C   UNL     1       2.544  -9.336   4.003  0.00  0.00    +0.027 C 
ATOM     14  C   UNL     1       1.381  -8.395   3.885  0.00  0.00    -0.027 C 
ATOM     15  C   UNL     1       1.469  -7.186   3.432  0.00  0.00    -0.070 C 
ATOM     16  C   UNL     1       2.745  -6.559   2.951  0.00  0.00    -0.008 C 
ATOM     17  C   UNL     1       2.757  -6.543   1.421  0.00  0.00    +0.016 C 
ATOM     18  C   UNL     1       0.212  -6.356   3.383  0.00  0.00    +0.039 C 
ENDBRANCH   9  16
ENDBRANCH   8   9
ENDBRANCH   5   8
ENDBRANCH   4   6
ENDBRANCH   3   4
ENDBRANCH   1   3
BRANCH   2  19
ATOM     19  C   UNL     1      -1.364   0.029   6.837  0.00  0.00    +0.193 C 
BRANCH  19  20
ATOM     20  S   UNL     1      -3.032  -0.133   7.530  0.00  0.00    -0.026 S 
ATOM     21  O   UNL     1      -3.447   1.141   8.004  0.00  0.00    -0.174 OA
ATOM     22  O   UNL     1      -3.044  -1.239   8.422  0.00  0.00    -0.174 OA
BRANCH  20  23
ATOM     23  C   UNL     1      -4.030  -0.557   6.076  0.00  0.00    +0.187 C 
BRANCH  23  24
ATOM     24  C   UNL     1      -5.492  -0.731   6.494  0.00  0.00    +0.138 C 
BRANCH  24  25
ATOM     25  N   UNL     1      -6.298  -1.074   5.320  0.00  0.00    -0.356 N 
ATOM     26  C   UNL     1      -6.919  -2.219   5.267  0.00  0.00    +0.166 C 
ATOM     27  N   UNL     1      -6.943  -3.039   6.370  0.00  0.00    -0.372 N 
ATOM     28  N   UNL     1      -7.549  -2.607   4.109  0.00  0.00    -0.372 N 
ATOM     29  H   UNL     1      -7.467  -4.006   6.326  0.00  0.00    +0.159 HD
ATOM     30  H   UNL     1      -6.439  -2.729   7.297  0.00  0.00    +0.159 HD
ATOM     31  H   UNL     1      -8.073  -3.573   4.064  0.00  0.00    +0.159 HD
ATOM     32  H   UNL     1      -7.530  -1.951   3.226  0.00  0.00    +0.159 HD
ATOM     33  H   UNL     1      -6.380  -0.366   4.482  0.00  0.00    +0.162 HD
ENDBRANCH  24  25
ENDBRANCH  23  24
ENDBRANCH  20  23
ENDBRANCH  19  20
ENDBRANCH   2  19
BRANCH   1  34
ATOM     34  C   UNL     1       1.625  -0.024   9.244  0.00  0.00    +0.186 C 
BRANCH  34  35
ATOM     35  O   UNL     1       1.362   1.309   9.686  0.00  0.00    -0.391 OA
ATOM     36  H   UNL     1       2.033   1.789  10.414  0.00  0.00    +0.210 HD
ENDBRANCH  34  35
ENDBRANCH   1  34
TORSDOF 13
