REMARK  Name = ZINC19321135
REMARK  7 active torsions:
REMARK  status: ('A' for Active; 'I' for Inactive)
REMARK    1  A    between atoms: C_4  and  O_31
REMARK    2  A    between atoms: C_5  and  C_7
REMARK    3  A    between atoms: C_7  and  N_8
REMARK    4  A    between atoms: N_11  and  C_23
REMARK    5  A    between atoms: C_12  and  C_13
REMARK    6  A    between atoms: C_23  and  C_24
REMARK    7  A    between atoms: C_29  and  O_30
REMARK                            x       y       z     vdW  Elec       q    Type
REMARK                         _______ _______ _______ _____ _____    ______ ____
ROOT
ATOM      1  N   UNL     1      -1.349   0.560  -0.760  0.00  0.00    +0.397 N 
ATOM      2  C   UNL     1      -0.911   0.313   0.634  0.00  0.00    -0.060 C 
ATOM      3  C   UNL     1      -1.465   1.532   1.413  0.00  0.00    +0.065 C 
ATOM      4  N   UNL     1      -2.771   1.768   0.731  0.00  0.00    -0.308 NA
ATOM      5  C   UNL     1      -2.506   1.473  -0.694  0.00  0.00    +0.042 C 
ATOM      6  H   UNL     1      -0.537   1.004  -1.354  0.00  0.00    -0.078 HD
ENDROOT
BRANCH   5   7
ATOM      7  C   UNL     1      -3.712   0.813  -1.311  0.00  0.00    +0.009 A 
ATOM      8  C   UNL     1      -4.296   1.085  -2.487  0.00  0.00    +0.058 A 
ATOM      9  C   UNL     1      -5.463   0.317  -2.898  0.00  0.00    +0.008 A 
ATOM     10  C   UNL     1      -6.225   0.430  -4.085  0.00  0.00    +0.010 A 
ATOM     11  C   UNL     1      -7.297  -0.378  -4.302  0.00  0.00    +0.001 A 
ATOM     12  C   UNL     1      -7.682  -1.338  -3.375  0.00  0.00    +0.001 A 
ATOM     13  C   UNL     1      -6.965  -1.479  -2.204  0.00  0.00    +0.016 A 
ATOM     14  C   UNL     1      -5.876  -0.666  -1.972  0.00  0.00    +0.021 A 
ATOM     15  S   UNL     1      -4.705  -0.510  -0.648  0.00  0.00    -0.092 S 
ATOM     16 CL   UNL     1      -3.667   2.338  -3.510  0.00  0.00    -0.082 Cl
ENDBRANCH   5   7
BRANCH   1  17
ATOM     17  C   UNL     1      -1.707  -0.698  -1.429  0.00  0.00    -0.037 C 
BRANCH  17  22
ATOM     18  C   UNL     1       1.376  -2.282  -2.925  0.00  0.00    +0.000 A 
ATOM     19  C   UNL     1       1.790  -3.111  -1.899  0.00  0.00    +0.004 A 
ATOM     20  C   UNL     1       1.075  -3.160  -0.718  0.00  0.00    +0.045 A 
ATOM     21  C   UNL     1      -0.058  -2.375  -0.561  0.00  0.00    +0.118 A 
ATOM     22  C   UNL     1      -0.475  -1.548  -1.595  0.00  0.00    -0.022 A 
ATOM     23  C   UNL     1       0.245  -1.502  -2.773  0.00  0.00    +0.005 A 
BRANCH  21  24
ATOM     24  O   UNL     1      -0.761  -2.418   0.601  0.00  0.00    -0.507 OA
ATOM     25  H   UNL     1      -1.659  -1.795   0.724  0.00  0.00    +0.292 HD
ENDBRANCH  21  24
ENDBRANCH  17  22
ENDBRANCH   1  17
BRANCH   4  26
ATOM     26  C   UNL     1      -3.212   3.158   0.907  0.00  0.00    +0.121 C 
BRANCH  26  27
ATOM     27  C   UNL     1      -3.863   3.311   2.258  0.00  0.00    +0.008 A 
ATOM     28  C   UNL     1      -5.240   3.295   2.368  0.00  0.00    +0.008 A 
ATOM     29  C   UNL     1      -5.837   3.435   3.607  0.00  0.00    +0.001 A 
ATOM     30  C   UNL     1      -5.058   3.591   4.739  0.00  0.00    +0.004 A 
ATOM     31  C   UNL     1      -3.680   3.606   4.634  0.00  0.00    +0.046 A 
ATOM     32  C   UNL     1      -3.079   3.461   3.393  0.00  0.00    +0.121 A 
BRANCH  32  33
ATOM     33  O   UNL     1      -1.724   3.471   3.287  0.00  0.00    -0.506 OA
ATOM     34  H   UNL     1      -1.103   3.591   4.187  0.00  0.00    +0.292 HD
ENDBRANCH  32  33
ENDBRANCH  26  27
ENDBRANCH   4  26
TORSDOF 7
