REMARK  Name = ZINC22942558
REMARK  13 active torsions:
REMARK  status: ('A' for Active; 'I' for Inactive)
REMARK    1  A    between atoms: C_1  and  O_2
REMARK    2  A    between atoms: O_2  and  C_3
REMARK    3  A    between atoms: C_5  and  C_19
REMARK    4  A    between atoms: C_8  and  O_9
REMARK    5  A    between atoms: O_9  and  C_10
REMARK    6  A    between atoms: C_10  and  C_11
REMARK    7  A    between atoms: C_19  and  N_20
REMARK    8  A    between atoms: N_20  and  C_21
REMARK    9  A    between atoms: C_21  and  C_22
REMARK   10  A    between atoms: C_22  and  N_23
REMARK   11  A    between atoms: N_23  and  C_24
REMARK   12  A    between atoms: C_24  and  C_25
REMARK   13  A    between atoms: C_25  and  O_26
REMARK                            x       y       z     vdW  Elec       q    Type
REMARK                         _______ _______ _______ _____ _____    ______ ____
ROOT
ATOM      1  C   UNL     1       0.606  -0.608  -1.056  0.00  0.00    +0.163 A 
ATOM      2  C   UNL     1       1.173   0.159  -2.062  0.00  0.00    +0.051 A 
ATOM      3  C   UNL     1       1.786  -0.455  -3.138  0.00  0.00    -0.060 A 
ATOM      4  C   UNL     1       1.836  -1.835  -3.214  0.00  0.00    +0.021 A 
ATOM      5  C   UNL     1       1.273  -2.606  -2.213  0.00  0.00    +0.063 A 
ATOM      6  C   UNL     1       0.662  -1.996  -1.129  0.00  0.00    +0.176 A 
ATOM      7 BR   UNL     1       1.342  -4.493  -2.321  0.00  0.00    -0.046 Br
ENDROOT
BRANCH   1   9
ATOM      8  C   UNL     1      -0.017   1.425   0.010  0.00  0.00    +0.277 C 
ATOM      9  O   UNL     1       0.002  -0.004   0.002  0.00  0.00    -0.491 OA
ENDBRANCH   1   9
BRANCH   6  10
ATOM     10  O   UNL     1       0.112  -2.752  -0.141  0.00  0.00    -0.483 OA
BRANCH  10  11
ATOM     11  C   UNL     1      -1.259  -3.125  -0.296  0.00  0.00    +0.267 C 
BRANCH  11  12
ATOM     12  C   UNL     1      -1.691  -3.954   0.885  0.00  0.00    +0.025 A 
ATOM     13  C   UNL     1      -0.794  -4.232   1.900  0.00  0.00    +0.010 A 
ATOM     14  C   UNL     1      -1.190  -4.992   2.984  0.00  0.00    +0.001 A 
ATOM     15  C   UNL     1      -2.484  -5.476   3.055  0.00  0.00    +0.003 A 
ATOM     16  C   UNL     1      -3.382  -5.200   2.042  0.00  0.00    +0.039 A 
ATOM     17  C   UNL     1      -2.988  -4.433   0.958  0.00  0.00    +0.130 A 
ATOM     18  F   UNL     1      -3.867  -4.158  -0.031  0.00  0.00    -0.205 F 
ENDBRANCH  11  12
ENDBRANCH  10  11
ENDBRANCH   6  10
BRANCH   3  19
ATOM     19  C   UNL     1       2.401   0.380  -4.231  0.00  0.00    -0.047 C 
BRANCH  19  20
ATOM     20  N   UNL     1       3.806   0.659  -3.903  0.00  0.00    +0.381 N 
ATOM     21  H   UNL     1       3.854   1.160  -3.028  0.00  0.00    -0.086 HD
ATOM     22  H   UNL     1       4.311  -0.211  -3.820  0.00  0.00    -0.086 HD
BRANCH  20  23
ATOM     23  C   UNL     1       4.405   1.473  -4.968  0.00  0.00    -0.102 C 
BRANCH  23  24
ATOM     24  C   UNL     1       5.868   1.763  -4.626  0.00  0.00    -0.102 C 
BRANCH  24  25
ATOM     25  N   UNL     1       6.468   2.578  -5.691  0.00  0.00    +0.379 N 
ATOM     26  H   UNL     1       6.420   2.076  -6.566  0.00  0.00    -0.086 HD
ATOM     27  H   UNL     1       5.963   3.447  -5.774  0.00  0.00    -0.086 HD
BRANCH  25  28
ATOM     28  C   UNL     1       7.873   2.856  -5.363  0.00  0.00    -0.055 C 
BRANCH  28  29
ATOM     29  C   UNL     1       8.497   3.704  -6.473  0.00  0.00    +0.137 C 
BRANCH  29  30
ATOM     30  O   UNL     1       7.858   4.982  -6.513  0.00  0.00    -0.397 OA
ATOM     31  H   UNL     1       8.204   5.574  -7.194  0.00  0.00    +0.209 HD
ENDBRANCH  29  30
ENDBRANCH  28  29
ENDBRANCH  25  28
ENDBRANCH  24  25
ENDBRANCH  23  24
ENDBRANCH  20  23
ENDBRANCH  19  20
ENDBRANCH   3  19
TORSDOF 12
