REMARK  Name = ZINC40777980
REMARK  6 active torsions:
REMARK  status: ('A' for Active; 'I' for Inactive)
REMARK    1  A    between atoms: C_4  and  N_7
REMARK    2  A    between atoms: N_7  and  C_8
REMARK    3  A    between atoms: N_7  and  N_14
REMARK    4  A    between atoms: C_16  and  N_34
REMARK    5  A    between atoms: C_17  and  N_21
REMARK    6  A    between atoms: N_24  and  C_27
REMARK                            x       y       z     vdW  Elec       q    Type
REMARK                         _______ _______ _______ _____ _____    ______ ____
ROOT
ATOM      1  N   UNL     1       4.985  -0.118  -0.062  0.00  0.00    -0.243 N 
ATOM      2  C   UNL     1       5.684   0.104   1.118  0.00  0.00    +0.139 A 
ATOM      3  C   UNL     1       6.889   0.809   1.106  0.00  0.00    +0.105 A 
ATOM      4  C   UNL     1       7.551   1.004   2.319  0.00  0.00    +0.147 A 
ATOM      5  N   UNL     1       7.012   0.514   3.433  0.00  0.00    -0.221 NA
ATOM      6  C   UNL     1       5.873  -0.147   3.401  0.00  0.00    +0.200 A 
ATOM      7  N   UNL     1       5.213  -0.348   2.277  0.00  0.00    -0.332 N 
ATOM      8  H   UNL     1       5.335   0.214  -0.904  0.00  0.00    +0.172 HD
ATOM      9  H   UNL     1       4.375  -0.836   2.296  0.00  0.00    +0.168 HD
ENDROOT
BRANCH   4  10
ATOM     10  N   UNL     1       8.753   1.699   2.363  0.00  0.00    -0.311 N 
ATOM     11  C   UNL     1       8.767   3.163   2.493  0.00  0.00    +0.125 C 
ATOM     12  C   UNL     1       9.617   3.539   3.712  0.00  0.00    +0.124 C 
ATOM     13  N   UNL     1      10.898   2.824   3.631  0.00  0.00    -0.327 N 
ATOM     14  C   UNL     1      10.884   1.360   3.502  0.00  0.00    +0.124 C 
ATOM     15  C   UNL     1      10.034   0.983   2.288  0.00  0.00    +0.125 C 
BRANCH  13  16
ATOM     16  C   UNL     1      12.108   3.523   3.676  0.00  0.00    +0.030 A 
ATOM     17  C   UNL     1      13.306   2.853   3.466  0.00  0.00    +0.026 A 
ATOM     18  C   UNL     1      14.500   3.546   3.510  0.00  0.00    +0.040 A 
ATOM     19  C   UNL     1      14.503   4.907   3.763  0.00  0.00    +0.124 A 
ATOM     20  C   UNL     1      13.309   5.577   3.972  0.00  0.00    +0.040 A 
ATOM     21  C   UNL     1      12.113   4.889   3.924  0.00  0.00    +0.026 A 
ATOM     22  F   UNL     1      15.672   5.583   3.806  0.00  0.00    -0.205 F 
ENDBRANCH  13  16
ENDBRANCH   4  10
BRANCH   3  23
ATOM     23  N   UNL     1       7.420   1.309  -0.095  0.00  0.00    -0.353 N 
ATOM     24  H   UNL     1       6.907   1.248  -0.915  0.00  0.00    +0.143 HD
ATOM     25  H   UNL     1       8.301   1.716  -0.103  0.00  0.00    +0.143 HD
ENDBRANCH   3  23
BRANCH   1  26
ATOM     26  N   UNL     1       3.774  -0.823  -0.037  0.00  0.00    -0.221 N 
BRANCH  26  30
ATOM     27  C   UNL     1       0.169   1.218  -0.464  0.00  0.00    +0.000 A 
ATOM     28  C   UNL     1       1.124   1.682   0.423  0.00  0.00    +0.002 A 
ATOM     29  C   UNL     1       2.320   1.007   0.567  0.00  0.00    +0.025 A 
ATOM     30  C   UNL     1       2.564  -0.138  -0.180  0.00  0.00    +0.053 A 
ATOM     31  C   UNL     1       1.603  -0.601  -1.070  0.00  0.00    +0.025 A 
ATOM     32  C   UNL     1       0.409   0.078  -1.209  0.00  0.00    +0.002 A 
ENDBRANCH  26  30
BRANCH  26  33
ATOM     33  C   UNL     1       3.776  -2.210   0.131  0.00  0.00    +0.053 A 
ATOM     34  C   UNL     1       4.863  -2.961  -0.299  0.00  0.00    +0.025 A 
ATOM     35  C   UNL     1       4.862  -4.332  -0.131  0.00  0.00    +0.002 A 
ATOM     36  C   UNL     1       3.780  -4.957   0.463  0.00  0.00    +0.000 A 
ATOM     37  C   UNL     1       2.697  -4.212   0.891  0.00  0.00    +0.002 A 
ATOM     38  C   UNL     1       2.694  -2.840   0.732  0.00  0.00    +0.025 A 
ENDBRANCH  26  33
ENDBRANCH   1  26
TORSDOF 6
