REMARK  Name = ZINC23628648
REMARK  8 active torsions:
REMARK  status: ('A' for Active; 'I' for Inactive)
REMARK    1  A    between atoms: C_1  and  C_2
REMARK    2  A    between atoms: C_8  and  C_10
REMARK    3  A    between atoms: C_10  and  C_12
REMARK    4  A    between atoms: C_10  and  N_13
REMARK    5  A    between atoms: N_13  and  C_14
REMARK    6  A    between atoms: C_17  and  N_20
REMARK    7  A    between atoms: N_20  and  S_21
REMARK    8  A    between atoms: S_21  and  C_24
REMARK                            x       y       z     vdW  Elec       q    Type
REMARK                         _______ _______ _______ _____ _____    ______ ____
ROOT
ATOM      1  N   UNL     1       0.693   6.105  -3.943  0.00  0.00    -0.333 N 
ATOM      2  H   UNL     1       1.787   6.034  -3.858  0.00  0.00    +0.147 HD
ENDROOT
BRANCH   1   3
ATOM      3  C   UNL     1       0.117   7.058  -4.792  0.00  0.00    +0.028 A 
ATOM      4  C   UNL     1      -1.264   7.144  -4.904  0.00  0.00    +0.025 A 
ATOM      5  C   UNL     1      -1.832   8.087  -5.737  0.00  0.00    +0.028 A 
ATOM      6  C   UNL     1      -1.021   8.942  -6.473  0.00  0.00    +0.074 A 
ATOM      7  C   UNL     1       0.360   8.851  -6.366  0.00  0.00    +0.028 A 
ATOM      8  C   UNL     1       0.928   7.912  -5.528  0.00  0.00    +0.025 A 
BRANCH   6   9
ATOM      9  N   UNL     1      -1.597   9.895  -7.322  0.00  0.00    -0.103 NA
BRANCH   9  10
ATOM     10  S   UNL     1      -1.564   9.670  -8.962  0.00  0.00    +0.059 S 
ATOM     11  O   UNL     1      -2.184  10.830  -9.499  0.00  0.00    -0.154 OA
ATOM     12  O   UNL     1      -0.207   9.370  -9.260  0.00  0.00    -0.154 OA
ATOM     13  C   UNL     1      -2.604   8.213  -9.254  0.00  0.00    +0.220 C 
ENDBRANCH   9  10
ENDBRANCH   6   9
ENDBRANCH   1   3
BRANCH   1  14
ATOM     14  C   UNL     1      -0.163   5.204  -3.167  0.00  0.00    +0.154 C 
ATOM     15  C   UNL     1      -0.541   3.995  -4.025  0.00  0.00    +0.038 C 
BRANCH  14  23
ATOM     16  C   UNL     1      -2.206   4.074   2.697  0.00  0.00    +0.007 C 
ATOM     17  C   UNL     1      -1.516   3.619   1.410  0.00  0.00    -0.011 C 
ATOM     18  C   UNL     1      -0.037   4.011   1.458  0.00  0.00    +0.022 C 
ATOM     19  C   UNL     1       0.658   3.522   0.183  0.00  0.00    +0.108 C 
ATOM     20  N   UNL     1      -0.068   4.048  -0.982  0.00  0.00    -0.300 N 
ATOM     21  C   UNL     1      -1.514   3.806  -1.081  0.00  0.00    +0.108 C 
ATOM     22  C   UNL     1      -2.184   4.291   0.208  0.00  0.00    +0.022 C 
ATOM     23  C   UNL     1       0.580   4.737  -1.941  0.00  0.00    +0.236 C 
ATOM     24  O   UNL     1       1.762   4.983  -1.818  0.00  0.00    -0.274 OA
ENDBRANCH  14  23
ENDBRANCH   1  14
TORSDOF 5
