REMARK  Name = ZINC39631361
REMARK  13 active torsions:
REMARK  status: ('A' for Active; 'I' for Inactive)
REMARK    1  A    between atoms: C_1  and  C_2
REMARK    2  A    between atoms: C_2  and  C_3
REMARK    3  A    between atoms: C_6  and  C_9
REMARK    4  A    between atoms: C_13  and  C_22
REMARK    5  A    between atoms: N_24  and  C_25
REMARK    6  A    between atoms: C_25  and  C_27
REMARK    7  A    between atoms: C_25  and  C_28
REMARK    8  A    between atoms: C_28  and  C_29
REMARK    9  A    between atoms: C_29  and  C_30
REMARK   10  A    between atoms: C_30  and  C_31
REMARK   11  A    between atoms: C_31  and  C_32
REMARK   12  A    between atoms: C_31  and  C_33
REMARK   13  A    between atoms: C_31  and  O_34
REMARK                            x       y       z     vdW  Elec       q    Type
REMARK                         _______ _______ _______ _____ _____    ______ ____
ROOT
ATOM      1  C   UNL     1       2.694  -1.860  -4.728  0.00  0.00    +0.247 C 
ATOM      2  O   UNL     1       2.050  -2.163  -5.713  0.00  0.00    -0.270 OA
ATOM      3  N   UNL     1       4.037  -1.975  -4.739  0.00  0.00    -0.296 N 
ATOM      4  C   UNL     1       4.975  -1.780  -3.608  0.00  0.00    +0.121 C 
ATOM      5  C   UNL     1       6.036  -2.890  -3.785  0.00  0.00    +0.100 C 
ATOM      6  C   UNL     1       5.990  -3.241  -5.282  0.00  0.00    -0.004 C 
ATOM      7  C   UNL     1       4.909  -2.332  -5.884  0.00  0.00    +0.115 C 
ATOM      8  C   UNL     1       5.602  -4.705  -5.469  0.00  0.00    -0.010 C 
ATOM      9  C   UNL     1       5.619  -5.046  -6.962  0.00  0.00    -0.082 C 
ATOM     10  N   UNL     1       6.959  -4.800  -7.507  0.00  0.00    +0.379 N 
ATOM     11  C   UNL     1       7.287  -3.373  -7.407  0.00  0.00    -0.082 C 
ATOM     12  C   UNL     1       7.341  -2.961  -5.933  0.00  0.00    -0.010 C 
ATOM     13  H   UNL     1       7.636  -5.337  -6.985  0.00  0.00    -0.086 HD
ATOM     14  H   UNL     1       6.984  -5.083  -8.475  0.00  0.00    -0.086 HD
ENDROOT
BRANCH   1  18
ATOM     15  C   UNL     1       0.713  -0.440  -1.249  0.00  0.00    -0.048 A 
ATOM     16  C   UNL     1       0.034  -1.241  -2.150  0.00  0.00    +0.004 A 
ATOM     17  C   UNL     1       0.671  -1.706  -3.282  0.00  0.00    +0.013 A 
ATOM     18  C   UNL     1       2.005  -1.366  -3.517  0.00  0.00    +0.037 A 
ATOM     19  C   UNL     1       2.684  -0.557  -2.605  0.00  0.00    +0.013 A 
ATOM     20  C   UNL     1       2.033  -0.095  -1.480  0.00  0.00    +0.004 A 
BRANCH  15  22
ATOM     21  C   UNL     1      -0.660   1.404  -0.321  0.00  0.00    +0.009 C 
ATOM     22  C   UNL     1       0.010   0.063  -0.015  0.00  0.00    +0.032 C 
ENDBRANCH  15  22
ENDBRANCH   1  18
BRANCH   5  23
ATOM     23  C   UNL     1       7.401  -2.375  -3.407  0.00  0.00    +0.218 C 
ATOM     24  O   UNL     1       7.641  -1.188  -3.470  0.00  0.00    -0.275 OA
ATOM     25  N   UNL     1       8.355  -3.234  -2.998  0.00  0.00    -0.312 N 
ATOM     26  H   UNL     1       8.164  -4.184  -2.947  0.00  0.00    +0.149 HD
BRANCH  25  27
ATOM     27  C   UNL     1       9.682  -2.734  -2.630  0.00  0.00    +0.070 C 
ATOM     28  C   UNL     1       9.669  -2.282  -1.168  0.00  0.00    +0.028 C 
BRANCH  27  29
ATOM     29  C   UNL     1      10.715  -3.849  -2.810  0.00  0.00    +0.022 C 
BRANCH  29  30
ATOM     30  C   UNL     1      10.817  -4.215  -4.292  0.00  0.00    +0.005 C 
BRANCH  30  31
ATOM     31  C   UNL     1      11.850  -5.329  -4.472  0.00  0.00    +0.034 C 
BRANCH  31  32
ATOM     32  C   UNL     1      11.952  -5.695  -5.954  0.00  0.00    +0.061 C 
ATOM     33  C   UNL     1      12.891  -6.892  -6.120  0.00  0.00    +0.041 C 
ATOM     34  C   UNL     1      10.565  -6.058  -6.487  0.00  0.00    +0.041 C 
BRANCH  32  35
ATOM     35  O   UNL     1      12.467  -4.581  -6.686  0.00  0.00    -0.389 OA
ATOM     36  H   UNL     1      12.559  -4.742  -7.635  0.00  0.00    +0.210 HD
ENDBRANCH  32  35
ENDBRANCH  31  32
ENDBRANCH  30  31
ENDBRANCH  29  30
ENDBRANCH  27  29
ENDBRANCH  25  27
ENDBRANCH   5  23
TORSDOF 9
