REMARK  Name = ZINC42691756
REMARK  11 active torsions:
REMARK  status: ('A' for Active; 'I' for Inactive)
REMARK    1  A    between atoms: C_1  and  C_2
REMARK    2  A    between atoms: C_2  and  C_3
REMARK    3  A    between atoms: C_3  and  C_4
REMARK    4  A    between atoms: C_4  and  N_5
REMARK    5  A    between atoms: N_5  and  C_6
REMARK    6  A    between atoms: N_5  and  C_10
REMARK    7  A    between atoms: C_6  and  C_7
REMARK    8  A    between atoms: C_15  and  C_16
REMARK    9  A    between atoms: C_16  and  N_17
REMARK   10  A    between atoms: N_17  and  C_18
REMARK   11  A    between atoms: C_18  and  C_19
REMARK                            x       y       z     vdW  Elec       q    Type
REMARK                         _______ _______ _______ _____ _____    ______ ____
ROOT
ATOM      1  C   UNL     1       0.761  -3.094  -3.692  0.00  0.00    +0.033 A 
ATOM      2  C   UNL     1       0.297  -2.225  -4.671  0.00  0.00    +0.038 A 
ATOM      3  C   UNL     1      -0.369  -2.723  -5.774  0.00  0.00    +0.020 A 
ATOM      4  C   UNL     1      -0.575  -4.086  -5.903  0.00  0.00    +0.015 A 
ATOM      5  C   UNL     1      -0.114  -4.953  -4.930  0.00  0.00    +0.004 A 
ATOM      6  C   UNL     1       0.558  -4.462  -3.827  0.00  0.00    -0.043 A 
ATOM      7 BR   UNL     1      -1.002  -1.542  -7.108  0.00  0.00    -0.050 Br
ENDROOT
BRANCH   1   8
ATOM      8  N   UNL     1       1.436  -2.594  -2.575  0.00  0.00    -0.321 N 
BRANCH   8   9
ATOM      9  C   UNL     1       2.881  -2.361  -2.637  0.00  0.00    +0.105 C 
BRANCH   9  10
ATOM     10  C   UNL     1       3.622  -3.646  -2.265  0.00  0.00    +0.019 C 
BRANCH  10  12
ATOM     11  C   UNL     1       5.866  -4.652  -1.821  0.00  0.00    +0.004 C 
ATOM     12  C   UNL     1       5.125  -3.366  -2.193  0.00  0.00    -0.002 C 
ENDBRANCH  10  12
ENDBRANCH   9  10
ENDBRANCH   8   9
BRANCH   8  13
ATOM     13  C   UNL     1       0.699  -2.304  -1.343  0.00  0.00    +0.200 C 
BRANCH  13  14
ATOM     14  C   UNL     1       0.344  -0.840  -1.304  0.00  0.00    +0.228 C 
ATOM     15  O   UNL     1       0.610  -0.126  -2.247  0.00  0.00    -0.274 OA
ATOM     16  N   UNL     1      -0.269  -0.324  -0.220  0.00  0.00    -0.328 N 
ATOM     17  H   UNL     1      -0.482  -0.895   0.535  0.00  0.00    +0.145 HD
ATOM     18  H   UNL     1      -0.497   0.618  -0.194  0.00  0.00    +0.145 HD
ENDBRANCH  13  14
ENDBRANCH   8  13
ENDBRANCH   1   8
BRANCH   6  19
ATOM     19  C   UNL     1       1.066  -5.408  -2.770  0.00  0.00    -0.045 C 
BRANCH  19  20
ATOM     20  N   UNL     1       0.066  -5.530  -1.701  0.00  0.00    +0.382 N 
ATOM     21  H   UNL     1      -0.161  -4.613  -1.347  0.00  0.00    -0.085 HD
ATOM     22  H   UNL     1      -0.768  -5.964  -2.069  0.00  0.00    -0.085 HD
BRANCH  20  23
ATOM     23  C   UNL     1       0.609  -6.355  -0.614  0.00  0.00    -0.086 C 
ATOM     24  C   UNL     1      -0.433  -6.482   0.499  0.00  0.00    -0.017 C 
ENDBRANCH  20  23
ENDBRANCH  19  20
ENDBRANCH   6  19
TORSDOF 9
