REMARK  Name = ZINC60320505
REMARK  11 active torsions:
REMARK  status: ('A' for Active; 'I' for Inactive)
REMARK    1  A    between atoms: C_1  and  C_2
REMARK    2  A    between atoms: C_2  and  C_4
REMARK    3  A    between atoms: C_2  and  N_14
REMARK    4  A    between atoms: N_6  and  C_7
REMARK    5  A    between atoms: C_17  and  C_20
REMARK    6  A    between atoms: C_20  and  N_21
REMARK    7  A    between atoms: C_22  and  O_24
REMARK    8  A    between atoms: O_24  and  C_25
REMARK    9  A    between atoms: C_25  and  C_26
REMARK   10  A    between atoms: C_25  and  C_27
REMARK   11  A    between atoms: C_25  and  C_28
REMARK                            x       y       z     vdW  Elec       q    Type
REMARK                         _______ _______ _______ _____ _____    ______ ____
ROOT
ATOM      1  N   UNL     1       0.911  -1.207   0.395  0.00  0.00    +0.387 N 
ATOM      2  C   UNL     1       0.872  -2.324  -0.556  0.00  0.00    -0.077 C 
ATOM      3  C   UNL     1       1.760  -3.462  -0.049  0.00  0.00    -0.014 C 
ATOM      4  C   UNL     1       3.199  -2.958   0.090  0.00  0.00    +0.003 C 
ATOM      5  C   UNL     1       3.217  -1.746   1.026  0.00  0.00    -0.014 C 
ATOM      6  C   UNL     1       2.276  -0.671   0.478  0.00  0.00    -0.077 C 
ATOM      7  H   UNL     1       0.623  -1.532   1.305  0.00  0.00    -0.081 HD
ENDROOT
BRANCH   1   9
ATOM      8  C   UNL     1       0.098   1.050   0.888  0.00  0.00    -0.004 C 
ATOM      9  C   UNL     1      -0.002  -0.148  -0.058  0.00  0.00    +0.016 C 
BRANCH   9  10
ATOM     10  C   UNL     1      -1.415  -0.671  -0.058  0.00  0.00    +0.203 C 
ATOM     11  O   UNL     1      -1.739  -1.546   0.717  0.00  0.00    -0.277 OA
ATOM     12  N   UNL     1      -2.320  -0.166  -0.921  0.00  0.00    -0.287 N 
ATOM     13  H   UNL     1      -2.045   0.484  -1.586  0.00  0.00    +0.155 HD
BRANCH  12  14
ATOM     14  C   UNL     1      -3.655  -0.580  -0.855  0.00  0.00    +0.033 A 
ATOM     15  C   UNL     1      -4.416  -0.658  -2.014  0.00  0.00    +0.024 A 
ATOM     16  C   UNL     1      -5.734  -1.067  -1.947  0.00  0.00    +0.017 A 
ATOM     17  C   UNL     1      -6.295  -1.398  -0.726  0.00  0.00    +0.018 A 
ATOM     18  C   UNL     1      -5.539  -1.320   0.430  0.00  0.00    +0.017 A 
ATOM     19  C   UNL     1      -4.220  -0.917   0.368  0.00  0.00    +0.024 A 
ATOM     20 BR   UNL     1      -8.100  -1.956  -0.638  0.00  0.00    -0.050 Br
ENDBRANCH  12  14
ENDBRANCH   9  10
ENDBRANCH   1   9
BRANCH   4  21
ATOM     21  C   UNL     1       4.077  -4.067   0.672  0.00  0.00    +0.111 C 
BRANCH  21  22
ATOM     22  N   UNL     1       5.473  -3.625   0.693  0.00  0.00    -0.281 N 
ATOM     23  C   UNL     1       6.432  -4.444   1.168  0.00  0.00    +0.401 C 
ATOM     24  O   UNL     1       6.139  -5.550   1.579  0.00  0.00    -0.226 OA
ATOM     25  H   UNL     1       5.708  -2.743   0.365  0.00  0.00    +0.152 HD
BRANCH  23  26
ATOM     26  O   UNL     1       7.716  -4.038   1.187  0.00  0.00    -0.445 OA
BRANCH  26  27
ATOM     27  C   UNL     1       8.680  -4.958   1.704  0.00  0.00    +0.107 C 
ATOM     28  C   UNL     1       8.666  -6.237   0.864  0.00  0.00    +0.055 C 
ATOM     29  C   UNL     1      10.071  -4.325   1.645  0.00  0.00    +0.055 C 
ATOM     30  C   UNL     1       8.334  -5.297   3.155  0.00  0.00    +0.055 C 
ENDBRANCH  26  27
ENDBRANCH  23  26
ENDBRANCH  21  22
ENDBRANCH   4  21
TORSDOF 7
