REMARK  Name = ZINC03769920
REMARK  11 active torsions:
REMARK  status: ('A' for Active; 'I' for Inactive)
REMARK    1  A    between atoms: C_1  and  C_2
REMARK    2  A    between atoms: C_7  and  N_8
REMARK    3  A    between atoms: C_9  and  C_11
REMARK    4  A    between atoms: C_17  and  C_18
REMARK    5  A    between atoms: C_18  and  O_20
REMARK    6  A    between atoms: O_20  and  C_21
REMARK    7  A    between atoms: C_23  and  N_37
REMARK    8  A    between atoms: C_24  and  C_35
REMARK    9  A    between atoms: C_25  and  C_27
REMARK   10  A    between atoms: C_30  and  O_33
REMARK   11  A    between atoms: O_33  and  C_34
REMARK                            x       y       z     vdW  Elec       q    Type
REMARK                         _______ _______ _______ _____ _____    ______ ____
ROOT
ATOM      1  C   UNL     1      -4.200   4.416   0.068  0.00  0.00    +0.058 C 
ATOM      2  C   UNL     1      -3.262   3.437   0.045  0.00  0.00    +0.099 A 
ATOM      3  N   UNL     1      -3.547   2.086   0.069  0.00  0.00    -0.257 N 
ATOM      4  C   UNL     1      -2.510   1.224   0.041  0.00  0.00    +0.272 A 
ATOM      5  O   UNL     1      -2.694   0.024   0.059  0.00  0.00    -0.266 OA
ATOM      6  C   UNL     1      -1.140   1.785  -0.012  0.00  0.00    +0.086 A 
ATOM      7  C   UNL     1       0.056   1.141  -0.047  0.00  0.00    +0.112 C 
ATOM      8  S   UNL     1      -1.484   3.537  -0.010  0.00  0.00    -0.065 S 
ATOM      9  C   UNL     1      -4.884   1.672   0.119  0.00  0.00    +0.118 C 
ATOM     10  C   UNL     1      -5.932   2.523   0.147  0.00  0.00    +0.079 C 
ATOM     11  C   UNL     1      -5.660   4.014   0.123  0.00  0.00    +0.100 C 
ENDROOT
BRANCH  11  12
ATOM     12  C   UNL     1      -6.267   4.624   1.360  0.00  0.00    -0.034 A 
ATOM     13  C   UNL     1      -5.852   4.205   2.610  0.00  0.00    +0.008 A 
ATOM     14  C   UNL     1      -6.403   4.767   3.746  0.00  0.00    +0.046 A 
ATOM     15  C   UNL     1      -7.381   5.744   3.631  0.00  0.00    +0.120 A 
ATOM     16  C   UNL     1      -7.800   6.159   2.375  0.00  0.00    +0.046 A 
ATOM     17  C   UNL     1      -7.242   5.598   1.242  0.00  0.00    +0.008 A 
BRANCH  15  18
ATOM     18  O   UNL     1      -7.928   6.294   4.747  0.00  0.00    -0.495 OA
ATOM     19  C   UNL     1      -7.449   5.819   6.006  0.00  0.00    +0.277 C 
ENDBRANCH  15  18
ENDBRANCH  11  12
BRANCH   1  21
ATOM     20  N   UNL     1      -4.772   6.733   0.065  0.00  0.00    -0.281 N 
ATOM     21  C   UNL     1      -3.826   5.773   0.041  0.00  0.00    +0.248 C 
ATOM     22  O   UNL     1      -2.647   6.080  -0.003  0.00  0.00    -0.270 OA
ATOM     23  H   UNL     1      -5.707   6.491   0.152  0.00  0.00    +0.155 HD
BRANCH  20  30
ATOM     24  C   UNL     1      -6.677   8.570  -0.981  0.00  0.00    +0.045 C 
ATOM     25  C   UNL     1      -5.304   9.009  -0.542  0.00  0.00    -0.029 A 
ATOM     26  C   UNL     1      -4.940  10.338  -0.637  0.00  0.00    +0.005 A 
ATOM     27  C   UNL     1      -3.679  10.741  -0.239  0.00  0.00    +0.000 A 
ATOM     28  C   UNL     1      -2.779   9.816   0.259  0.00  0.00    +0.002 A 
ATOM     29  C   UNL     1      -3.138   8.487   0.361  0.00  0.00    +0.023 A 
ATOM     30  C   UNL     1      -4.405   8.079  -0.037  0.00  0.00    +0.037 A 
ENDBRANCH  20  30
ENDBRANCH   1  21
BRANCH   9  31
ATOM     31  N   UNL     1      -5.144   0.323   0.141  0.00  0.00    -0.343 N 
ATOM     32  H   UNL     1      -4.478  -0.294   0.482  0.00  0.00    +0.144 HD
ATOM     33  H   UNL     1      -5.994  -0.013  -0.183  0.00  0.00    +0.144 HD
ENDBRANCH   9  31
BRANCH   7  34
ATOM     34  C   UNL     1       1.299   1.909  -0.104  0.00  0.00    +0.333 C 
ATOM     35  O   UNL     1       1.263   3.124  -0.115  0.00  0.00    -0.246 OA
BRANCH  34  36
ATOM     36  O   UNL     1       2.486   1.268  -0.144  0.00  0.00    -0.465 OA
ATOM     37  C   UNL     1       3.660   2.081  -0.199  0.00  0.00    +0.280 C 
ENDBRANCH  34  36
ENDBRANCH   7  34
BRANCH  10  38
ATOM     38  C   UNL     1      -7.274   2.027   0.198  0.00  0.00    +0.099 C 
ATOM     39  N   UNL     1      -8.339   1.634   0.239  0.00  0.00    -0.191 NA
ENDBRANCH  10  38
TORSDOF 8
