REMARK  Name = ZINC04916950
REMARK  2 active torsions:
REMARK  status: ('A' for Active; 'I' for Inactive)
REMARK    1  A    between atoms: C_6  and  C_7
REMARK    2  A    between atoms: C_10  and  C_12
REMARK                            x       y       z     vdW  Elec       q    Type
REMARK                         _______ _______ _______ _____ _____    ______ ____
ROOT
ATOM      1  C   UNL     1      -1.855  -2.959   1.083  0.00  0.00    +0.063 C 
ATOM      2  C   UNL     1      -0.933  -2.358   0.239  0.00  0.00    +0.084 C 
ATOM      3  C   UNL     1      -1.274  -1.151  -0.560  0.00  0.00    +0.153 C 
ATOM      4  N   UNL     1      -2.469  -0.923  -1.042  0.00  0.00    -0.283 NA
ATOM      5  N   UNL     1      -0.183  -0.275  -0.747  0.00  0.00    -0.152 N 
ATOM      6  C   UNL     1       1.085  -0.805  -0.635  0.00  0.00    +0.180 C 
ATOM      7  N   UNL     1       1.411  -2.024  -0.290  0.00  0.00    -0.152 NA
ATOM      8  C   UNL     1       0.443  -2.883   0.087  0.00  0.00    +0.273 C 
ATOM      9  O   UNL     1       0.693  -4.060   0.297  0.00  0.00    -0.268 OA
ATOM     10  S   UNL     1       2.107   0.587  -1.037  0.00  0.00    -0.041 S 
ATOM     11  C   UNL     1       0.796   1.778  -1.285  0.00  0.00    +0.179 C 
ATOM     12  N   UNL     1      -0.271   1.063  -1.067  0.00  0.00    -0.173 NA
ATOM     13  H   UNL     1      -2.639  -0.119  -1.557  0.00  0.00    +0.188 HD
ENDROOT
BRANCH   1  17
ATOM     14  C   UNL     1      -4.688  -0.827   1.367  0.00  0.00    +0.136 A 
ATOM     15  C   UNL     1      -5.157  -1.920   2.064  0.00  0.00    +0.050 A 
ATOM     16  C   UNL     1      -4.145  -2.878   2.051  0.00  0.00    +0.050 A 
ATOM     17  C   UNL     1      -3.085  -2.332   1.341  0.00  0.00    +0.129 A 
ATOM     18  O   UNL     1      -3.439  -1.090   0.945  0.00  0.00    -0.455 OA
BRANCH  14  24
ATOM     19  C   UNL     1      -6.729   0.577   1.623  0.00  0.00    +0.013 A 
ATOM     20  C   UNL     1      -7.415   1.751   1.402  0.00  0.00    +0.021 A 
ATOM     21  C   UNL     1      -6.825   2.777   0.682  0.00  0.00    +0.041 A 
ATOM     22  C   UNL     1      -5.540   2.632   0.185  0.00  0.00    +0.021 A 
ATOM     23  C   UNL     1      -4.841   1.464   0.404  0.00  0.00    +0.013 A 
ATOM     24  C   UNL     1      -5.430   0.426   1.129  0.00  0.00    +0.017 A 
ATOM     25 CL   UNL     1      -7.699   4.251   0.401  0.00  0.00    -0.084 Cl
ENDBRANCH  14  24
ENDBRANCH   1  17
TORSDOF 2
