REMARK  Name = ZINC41423660
REMARK  4 active torsions:
REMARK  status: ('A' for Active; 'I' for Inactive)
REMARK    1  A    between atoms: C_1  and  C_2
REMARK    2  A    between atoms: N_5  and  S_17
REMARK    3  A    between atoms: C_7  and  C_10
REMARK    4  A    between atoms: S_17  and  C_20
REMARK                            x       y       z     vdW  Elec       q    Type
REMARK                         _______ _______ _______ _____ _____    ______ ____
ROOT
ATOM      1  C   UNL     1      -0.019   1.526   0.010  0.00  0.00    +0.039 C 
ATOM      2  C   UNL     1       0.002  -0.004   0.002  0.00  0.00    +0.132 C 
ATOM      3  C   UNL     1       0.722  -0.499  -1.258  0.00  0.00    +0.140 C 
ATOM      4  N   UNL     1       2.143  -0.135  -1.154  0.00  0.00    -0.171 NA
ATOM      5  C   UNL     1       2.860  -0.488   0.082  0.00  0.00    +0.146 C 
ATOM      6  C   UNL     1       2.036   0.007   1.277  0.00  0.00    +0.164 C 
ATOM      7  O   UNL     1       0.695  -0.479   1.159  0.00  0.00    -0.366 OA
ENDROOT
BRANCH   6   8
ATOM      8  C   UNL     1       2.647  -0.505   2.556  0.00  0.00    -0.017 A 
ATOM      9  C   UNL     1       2.405  -1.803   2.965  0.00  0.00    +0.009 A 
ATOM     10  C   UNL     1       2.965  -2.274   4.138  0.00  0.00    +0.039 A 
ATOM     11  C   UNL     1       3.768  -1.444   4.903  0.00  0.00    +0.123 A 
ATOM     12  C   UNL     1       4.008  -0.144   4.492  0.00  0.00    +0.039 A 
ATOM     13  C   UNL     1       3.452   0.323   3.316  0.00  0.00    +0.009 A 
ATOM     14  F   UNL     1       4.315  -1.903   6.050  0.00  0.00    -0.205 F 
ENDBRANCH   6   8
BRANCH   4  15
ATOM     15  S   UNL     1       2.915   0.650  -2.391  0.00  0.00    +0.061 S 
ATOM     16  O   UNL     1       4.300   0.363  -2.253  0.00  0.00    -0.153 OA
ATOM     17  O   UNL     1       2.189   0.351  -3.576  0.00  0.00    -0.153 OA
BRANCH  15  18
ATOM     18  C   UNL     1       2.728   2.379  -2.109  0.00  0.00    +0.109 A 
ATOM     19  C   UNL     1       1.637   3.049  -2.630  0.00  0.00    +0.032 A 
ATOM     20  C   UNL     1       1.488   4.406  -2.411  0.00  0.00    +0.051 A 
ATOM     21  C   UNL     1       2.432   5.098  -1.668  0.00  0.00    +0.162 A 
ATOM     22  C   UNL     1       3.527   4.424  -1.142  0.00  0.00    +0.164 A 
ATOM     23  C   UNL     1       3.670   3.062  -1.362  0.00  0.00    +0.078 A 
ATOM     24  O   UNL     1       4.462   5.082  -0.403  0.00  0.00    -0.485 OA
ATOM     25  C   UNL     1       4.480   6.510  -0.512  0.00  0.00    +0.270 C 
ATOM     26  C   UNL     1       3.036   7.018  -0.402  0.00  0.00    +0.270 C 
ATOM     27  O   UNL     1       2.273   6.434  -1.464  0.00  0.00    -0.485 OA
ENDBRANCH  15  18
ENDBRANCH   4  15
TORSDOF 3
