REMARK  Name = ZINC52012579
REMARK  8 active torsions:
REMARK  status: ('A' for Active; 'I' for Inactive)
REMARK    1  A    between atoms: C_1  and  C_2
REMARK    2  A    between atoms: C_2  and  C_3
REMARK    3  A    between atoms: C_2  and  C_4
REMARK    4  A    between atoms: C_4  and  C_6
REMARK    5  A    between atoms: C_4  and  C_10
REMARK    6  A    between atoms: N_7  and  O_8
REMARK    7  A    between atoms: N_12  and  C_13
REMARK    8  A    between atoms: C_19  and  O_21
REMARK                            x       y       z     vdW  Elec       q    Type
REMARK                         _______ _______ _______ _____ _____    ______ ____
ROOT
ATOM      1  C   UNL     1      -2.441   0.491  -1.198  0.00  0.00    +0.224 C 
ATOM      2  O   UNL     1      -3.118  -0.113  -2.002  0.00  0.00    -0.275 OA
ATOM      3  N   UNL     1      -2.358   1.835  -1.261  0.00  0.00    -0.309 N 
ATOM      4  H   UNL     1      -1.762   2.312  -0.662  0.00  0.00    +0.149 HD
ENDROOT
BRANCH   3   5
ATOM      5  C   UNL     1      -3.168   2.574  -2.232  0.00  0.00    +0.101 C 
ATOM      6  C   UNL     1      -2.441   2.613  -3.578  0.00  0.00    +0.025 C 
ATOM      7  C   UNL     1      -1.089   3.309  -3.406  0.00  0.00    +0.002 C 
ATOM      8  C   UNL     1      -1.310   4.737  -2.904  0.00  0.00    +0.003 C 
ATOM      9  C   UNL     1      -2.037   4.698  -1.559  0.00  0.00    +0.033 C 
ATOM     10  C   UNL     1      -3.389   4.002  -1.730  0.00  0.00    +0.135 C 
BRANCH  10  11
ATOM     11  O   UNL     1      -4.068   3.966  -0.473  0.00  0.00    -0.390 OA
ATOM     12  H   UNL     1      -4.242   4.838  -0.095  0.00  0.00    +0.210 HD
ENDBRANCH  10  11
ENDBRANCH   3   5
BRANCH   1  13
ATOM     13  C   UNL     1      -1.691  -0.261  -0.129  0.00  0.00    +0.144 C 
BRANCH  13  14
ATOM     14  C   UNL     1      -2.236  -1.662  -0.024  0.00  0.00    +0.144 C 
ATOM     15  N   UNL     1      -1.684  -2.622  -0.690  0.00  0.00    -0.076 NA
ATOM     16  N   UNL     1      -3.323  -1.920   0.781  0.00  0.00    -0.343 N 
ATOM     17  H   UNL     1      -3.738  -1.200   1.281  0.00  0.00    +0.144 HD
ATOM     18  H   UNL     1      -3.674  -2.822   0.849  0.00  0.00    +0.144 HD
BRANCH  15  19
ATOM     19  O   UNL     1      -2.196  -3.938  -0.592  0.00  0.00    -0.408 OA
ATOM     20  H   UNL     1      -1.718  -4.587  -1.126  0.00  0.00    +0.328 HD
ENDBRANCH  15  19
ENDBRANCH  13  14
BRANCH  13  22
ATOM     21  C   UNL     1       0.533  -1.194   0.523  0.00  0.00    +0.008 C 
ATOM     22  C   UNL     1      -0.206  -0.318  -0.491  0.00  0.00    +0.002 C 
ATOM     23  C   UNL     1      -0.044  -0.911  -1.891  0.00  0.00    +0.008 C 
ENDBRANCH  13  22
ENDBRANCH   1  13
TORSDOF 6
