REMARK  Name = ZINC27238916
REMARK  12 active torsions:
REMARK  status: ('A' for Active; 'I' for Inactive)
REMARK    1  A    between atoms: C_1  and  C_2
REMARK    2  A    between atoms: C_5  and  C_8
REMARK    3  A    between atoms: C_8  and  C_9
REMARK    4  A    between atoms: C_8  and  C_17
REMARK    5  A    between atoms: C_8  and  O_36
REMARK    6  A    between atoms: C_12  and  O_15
REMARK    7  A    between atoms: O_15  and  C_16
REMARK    8  A    between atoms: C_17  and  C_19
REMARK    9  A    between atoms: C_17  and  O_27
REMARK   10  A    between atoms: C_19  and  N_20
REMARK   11  A    between atoms: O_27  and  C_28
REMARK   12  A    between atoms: C_33  and  C_34
REMARK                            x       y       z     vdW  Elec       q    Type
REMARK                         _______ _______ _______ _____ _____    ______ ____
ROOT
ATOM      1  C   UNL     1      -0.614   5.908   2.675  0.00  0.00    +0.198 C 
ENDROOT
BRANCH   1   2
ATOM      2  C   UNL     1      -0.416   7.305   3.266  0.00  0.00    +0.151 C 
BRANCH   2   7
ATOM      3  C   UNL     1      -0.176   6.947   9.028  0.00  0.00    +0.044 C 
ATOM      4  C   UNL     1      -0.239   7.040   7.525  0.00  0.00    -0.050 A 
ATOM      5  C   UNL     1       0.454   8.039   6.865  0.00  0.00    +0.004 A 
ATOM      6  C   UNL     1       0.396   8.124   5.487  0.00  0.00    +0.007 A 
ATOM      7  C   UNL     1      -0.353   7.212   4.768  0.00  0.00    -0.008 A 
ATOM      8  C   UNL     1      -1.050   6.216   5.428  0.00  0.00    +0.007 A 
ATOM      9  C   UNL     1      -0.989   6.128   6.807  0.00  0.00    +0.004 A 
ENDBRANCH   2   7
BRANCH   2  10
ATOM     10  C   UNL     1      -1.570   8.188   2.865  0.00  0.00    -0.008 A 
ATOM     11  C   UNL     1      -2.818   7.635   2.647  0.00  0.00    +0.010 A 
ATOM     12  C   UNL     1      -3.879   8.442   2.285  0.00  0.00    +0.046 A 
ATOM     13  C   UNL     1      -3.689   9.808   2.130  0.00  0.00    +0.120 A 
ATOM     14  C   UNL     1      -2.434  10.359   2.344  0.00  0.00    +0.046 A 
ATOM     15  C   UNL     1      -1.378   9.548   2.711  0.00  0.00    +0.010 A 
BRANCH  13  16
ATOM     16  O   UNL     1      -4.729  10.603   1.769  0.00  0.00    -0.495 OA
ATOM     17  C   UNL     1      -5.993   9.967   1.565  0.00  0.00    +0.277 C 
ENDBRANCH  13  16
ENDBRANCH   2  10
BRANCH   2  18
ATOM     18  O   UNL     1       0.804   7.863   2.772  0.00  0.00    -0.376 OA
ATOM     19  H   UNL     1       0.944   8.009   1.690  0.00  0.00    +0.211 HD
ENDBRANCH   2  18
ENDBRANCH   1   2
BRANCH   1  20
ATOM     20  C   UNL     1      -0.677   6.003   1.150  0.00  0.00    -0.030 C 
BRANCH  20  21
ATOM     21  N   UNL     1      -0.920   4.668   0.586  0.00  0.00    +0.382 N 
ATOM     22  C   UNL     1       0.318   3.858   0.589  0.00  0.00    -0.079 C 
ATOM     23  C   UNL     1       0.190   2.595  -0.220  0.00  0.00    -0.019 C 
ATOM     24  C   UNL     1       0.709   2.872  -1.646  0.00  0.00    -0.002 C 
ATOM     25  C   UNL     1      -0.272   3.585  -2.458  0.00  0.00    -0.002 C 
ATOM     26  C   UNL     1      -0.626   4.965  -1.865  0.00  0.00    -0.019 C 
ATOM     27  C   UNL     1      -1.592   4.763  -0.730  0.00  0.00    -0.079 C 
ATOM     28  H   UNL     1      -1.625   4.130   1.237  0.00  0.00    -0.082 HD
ENDBRANCH  20  21
ENDBRANCH   1  20
BRANCH   1  29
ATOM     29  O   UNL     1       0.481   5.071   3.055  0.00  0.00    -0.487 OA
BRANCH  29  30
ATOM     30  C   UNL     1       0.174   3.860   3.591  0.00  0.00    +0.124 A 
ATOM     31  C   UNL     1      -1.144   3.428   3.624  0.00  0.00    +0.047 A 
ATOM     32  C   UNL     1      -1.452   2.196   4.166  0.00  0.00    +0.023 A 
ATOM     33  C   UNL     1      -0.449   1.396   4.684  0.00  0.00    +0.041 A 
ATOM     34  C   UNL     1       0.865   1.826   4.656  0.00  0.00    +0.027 A 
ATOM     35  C   UNL     1       1.179   3.057   4.111  0.00  0.00    -0.007 A 
ATOM     36  C   UNL     1       2.611   3.526   4.081  0.00  0.00    +0.047 C 
ATOM     37 CL   UNL     1      -0.840  -0.150   5.369  0.00  0.00    -0.084 Cl
ENDBRANCH  29  30
ENDBRANCH   1  29
TORSDOF 9
