REMARK  Name = ZINC39631392
REMARK  11 active torsions:
REMARK  status: ('A' for Active; 'I' for Inactive)
REMARK    1  A    between atoms: C_1  and  C_2
REMARK    2  A    between atoms: C_2  and  C_4
REMARK    3  A    between atoms: C_2  and  N_11
REMARK    4  A    between atoms: C_4  and  C_5
REMARK    5  A    between atoms: C_5  and  C_6
REMARK    6  A    between atoms: C_6  and  C_7
REMARK    7  A    between atoms: C_7  and  C_8
REMARK    8  A    between atoms: C_7  and  C_9
REMARK    9  A    between atoms: C_7  and  O_10
REMARK   10  A    between atoms: C_12  and  C_14
REMARK   11  A    between atoms: C_25  and  C_27
REMARK                            x       y       z     vdW  Elec       q    Type
REMARK                         _______ _______ _______ _____ _____    ______ ____
ROOT
ATOM      1  C   UNL     1      -3.330  -0.543   1.293  0.00  0.00    +0.100 C 
ATOM      2  C   UNL     1      -4.435   0.198   0.508  0.00  0.00    +0.121 C 
ATOM      3  N   UNL     1      -5.653   0.043   1.338  0.00  0.00    -0.296 N 
ATOM      4  C   UNL     1      -5.170   0.193   2.732  0.00  0.00    +0.115 C 
ATOM      5  C   UNL     1      -3.816  -0.543   2.753  0.00  0.00    -0.004 C 
ATOM      6  C   UNL     1      -2.824   0.203   3.640  0.00  0.00    -0.010 C 
ATOM      7  C   UNL     1      -3.299   0.138   5.094  0.00  0.00    -0.082 C 
ATOM      8  N   UNL     1      -3.404  -1.264   5.515  0.00  0.00    +0.379 N 
ATOM      9  C   UNL     1      -4.427  -1.951   4.718  0.00  0.00    -0.082 C 
ATOM     10  C   UNL     1      -4.000  -1.975   3.248  0.00  0.00    -0.010 C 
ATOM     11  C   UNL     1      -6.914  -0.183   0.920  0.00  0.00    +0.247 C 
ATOM     12  O   UNL     1      -7.136  -0.393  -0.256  0.00  0.00    -0.270 OA
ATOM     13  H   UNL     1      -2.514  -1.721   5.383  0.00  0.00    -0.086 HD
ATOM     14  H   UNL     1      -3.657  -1.303   6.491  0.00  0.00    -0.086 HD
ENDROOT
BRANCH  11  15
ATOM     15  C   UNL     1      -8.027  -0.175   1.893  0.00  0.00    +0.040 A 
ATOM     16  C   UNL     1      -7.885   0.483   3.115  0.00  0.00    +0.033 A 
ATOM     17  C   UNL     1      -8.929   0.487   4.020  0.00  0.00    +0.043 A 
ATOM     18  C   UNL     1     -10.114  -0.161   3.716  0.00  0.00    +0.040 A 
ATOM     19  C   UNL     1     -10.261  -0.817   2.506  0.00  0.00    +0.043 A 
ATOM     20  C   UNL     1      -9.227  -0.822   1.590  0.00  0.00    +0.033 A 
ATOM     21 CL   UNL     1     -11.750  -1.627   2.134  0.00  0.00    -0.083 Cl
ATOM     22 CL   UNL     1      -8.754   1.305   5.541  0.00  0.00    -0.083 Cl
ENDBRANCH  11  15
BRANCH   1  24
ATOM     23  N   UNL     1      -0.858  -0.487   1.235  0.00  0.00    -0.312 N 
ATOM     24  C   UNL     1      -2.020   0.193   1.177  0.00  0.00    +0.218 C 
ATOM     25  O   UNL     1      -2.011   1.397   1.030  0.00  0.00    -0.275 OA
ATOM     26  H   UNL     1      -0.865  -1.450   1.353  0.00  0.00    +0.149 HD
BRANCH  23  28
ATOM     27  C   UNL     1       0.767   0.412  -0.356  0.00  0.00    +0.028 C 
ATOM     28  C   UNL     1       0.416   0.228   1.122  0.00  0.00    +0.070 C 
BRANCH  28  29
ATOM     29  C   UNL     1       1.517  -0.580   1.811  0.00  0.00    +0.022 C 
BRANCH  29  30
ATOM     30  C   UNL     1       1.229  -0.657   3.312  0.00  0.00    +0.005 C 
BRANCH  30  31
ATOM     31  C   UNL     1       2.331  -1.465   4.002  0.00  0.00    +0.034 C 
BRANCH  31  32
ATOM     32  C   UNL     1       2.042  -1.543   5.502  0.00  0.00    +0.061 C 
ATOM     33  C   UNL     1       0.692  -2.226   5.727  0.00  0.00    +0.041 C 
ATOM     34  C   UNL     1       3.144  -2.350   6.192  0.00  0.00    +0.041 C 
BRANCH  32  35
ATOM     35  O   UNL     1       2.006  -0.223   6.049  0.00  0.00    -0.389 OA
ATOM     36  H   UNL     1       2.830   0.270   5.942  0.00  0.00    +0.210 HD
ENDBRANCH  32  35
ENDBRANCH  31  32
ENDBRANCH  30  31
ENDBRANCH  29  30
ENDBRANCH  28  29
ENDBRANCH  23  28
ENDBRANCH   1  24
TORSDOF 8
