REMARK  Name = ZINC63465086
REMARK  7 active torsions:
REMARK  status: ('A' for Active; 'I' for Inactive)
REMARK    1  A    between atoms: C_6  and  S_10
REMARK    2  A    between atoms: S_10  and  C_11
REMARK    3  A    between atoms: C_11  and  C_12
REMARK    4  A    between atoms: N_14  and  N_15
REMARK    5  A    between atoms: C_16  and  C_18
REMARK    6  A    between atoms: C_18  and  O_19
REMARK    7  A    between atoms: O_19  and  C_20
REMARK                            x       y       z     vdW  Elec       q    Type
REMARK                         _______ _______ _______ _____ _____    ______ ____
ROOT
ATOM      1  C   UNL     1       3.313  -2.560  -4.211  0.00  0.00    +0.239 C 
ATOM      2  O   UNL     1       4.002  -3.557  -4.234  0.00  0.00    -0.273 OA
ATOM      3  N   UNL     1       2.897  -2.000  -5.364  0.00  0.00    -0.234 N 
ATOM      4  H   UNL     1       2.346  -1.202  -5.346  0.00  0.00    +0.173 HD
ENDROOT
BRANCH   3   5
ATOM      5  N   UNL     1       3.262  -2.571  -6.591  0.00  0.00    -0.232 N 
ATOM      6  C   UNL     1       2.846  -2.012  -7.745  0.00  0.00    +0.267 C 
ATOM      7  O   UNL     1       2.157  -1.014  -7.721  0.00  0.00    -0.271 OA
ATOM      8  H   UNL     1       3.813  -3.369  -6.609  0.00  0.00    +0.173 HD
BRANCH   6   9
ATOM      9  C   UNL     1       3.238  -2.626  -9.064  0.00  0.00    +0.326 C 
BRANCH   9  10
ATOM     10  O   UNL     1       2.680  -1.858 -10.131  0.00  0.00    -0.483 OA
BRANCH  10  11
ATOM     11  C   UNL     1       2.941  -2.280 -11.397  0.00  0.00    +0.121 A 
ATOM     12  C   UNL     1       3.713  -3.413 -11.606  0.00  0.00    +0.047 A 
ATOM     13  C   UNL     1       3.976  -3.840 -12.893  0.00  0.00    +0.023 A 
ATOM     14  C   UNL     1       3.471  -3.138 -13.973  0.00  0.00    +0.041 A 
ATOM     15  C   UNL     1       2.702  -2.007 -13.767  0.00  0.00    +0.023 A 
ATOM     16  C   UNL     1       2.430  -1.580 -12.481  0.00  0.00    +0.047 A 
ATOM     17 CL   UNL     1       3.804  -3.677 -15.590  0.00  0.00    -0.084 Cl
ENDBRANCH  10  11
ENDBRANCH   9  10
ENDBRANCH   6   9
ENDBRANCH   3   5
BRANCH   1  18
ATOM     18  C   UNL     1       2.921  -1.946  -2.892  0.00  0.00    +0.170 C 
BRANCH  18  19
ATOM     19  S   UNL     1       3.629  -2.921  -1.536  0.00  0.00    -0.106 S 
BRANCH  19  25
ATOM     20  C   UNL     1      -0.016   1.344   0.009  0.00  0.00    +0.002 A 
ATOM     21  C   UNL     1       1.158   2.118   0.002  0.00  0.00    +0.002 A 
ATOM     22  C   UNL     1       2.389   1.570  -0.013  0.00  0.00    +0.027 A 
ATOM     23  C   UNL     1       2.533   0.108  -0.022  0.00  0.00    +0.061 A 
ATOM     24  N   UNL     1       3.569  -0.680  -0.036  0.00  0.00    -0.355 N 
ATOM     25  C   UNL     1       3.071  -2.062  -0.039  0.00  0.00    +0.236 C 
ATOM     26  N   UNL     1       1.606  -1.974  -0.024  0.00  0.00    -0.355 N 
ATOM     27  C   UNL     1       1.290  -0.712  -0.014  0.00  0.00    +0.061 A 
ATOM     28  C   UNL     1       0.002  -0.004   0.002  0.00  0.00    +0.027 A 
ATOM     29  H   UNL     1       4.499  -0.405  -0.045  0.00  0.00    +0.162 HD
ATOM     30  H   UNL     1       0.987  -2.721  -0.022  0.00  0.00    +0.162 HD
ENDBRANCH  19  25
ENDBRANCH  18  19
ENDBRANCH   1  18
TORSDOF 7
