REMARK  Name = ZINC49131868
REMARK  10 active torsions:
REMARK  status: ('A' for Active; 'I' for Inactive)
REMARK    1  A    between atoms: C_1  and  C_2
REMARK    2  A    between atoms: N_8  and  C_9
REMARK    3  A    between atoms: C_9  and  C_10
REMARK    4  A    between atoms: C_10  and  C_11
REMARK    5  A    between atoms: C_11  and  N_12
REMARK    6  A    between atoms: C_13  and  C_15
REMARK    7  A    between atoms: N_17  and  C_18
REMARK    8  A    between atoms: C_23  and  C_24
REMARK    9  A    between atoms: C_24  and  C_25
REMARK   10  A    between atoms: N_27  and  C_28
REMARK                            x       y       z     vdW  Elec       q    Type
REMARK                         _______ _______ _______ _____ _____    ______ ____
ROOT
ATOM      1  C   UNL     1       6.782  -0.090   5.306  0.00  0.00    +0.303 C 
ATOM      2  O   UNL     1       6.205  -0.789   6.113  0.00  0.00    -0.265 OA
ATOM      3  N   UNL     1       8.042   0.321   5.550  0.00  0.00    -0.277 N 
ATOM      4  H   UNL     1       8.532   0.812   4.872  0.00  0.00    +0.155 HD
ENDROOT
BRANCH   3   5
ATOM      5  C   UNL     1       8.643   0.040   6.780  0.00  0.00    +0.037 A 
ATOM      6  C   UNL     1       7.857  -0.176   7.906  0.00  0.00    +0.023 A 
ATOM      7  C   UNL     1       8.454  -0.453   9.120  0.00  0.00    +0.002 A 
ATOM      8  C   UNL     1       9.832  -0.515   9.216  0.00  0.00    +0.000 A 
ATOM      9  C   UNL     1      10.617  -0.300   8.098  0.00  0.00    +0.006 A 
ATOM     10  C   UNL     1      10.027  -0.029   6.880  0.00  0.00    -0.017 A 
BRANCH  10  11
ATOM     11  C   UNL     1      10.883   0.198   5.660  0.00  0.00    +0.132 C 
BRANCH  11  12
ATOM     12  C   UNL     1      11.115   1.676   5.477  0.00  0.00    +0.217 C 
ATOM     13  O   UNL     1      10.632   2.467   6.260  0.00  0.00    -0.275 OA
ATOM     14  N   UNL     1      11.858   2.118   4.444  0.00  0.00    -0.318 N 
ATOM     15  C   UNL     1      12.084   3.555   4.266  0.00  0.00    +0.128 C 
ATOM     16  H   UNL     1      12.244   1.486   3.818  0.00  0.00    +0.148 HD
ENDBRANCH  11  12
ENDBRANCH  10  11
ENDBRANCH   3   5
BRANCH   1  18
ATOM     17  N   UNL     1       4.836  -0.097   3.799  0.00  0.00    -0.308 N 
ATOM     18  C   UNL     1       6.096   0.315   4.043  0.00  0.00    +0.299 C 
ATOM     19  O   UNL     1       6.673   1.014   3.236  0.00  0.00    -0.265 OA
ATOM     20  H   UNL     1       4.375  -0.655   4.444  0.00  0.00    +0.149 HD
BRANCH  17  21
ATOM     21  C   UNL     1       4.163   0.300   2.559  0.00  0.00    +0.103 C 
BRANCH  21  22
ATOM     22  C   UNL     1       2.754  -0.295   2.531  0.00  0.00    +0.000 C 
BRANCH  22  23
ATOM     23  C   UNL     1       2.051   0.119   1.237  0.00  0.00    -0.077 C 
BRANCH  23  30
ATOM     24  C   UNL     1      -0.036   1.572   0.046  0.00  0.00    -0.013 C 
ATOM     25  C   UNL     1      -0.017   0.043   0.027  0.00  0.00    -0.072 C 
ATOM     26  C   UNL     1      -1.453  -0.486   0.037  0.00  0.00    -0.016 C 
ATOM     27  C   UNL     1      -1.428  -2.017   0.017  0.00  0.00    -0.003 C 
ATOM     28  C   UNL     1      -0.616  -2.520   1.214  0.00  0.00    -0.019 C 
ATOM     29  C   UNL     1       0.789  -1.917   1.160  0.00  0.00    -0.078 C 
ATOM     30  N   UNL     1       0.698  -0.452   1.209  0.00  0.00    +0.381 N 
ATOM     31  H   UNL     1       0.201  -0.175   2.042  0.00  0.00    -0.081 HD
ENDBRANCH  23  30
ENDBRANCH  22  23
ENDBRANCH  21  22
ENDBRANCH  17  21
ENDBRANCH   1  18
TORSDOF 8
