REMARK  Name = ZINC39608041
REMARK  11 active torsions:
REMARK  status: ('A' for Active; 'I' for Inactive)
REMARK    1  A    between atoms: C_1  and  C_2
REMARK    2  A    between atoms: C_2  and  C_3
REMARK    3  A    between atoms: C_3  and  C_4
REMARK    4  A    between atoms: C_3  and  C_6
REMARK    5  A    between atoms: C_4  and  C_5
REMARK    6  A    between atoms: C_10  and  C_19
REMARK    7  A    between atoms: N_21  and  C_22
REMARK    8  A    between atoms: C_22  and  C_24
REMARK    9  A    between atoms: C_22  and  C_25
REMARK   10  A    between atoms: C_25  and  C_26
REMARK   11  A    between atoms: C_25  and  C_27
REMARK                            x       y       z     vdW  Elec       q    Type
REMARK                         _______ _______ _______ _____ _____    ______ ____
ROOT
ATOM      1  C   UNL     1      -1.140  -2.381   0.502  0.00  0.00    +0.219 C 
ATOM      2  O   UNL     1      -1.690  -3.186  -0.219  0.00  0.00    -0.275 OA
ATOM      3  N   UNL     1      -0.617  -2.778   1.679  0.00  0.00    -0.300 N 
ATOM      4  C   UNL     1       0.080  -1.948   2.690  0.00  0.00    +0.121 C 
ATOM      5  C   UNL     1      -0.418  -2.487   4.049  0.00  0.00    +0.100 C 
ATOM      6  C   UNL     1      -0.868  -3.929   3.759  0.00  0.00    -0.004 C 
ATOM      7  C   UNL     1      -0.616  -4.143   2.259  0.00  0.00    +0.115 C 
ATOM      8  C   UNL     1      -2.353  -4.091   4.066  0.00  0.00    -0.010 C 
ATOM      9  C   UNL     1      -2.764  -5.546   3.824  0.00  0.00    -0.082 C 
ATOM     10  N   UNL     1      -1.967  -6.431   4.682  0.00  0.00    +0.379 N 
ATOM     11  C   UNL     1      -0.548  -6.338   4.317  0.00  0.00    -0.082 C 
ATOM     12  C   UNL     1      -0.044  -4.916   4.580  0.00  0.00    -0.010 C 
ATOM     13  H   UNL     1      -2.083  -6.157   5.646  0.00  0.00    -0.086 HD
ATOM     14  H   UNL     1      -2.281  -7.383   4.565  0.00  0.00    -0.086 HD
ENDROOT
BRANCH   5  15
ATOM     15  C   UNL     1      -1.577  -1.664   4.548  0.00  0.00    +0.218 C 
ATOM     16  O   UNL     1      -2.369  -1.192   3.759  0.00  0.00    -0.275 OA
ATOM     17  N   UNL     1      -1.734  -1.451   5.869  0.00  0.00    -0.312 N 
ATOM     18  H   UNL     1      -1.101  -1.828   6.500  0.00  0.00    +0.149 HD
BRANCH  17  19
ATOM     19  C   UNL     1      -2.861  -0.650   6.353  0.00  0.00    +0.072 C 
ATOM     20  C   UNL     1      -2.490   0.833   6.308  0.00  0.00    +0.028 C 
BRANCH  19  21
ATOM     21  C   UNL     1      -3.189  -1.050   7.793  0.00  0.00    +0.003 C 
ATOM     22  C   UNL     1      -2.014  -0.687   8.704  0.00  0.00    +0.009 C 
ATOM     23  C   UNL     1      -4.442  -0.304   8.257  0.00  0.00    +0.009 C 
ENDBRANCH  19  21
ENDBRANCH  17  19
ENDBRANCH   5  15
BRANCH   1  24
ATOM     24  C   UNL     1      -1.041  -0.937   0.083  0.00  0.00    +0.075 C 
BRANCH  24  26
ATOM     25  C   UNL     1       0.532   0.966  -0.302  0.00  0.00    +0.004 C 
ATOM     26  C   UNL     1       0.432  -0.533  -0.012  0.00  0.00    +0.009 C 
ENDBRANCH  24  26
BRANCH  24  27
ATOM     27  C   UNL     1      -1.708  -0.756  -1.282  0.00  0.00    +0.009 C 
ATOM     28  C   UNL     1      -3.213  -1.000  -1.151  0.00  0.00    +0.004 C 
ENDBRANCH  24  27
ENDBRANCH   1  24
TORSDOF 6
