REMARK  Name = ZINC20256627
REMARK  10 active torsions:
REMARK  status: ('A' for Active; 'I' for Inactive)
REMARK    1  A    between atoms: C_5  and  C_7
REMARK    2  A    between atoms: C_7  and  N_8
REMARK    3  A    between atoms: N_8  and  C_9
REMARK    4  A    between atoms: C_9  and  C_10
REMARK    5  A    between atoms: C_10  and  C_11
REMARK    6  A    between atoms: N_17  and  C_18
REMARK    7  A    between atoms: C_18  and  C_19
REMARK    8  A    between atoms: C_19  and  C_20
REMARK    9  A    between atoms: C_23  and  S_26
REMARK   10  A    between atoms: S_26  and  N_29
REMARK                            x       y       z     vdW  Elec       q    Type
REMARK                         _______ _______ _______ _____ _____    ______ ____
ROOT
ATOM      1  C   UNL     1      -0.870   3.454  -0.311  0.00  0.00    +0.075 C 
ATOM      2  C   UNL     1       0.613   3.425   0.121  0.00  0.00    +0.031 C 
ATOM      3  C   UNL     1       0.991   1.950  -0.148  0.00  0.00    +0.098 C 
ATOM      4  C   UNL     1      -0.325   1.209  -0.068  0.00  0.00    +0.216 C 
ATOM      5  O   UNL     1      -0.440   0.008   0.058  0.00  0.00    -0.276 OA
ATOM      6  N   UNL     1      -1.349   2.075  -0.162  0.00  0.00    -0.298 N 
ENDROOT
BRANCH   1   7
ATOM      7  C   UNL     1      -1.666   4.396   0.594  0.00  0.00    +0.003 C 
BRANCH   7   8
ATOM      8  C   UNL     1      -1.181   5.832   0.387  0.00  0.00    -0.080 C 
BRANCH   8   9
ATOM      9  N   UNL     1      -1.888   6.726   1.315  0.00  0.00    +0.382 N 
ATOM     10  H   UNL     1      -1.610   6.456   2.344  0.00  0.00    -0.085 HD
ATOM     11  H   UNL     1      -2.971   6.590   1.179  0.00  0.00    -0.085 HD
BRANCH   9  12
ATOM     12  C   UNL     1      -1.535   8.130   1.064  0.00  0.00    -0.044 C 
BRANCH  12  17
ATOM     13  C   UNL     1      -3.986  10.491   2.699  0.00  0.00    +0.000 A 
ATOM     14  C   UNL     1      -3.447  10.617   3.966  0.00  0.00    +0.003 A 
ATOM     15  C   UNL     1      -2.288   9.940   4.295  0.00  0.00    +0.038 A 
ATOM     16  C   UNL     1      -1.668   9.134   3.355  0.00  0.00    +0.125 A 
ATOM     17  C   UNL     1      -2.209   9.007   2.088  0.00  0.00    -0.029 A 
ATOM     18  C   UNL     1      -3.365   9.690   1.759  0.00  0.00    +0.004 A 
ATOM     19  F   UNL     1      -0.535   8.470   3.676  0.00  0.00    -0.205 F 
ENDBRANCH  12  17
ENDBRANCH   9  12
ENDBRANCH   8   9
ENDBRANCH   7   8
ENDBRANCH   1   7
BRANCH   6  20
ATOM     20  C   UNL     1      -2.762   1.691  -0.117  0.00  0.00    +0.112 C 
BRANCH  20  21
ATOM     21  C   UNL     1      -3.214   1.578   1.341  0.00  0.00    +0.054 C 
BRANCH  21  22
ATOM     22  C   UNL     1      -4.647   1.113   1.388  0.00  0.00    -0.046 A 
ATOM     23  C   UNL     1      -5.671   2.036   1.477  0.00  0.00    +0.005 A 
ATOM     24  C   UNL     1      -6.985   1.609   1.516  0.00  0.00    +0.029 A 
ATOM     25  C   UNL     1      -7.275   0.258   1.475  0.00  0.00    +0.105 A 
ATOM     26  C   UNL     1      -6.250  -0.666   1.391  0.00  0.00    +0.029 A 
ATOM     27  C   UNL     1      -4.936  -0.239   1.347  0.00  0.00    +0.005 A 
BRANCH  25  28
ATOM     28  S   UNL     1      -8.950  -0.286   1.529  0.00  0.00    +0.056 S 
ATOM     29  O   UNL     1      -9.743   0.794   1.057  0.00  0.00    -0.153 OA
ATOM     30  O   UNL     1      -8.978  -1.572   0.926  0.00  0.00    -0.153 OA
BRANCH  28  31
ATOM     31  N   UNL     1      -9.343  -0.502   3.123  0.00  0.00    -0.204 NA
ATOM     32  H   UNL     1     -10.386  -0.843   3.200  0.00  0.00    +0.144 HD
ATOM     33  H   UNL     1      -9.228   0.451   3.661  0.00  0.00    +0.144 HD
ENDBRANCH  28  31
ENDBRANCH  25  28
ENDBRANCH  21  22
ENDBRANCH  20  21
ENDBRANCH   6  20
TORSDOF 10
