REMARK  Name = ZINC12844690
REMARK  11 active torsions:
REMARK  status: ('A' for Active; 'I' for Inactive)
REMARK    1  A    between atoms: C_1  and  C_2
REMARK    2  A    between atoms: C_2  and  C_4
REMARK    3  A    between atoms: C_2  and  O_37
REMARK    4  A    between atoms: C_6  and  O_35
REMARK    5  A    between atoms: C_7  and  O_33
REMARK    6  A    between atoms: C_9  and  N_10
REMARK    7  A    between atoms: C_11  and  C_13
REMARK    8  A    between atoms: C_17  and  C_28
REMARK    9  A    between atoms: C_20  and  C_24
REMARK   10  A    between atoms: O_33  and  C_34
REMARK   11  A    between atoms: O_35  and  C_36
REMARK                            x       y       z     vdW  Elec       q    Type
REMARK                         _______ _______ _______ _____ _____    ______ ____
ROOT
ATOM      1  C   UNL     1      -3.455  -0.349   3.684  0.00  0.00    +0.110 C 
ATOM      2  C   UNL     1      -4.214   0.091   2.650  0.00  0.00    +0.072 C 
ATOM      3  C   UNL     1      -5.593   0.172   3.129  0.00  0.00    +0.114 C 
ATOM      4  N   UNL     1      -6.677   0.531   2.501  0.00  0.00    -0.362 N 
ATOM      5  C   UNL     1      -7.960   0.489   3.212  0.00  0.00    +0.149 C 
ATOM      6  C   UNL     1      -7.761   0.786   4.699  0.00  0.00    +0.065 C 
ATOM      7  C   UNL     1      -6.776  -0.226   5.303  0.00  0.00    +0.202 C 
ATOM      8  N   UNL     1      -5.573  -0.214   4.464  0.00  0.00    -0.226 N 
ATOM      9  N   UNL     1      -4.265  -0.556   4.788  0.00  0.00    -0.258 N 
ATOM     10  H   UNL     1      -3.967  -0.885   5.651  0.00  0.00    +0.170 HD
ATOM     11  H   UNL     1      -6.636   0.823   1.577  0.00  0.00    +0.162 HD
ENDROOT
BRANCH   5  12
ATOM     12  C   UNL     1      -8.890   1.516   2.620  0.00  0.00    +0.127 A 
ATOM     13  C   UNL     1     -10.208   1.353   2.403  0.00  0.00    +0.047 A 
ATOM     14  C   UNL     1     -10.683   2.559   1.839  0.00  0.00    +0.041 A 
ATOM     15  C   UNL     1      -9.628   3.387   1.745  0.00  0.00    +0.195 A 
ATOM     16  O   UNL     1      -8.546   2.753   2.225  0.00  0.00    -0.466 OA
ENDBRANCH   5  12
BRANCH   1  18
ATOM     17  N   UNL     1      -1.311  -0.338   2.501  0.00  0.00    -0.280 N 
ATOM     18  C   UNL     1      -1.994  -0.576   3.638  0.00  0.00    +0.264 C 
ATOM     19  O   UNL     1      -1.410  -0.978   4.625  0.00  0.00    -0.268 OA
ATOM     20  H   UNL     1      -1.764   0.045   1.734  0.00  0.00    +0.155 HD
BRANCH  17  26
ATOM     21  C   UNL     1       0.599  -1.101   1.237  0.00  0.00    +0.005 A 
ATOM     22  C   UNL     1       1.947  -1.397   1.161  0.00  0.00    +0.057 A 
ATOM     23  C   UNL     1       2.755  -1.242   2.276  0.00  0.00    +0.162 A 
ATOM     24  C   UNL     1       2.210  -0.786   3.473  0.00  0.00    +0.163 A 
ATOM     25  C   UNL     1       0.860  -0.489   3.548  0.00  0.00    +0.073 A 
ATOM     26  C   UNL     1       0.053  -0.642   2.428  0.00  0.00    +0.043 A 
BRANCH  21  28
ATOM     27  C   UNL     1      -0.393   0.064  -0.715  0.00  0.00    +0.043 C 
ATOM     28  C   UNL     1      -0.278  -1.272   0.023  0.00  0.00    +0.143 C 
BRANCH  28  29
ATOM     29  O   UNL     1       0.297  -2.249  -0.847  0.00  0.00    -0.387 OA
ATOM     30  H   UNL     1       0.400  -3.122  -0.445  0.00  0.00    +0.210 HD
ENDBRANCH  28  29
ENDBRANCH  21  28
BRANCH  24  31
ATOM     31  O   UNL     1       3.003  -0.633   4.567  0.00  0.00    -0.491 OA
ATOM     32  C   UNL     1       2.376  -0.162   5.762  0.00  0.00    +0.277 C 
ENDBRANCH  24  31
BRANCH  23  33
ATOM     33  O   UNL     1       4.082  -1.534   2.200  0.00  0.00    -0.491 OA
ATOM     34  C   UNL     1       4.573  -1.997   0.940  0.00  0.00    +0.277 C 
ENDBRANCH  23  33
ENDBRANCH  17  26
ENDBRANCH   1  18
BRANCH   7  35
ATOM     35  C   UNL     1      -6.420   0.184   6.733  0.00  0.00    +0.410 C 
ATOM     36  F   UNL     1      -7.581   0.218   7.512  0.00  0.00    -0.169 F 
ATOM     37  F   UNL     1      -5.522  -0.743   7.274  0.00  0.00    -0.169 F 
ATOM     38  F   UNL     1      -5.829   1.453   6.721  0.00  0.00    -0.169 F 
ENDBRANCH   7  35
TORSDOF 8
