REMARK  Name = ZINC16556805
REMARK  11 active torsions:
REMARK  status: ('A' for Active; 'I' for Inactive)
REMARK    1  A    between atoms: C_1  and  C_2
REMARK    2  A    between atoms: C_2  and  N_3
REMARK    3  A    between atoms: N_3  and  C_4
REMARK    4  A    between atoms: N_3  and  C_18
REMARK    5  A    between atoms: C_4  and  C_5
REMARK    6  A    between atoms: N_7  and  C_8
REMARK    7  A    between atoms: C_11  and  N_14
REMARK    8  A    between atoms: C_15  and  C_17
REMARK    9  A    between atoms: C_18  and  C_20
REMARK   10  A    between atoms: C_18  and  C_21
REMARK   11  A    between atoms: N_23  and  C_24
REMARK                            x       y       z     vdW  Elec       q    Type
REMARK                         _______ _______ _______ _____ _____    ______ ____
ROOT
ATOM      1  N   UNL     1       1.861  -0.015  -0.493  0.00  0.00    +0.393 N 
ATOM      2  H   UNL     1       1.565   0.912  -0.759  0.00  0.00    -0.080 HD
ENDROOT
BRANCH   1   4
ATOM      3  C   UNL     1       2.158  -1.584   1.364  0.00  0.00    -0.017 C 
ATOM      4  C   UNL     1       1.776  -0.156   0.967  0.00  0.00    -0.081 C 
ENDBRANCH   1   4
BRANCH   1   5
ATOM      5  C   UNL     1       0.989  -1.009  -1.133  0.00  0.00    +0.017 C 
ATOM      6  C   UNL     1       1.006  -0.803  -2.648  0.00  0.00    -0.004 C 
BRANCH   5   7
ATOM      7  C   UNL     1      -0.419  -0.847  -0.620  0.00  0.00    +0.200 C 
ATOM      8  O   UNL     1      -0.800   0.235  -0.227  0.00  0.00    -0.278 OA
ATOM      9  N   UNL     1      -1.254  -1.904  -0.597  0.00  0.00    -0.311 N 
ATOM     10  H   UNL     1      -0.949  -2.770  -0.911  0.00  0.00    +0.149 HD
BRANCH   9  11
ATOM     11  C   UNL     1      -2.623  -1.746  -0.099  0.00  0.00    +0.035 C 
ATOM     12  C   UNL     1      -3.360  -0.711  -0.951  0.00  0.00    +0.029 C 
ATOM     13  C   UNL     1      -4.789  -0.546  -0.430  0.00  0.00    -0.008 C 
ATOM     14  C   UNL     1      -5.520  -1.888  -0.512  0.00  0.00    +0.007 C 
ATOM     15  C   UNL     1      -4.782  -2.923   0.340  0.00  0.00    -0.008 C 
ATOM     16  C   UNL     1      -3.353  -3.088  -0.181  0.00  0.00    +0.029 C 
ATOM     17  C   UNL     1      -4.744  -2.452   1.795  0.00  0.00    +0.007 C 
ATOM     18  C   UNL     1      -4.013  -1.110   1.877  0.00  0.00    -0.008 C 
ATOM     19  C   UNL     1      -4.750  -0.075   1.025  0.00  0.00    +0.007 C 
ATOM     20  C   UNL     1      -2.584  -1.275   1.357  0.00  0.00    +0.029 C 
ENDBRANCH   9  11
ENDBRANCH   5   7
ENDBRANCH   1   5
BRANCH   1  21
ATOM     21  C   UNL     1       3.248  -0.229  -0.926  0.00  0.00    +0.020 C 
BRANCH  21  22
ATOM     22  C   UNL     1       4.122   0.868  -0.375  0.00  0.00    +0.201 C 
ATOM     23  O   UNL     1       3.624   1.788   0.239  0.00  0.00    -0.278 OA
ATOM     24  N   UNL     1       5.455   0.827  -0.566  0.00  0.00    -0.287 N 
ATOM     25  H   UNL     1       5.845   0.134  -1.121  0.00  0.00    +0.155 HD
BRANCH  24  26
ATOM     26  C   UNL     1       6.278   1.786   0.039  0.00  0.00    +0.033 A 
ATOM     27  C   UNL     1       7.423   2.227  -0.612  0.00  0.00    +0.025 A 
ATOM     28  C   UNL     1       8.235   3.172  -0.017  0.00  0.00    +0.025 A 
ATOM     29  C   UNL     1       7.906   3.682   1.233  0.00  0.00    +0.033 A 
ATOM     30  C   UNL     1       6.761   3.241   1.883  0.00  0.00    +0.025 A 
ATOM     31  C   UNL     1       5.947   2.300   1.285  0.00  0.00    +0.025 A 
BRANCH  29  32
ATOM     32  N   UNL     1       8.729   4.640   1.837  0.00  0.00    -0.286 N 
ATOM     33  C   UNL     1       8.872   4.658   3.177  0.00  0.00    +0.214 C 
ATOM     34  O   UNL     1       8.364   3.787   3.853  0.00  0.00    -0.276 OA
ATOM     35  C   UNL     1       9.662   5.759   3.837  0.00  0.00    +0.109 C 
ATOM     36  H   UNL     1       9.197   5.291   1.291  0.00  0.00    +0.155 HD
ENDBRANCH  29  32
ENDBRANCH  24  26
ENDBRANCH  21  22
ENDBRANCH   1  21
TORSDOF 8
