REMARK  Name = ZINC52066982
REMARK  9 active torsions:
REMARK  status: ('A' for Active; 'I' for Inactive)
REMARK    1  A    between atoms: C_1  and  C_2
REMARK    2  A    between atoms: C_2  and  C_4
REMARK    3  A    between atoms: C_2  and  C_18
REMARK    4  A    between atoms: C_4  and  O_5
REMARK    5  A    between atoms: O_5  and  C_6
REMARK    6  A    between atoms: C_11  and  C_12
REMARK    7  A    between atoms: C_12  and  C_14
REMARK    8  A    between atoms: C_12  and  N_15
REMARK    9  A    between atoms: N_15  and  C_16
REMARK                            x       y       z     vdW  Elec       q    Type
REMARK                         _______ _______ _______ _____ _____    ______ ____
ROOT
ATOM      1  C   UNL     1       0.466  -0.488  -3.621  0.00  0.00    +0.122 A 
ATOM      2  C   UNL     1       1.656  -1.197  -3.694  0.00  0.00    +0.047 A 
ATOM      3  C   UNL     1       2.164  -1.566  -4.924  0.00  0.00    +0.019 A 
ATOM      4  C   UNL     1       1.487  -1.230  -6.083  0.00  0.00    +0.018 A 
ATOM      5  C   UNL     1       0.300  -0.524  -6.012  0.00  0.00    +0.020 A 
ATOM      6  C   UNL     1      -0.215  -0.157  -4.783  0.00  0.00    -0.019 A 
ATOM      7 BR   UNL     1       2.184  -1.738  -7.766  0.00  0.00    -0.050 Br
ENDROOT
BRANCH   6   8
ATOM      8  C   UNL     1      -1.512   0.606  -4.706  0.00  0.00    -0.041 C 
ATOM      9  C   UNL     1      -2.650  -0.355  -4.359  0.00  0.00    -0.009 C 
BRANCH   8  10
ATOM     10  N   UNL     1      -1.785   1.240  -6.003  0.00  0.00    +0.382 N 
ATOM     11  C   UNL     1      -2.984   2.081  -5.895  0.00  0.00    -0.100 C 
ATOM     12  H   UNL     1      -0.997   1.811  -6.271  0.00  0.00    -0.085 HD
ATOM     13  H   UNL     1      -1.936   0.527  -6.701  0.00  0.00    -0.085 HD
ENDBRANCH   8  10
ENDBRANCH   6   8
BRANCH   1  14
ATOM     14  O   UNL     1      -0.036  -0.123  -2.412  0.00  0.00    -0.491 OA
BRANCH  14  15
ATOM     15  C   UNL     1       0.718  -0.497  -1.257  0.00  0.00    +0.241 C 
BRANCH  15  17
ATOM     16  C   UNL     1      -0.019   1.526   0.010  0.00  0.00    +0.020 C 
ATOM     17  C   UNL     1       0.002  -0.004   0.002  0.00  0.00    +0.109 C 
BRANCH  17  18
ATOM     18  C   UNL     1       0.731  -0.503   1.223  0.00  0.00    +0.217 C 
ATOM     19  O   UNL     1       1.725  -1.187   1.099  0.00  0.00    -0.276 OA
ATOM     20  N   UNL     1       0.278  -0.191   2.453  0.00  0.00    -0.329 N 
ATOM     21  H   UNL     1      -0.517   0.356   2.553  0.00  0.00    +0.145 HD
ATOM     22  H   UNL     1       0.747  -0.512   3.239  0.00  0.00    +0.145 HD
ENDBRANCH  17  18
ENDBRANCH  15  17
ENDBRANCH  14  15
ENDBRANCH   1  14
TORSDOF 6
