REMARK  Name = ZINC17888646
REMARK  8 active torsions:
REMARK  status: ('A' for Active; 'I' for Inactive)
REMARK    1  A    between atoms: C_1  and  C_2
REMARK    2  A    between atoms: C_5  and  C_8
REMARK    3  A    between atoms: C_8  and  O_9
REMARK    4  A    between atoms: O_9  and  C_10
REMARK    5  A    between atoms: C_15  and  C_16
REMARK    6  A    between atoms: C_16  and  N_17
REMARK    7  A    between atoms: N_17  and  C_18
REMARK    8  A    between atoms: C_27  and  O_30
REMARK                            x       y       z     vdW  Elec       q    Type
REMARK                         _______ _______ _______ _____ _____    ______ ____
ROOT
ATOM      1  C   UNL     1       1.608  -6.079  -0.040  0.00  0.00    +0.122 A 
ATOM      2  C   UNL     1       0.519  -6.939  -0.044  0.00  0.00    +0.047 A 
ATOM      3  C   UNL     1       0.720  -8.306  -0.053  0.00  0.00    +0.023 A 
ATOM      4  C   UNL     1       2.006  -8.817  -0.056  0.00  0.00    +0.041 A 
ATOM      5  C   UNL     1       3.093  -7.961  -0.052  0.00  0.00    +0.025 A 
ATOM      6  C   UNL     1       2.896  -6.594  -0.050  0.00  0.00    -0.021 A 
ATOM      7 CL   UNL     1       2.256 -10.535  -0.067  0.00  0.00    -0.084 Cl
ENDROOT
BRANCH   1   8
ATOM      8  O   UNL     1       1.413  -4.734  -0.032  0.00  0.00    -0.487 OA
BRANCH   8   9
ATOM      9  C   UNL     1       0.059  -4.275  -0.021  0.00  0.00    +0.264 C 
BRANCH   9  14
ATOM     10  C   UNL     1      -0.018   1.503   0.010  0.00  0.00    +0.044 C 
ATOM     11  C   UNL     1       0.002  -0.004   0.002  0.00  0.00    -0.050 A 
ATOM     12  C   UNL     1       0.006  -0.689  -1.199  0.00  0.00    +0.004 A 
ATOM     13  C   UNL     1       0.025  -2.071  -1.206  0.00  0.00    +0.007 A 
ATOM     14  C   UNL     1       0.040  -2.768  -0.013  0.00  0.00    -0.010 A 
ATOM     15  C   UNL     1       0.037  -2.084   1.188  0.00  0.00    +0.007 A 
ATOM     16  C   UNL     1       0.023  -0.702   1.195  0.00  0.00    +0.004 A 
ENDBRANCH   9  14
ENDBRANCH   8   9
ENDBRANCH   1   8
BRANCH   6  17
ATOM     17  C   UNL     1       4.080  -5.662  -0.052  0.00  0.00    -0.042 C 
BRANCH  17  18
ATOM     18  N   UNL     1       4.324  -5.177   1.313  0.00  0.00    +0.386 N 
ATOM     19  H   UNL     1       3.509  -4.684   1.646  0.00  0.00    -0.085 HD
ATOM     20  H   UNL     1       4.514  -5.960   1.920  0.00  0.00    -0.085 HD
BRANCH  18  21
ATOM     21  C   UNL     1       5.479  -4.268   1.311  0.00  0.00    -0.065 C 
ATOM     22  C   UNL     1       6.715  -5.015   0.807  0.00  0.00    -0.009 C 
ATOM     23  C   UNL     1       7.917  -4.069   0.805  0.00  0.00    -0.009 C 
ATOM     24  C   UNL     1       7.629  -2.881  -0.115  0.00  0.00    +0.007 C 
ATOM     25  C   UNL     1       6.393  -2.134   0.389  0.00  0.00    -0.009 C 
ATOM     26  C   UNL     1       5.191  -3.080   0.391  0.00  0.00    -0.009 C 
ATOM     27  C   UNL     1       6.647  -1.628   1.811  0.00  0.00    +0.038 C 
ATOM     28  C   UNL     1       6.935  -2.817   2.731  0.00  0.00    +0.065 C 
ATOM     29  C   UNL     1       8.171  -3.564   2.227  0.00  0.00    +0.038 C 
ATOM     30  C   UNL     1       5.733  -3.763   2.733  0.00  0.00    +0.022 C 
BRANCH  28  31
ATOM     31  O   UNL     1       7.172  -2.345   4.059  0.00  0.00    -0.389 OA
ATOM     32  H   UNL     1       7.922  -1.739   4.132  0.00  0.00    +0.210 HD
ENDBRANCH  28  31
ENDBRANCH  18  21
ENDBRANCH  17  18
ENDBRANCH   6  17
TORSDOF 7
