REMARK  Name = ZINC64166714
REMARK  7 active torsions:
REMARK  status: ('A' for Active; 'I' for Inactive)
REMARK    1  A    between atoms: C_1  and  C_2
REMARK    2  A    between atoms: C_4  and  C_19
REMARK    3  A    between atoms: C_7  and  C_13
REMARK    4  A    between atoms: C_9  and  C_12
REMARK    5  A    between atoms: C_19  and  N_20
REMARK    6  A    between atoms: C_21  and  C_23
REMARK    7  A    between atoms: C_23  and  C_24
REMARK                            x       y       z     vdW  Elec       q    Type
REMARK                         _______ _______ _______ _____ _____    ______ ____
ROOT
ATOM      1  C   UNL     1      -0.018   1.503   0.010  0.00  0.00    +0.044 C 
ATOM      2  C   UNL     1       0.002  -0.004   0.002  0.00  0.00    -0.049 A 
ATOM      3  C   UNL     1       0.005  -0.680  -1.226  0.00  0.00    +0.010 A 
ATOM      4  C   UNL     1       0.023  -2.026  -1.317  0.00  0.00    -0.007 A 
ATOM      5  C   UNL     1       0.039  -2.826  -0.141  0.00  0.00    +0.048 A 
ATOM      6  N   UNL     1       0.057  -4.126   0.030  0.00  0.00    -0.373 N 
ATOM      7  C   UNL     1       0.067  -4.408   1.470  0.00  0.00    +0.136 C 
ATOM      8  C   UNL     1       0.052  -3.060   2.156  0.00  0.00    -0.037 C 
ATOM      9  C   UNL     1       0.036  -2.137   1.168  0.00  0.00    -0.000 A 
ATOM     10  C   UNL     1       0.022  -0.669   1.180  0.00  0.00    +0.013 A 
ATOM     11  C   UNL     1       0.055  -2.799   3.641  0.00  0.00    +0.042 C 
ATOM     12  H   UNL     1       0.062  -4.790  -0.677  0.00  0.00    +0.161 HD
ENDROOT
BRANCH   7  13
ATOM     13  C   UNL     1       1.314  -5.168   1.842  0.00  0.00    -0.021 A 
ATOM     14  C   UNL     1       2.520  -4.852   1.246  0.00  0.00    +0.006 A 
ATOM     15  C   UNL     1       3.664  -5.550   1.587  0.00  0.00    +0.000 A 
ATOM     16  C   UNL     1       3.601  -6.564   2.524  0.00  0.00    +0.000 A 
ATOM     17  C   UNL     1       2.395  -6.880   3.120  0.00  0.00    +0.000 A 
ATOM     18  C   UNL     1       1.252  -6.179   2.783  0.00  0.00    +0.006 A 
ENDBRANCH   7  13
BRANCH   4  19
ATOM     19  C   UNL     1       0.026  -2.686  -2.672  0.00  0.00    +0.141 C 
BRANCH  19  20
ATOM     20  N   UNL     1      -1.330  -3.134  -3.000  0.00  0.00    -0.311 N 
ATOM     21  C   UNL     1      -1.570  -3.755  -4.172  0.00  0.00    +0.215 C 
ATOM     22  O   UNL     1      -0.663  -3.944  -4.955  0.00  0.00    -0.276 OA
ATOM     23  H   UNL     1      -2.055  -2.983  -2.374  0.00  0.00    +0.149 HD
BRANCH  21  24
ATOM     24  C   UNL     1      -2.965  -4.216  -4.509  0.00  0.00    +0.118 C 
BRANCH  24  25
ATOM     25  C   UNL     1      -2.962  -4.885  -5.885  0.00  0.00    +0.082 C 
ATOM     26  C   UNL     1      -4.364  -5.448  -6.207  0.00  0.00    +0.032 C 
ATOM     27  C   UNL     1      -4.458  -5.206  -7.732  0.00  0.00    +0.097 C 
ATOM     28  C   UNL     1      -3.509  -4.054  -7.983  0.00  0.00    +0.213 C 
ATOM     29  O   UNL     1      -3.493  -3.374  -8.987  0.00  0.00    -0.276 OA
ATOM     30  N   UNL     1      -2.686  -3.894  -6.931  0.00  0.00    -0.312 N 
ATOM     31  H   UNL     1      -1.998  -3.212  -6.871  0.00  0.00    +0.149 HD
ENDBRANCH  24  25
ENDBRANCH  21  24
ENDBRANCH  19  20
ENDBRANCH   4  19
TORSDOF 5
