REMARK  Name = ZINC20183191
REMARK  11 active torsions:
REMARK  status: ('A' for Active; 'I' for Inactive)
REMARK    1  A    between atoms: C_1  and  C_2
REMARK    2  A    between atoms: C_2  and  C_3
REMARK    3  A    between atoms: N_9  and  C_10
REMARK    4  A    between atoms: C_10  and  C_11
REMARK    5  A    between atoms: C_11  and  C_12
REMARK    6  A    between atoms: C_12  and  N_13
REMARK    7  A    between atoms: N_13  and  C_14
REMARK    8  A    between atoms: C_14  and  N_16
REMARK    9  A    between atoms: N_16  and  C_17
REMARK   10  A    between atoms: C_23  and  C_33
REMARK   11  A    between atoms: C_25  and  N_27
REMARK                            x       y       z     vdW  Elec       q    Type
REMARK                         _______ _______ _______ _____ _____    ______ ____
ROOT
ATOM      1  N   UNL     1       4.782   8.273  -2.078  0.00  0.00    -0.297 N 
ATOM      2  H   UNL     1       3.738   8.585  -2.226  0.00  0.00    +0.154 HD
ENDROOT
BRANCH   1   3
ATOM      3  C   UNL     1       5.826   9.154  -2.384  0.00  0.00    +0.033 A 
ATOM      4  C   UNL     1       6.887   9.310  -1.485  0.00  0.00    +0.025 A 
ATOM      5  C   UNL     1       7.917  10.156  -1.759  0.00  0.00    +0.028 A 
ATOM      6  C   UNL     1       7.920  10.896  -2.954  0.00  0.00    +0.048 A 
ATOM      7  C   UNL     1       6.846  10.746  -3.865  0.00  0.00    +0.003 A 
ATOM      8  C   UNL     1       5.798   9.864  -3.564  0.00  0.00    +0.033 A 
ATOM      9  C   UNL     1       6.854  11.490  -5.063  0.00  0.00    -0.038 A 
ATOM     10  C   UNL     1       7.902  12.329  -5.296  0.00  0.00    +0.045 A 
ATOM     11  C   UNL     1       8.935  12.433  -4.355  0.00  0.00    +0.100 A 
ATOM     12  N   UNL     1       8.923  11.736  -3.238  0.00  0.00    -0.343 N 
ATOM     13  C   UNL     1       5.730  11.360  -6.059  0.00  0.00    +0.044 C 
ATOM     14  H   UNL     1       9.758  11.854  -2.531  0.00  0.00    +0.167 HD
BRANCH  11  15
ATOM     15  N   UNL     1       9.996  13.291  -4.606  0.00  0.00    -0.312 N 
ATOM     16  C   UNL     1      10.643  12.968  -5.886  0.00  0.00    +0.134 C 
ATOM     17  C   UNL     1      11.767  13.973  -6.151  0.00  0.00    +0.178 C 
ATOM     18  O   UNL     1      12.688  13.951  -5.058  0.00  0.00    -0.377 OA
ATOM     19  C   UNL     1      12.092  14.262  -3.796  0.00  0.00    +0.178 C 
ATOM     20  C   UNL     1      10.971  13.259  -3.506  0.00  0.00    +0.134 C 
ENDBRANCH  11  15
ENDBRANCH   1   3
BRANCH   1  21
ATOM     21  C   UNL     1       5.057   7.042  -1.604  0.00  0.00    +0.135 C 
ATOM     22  S   UNL     1       6.675   6.594  -1.270  0.00  0.00    -0.019 S 
BRANCH  21  23
ATOM     23  N   UNL     1       4.057   6.163  -1.392  0.00  0.00    -0.326 N 
ATOM     24  H   UNL     1       3.017   6.451  -1.606  0.00  0.00    +0.148 HD
BRANCH  23  25
ATOM     25  C   UNL     1       4.355   4.825  -0.876  0.00  0.00    +0.101 C 
BRANCH  25  26
ATOM     26  C   UNL     1       3.054   4.034  -0.727  0.00  0.00    +0.000 C 
BRANCH  26  27
ATOM     27  C   UNL     1       3.365   2.636  -0.188  0.00  0.00    -0.077 C 
BRANCH  27  33
ATOM     28  C   UNL     1       2.387   0.483   0.329  0.00  0.00    -0.069 C 
ATOM     29  C   UNL     1       1.079  -0.311   0.326  0.00  0.00    -0.015 C 
ATOM     30  C   UNL     1       0.101   0.322   1.319  0.00  0.00    -0.003 C 
ATOM     31  C   UNL     1      -0.127   1.787   0.934  0.00  0.00    -0.019 C 
ATOM     32  C   UNL     1       1.216   2.520   0.920  0.00  0.00    -0.078 C 
ATOM     33  N   UNL     1       2.116   1.877  -0.046  0.00  0.00    +0.382 N 
ATOM     34  H   UNL     1       1.610   1.869  -1.022  0.00  0.00    -0.081 HD
BRANCH  28  36
ATOM     35  C   UNL     1       2.773  -0.030  -2.086  0.00  0.00    +0.002 C 
ATOM     36  C   UNL     1       3.361  -0.135  -0.677  0.00  0.00    -0.019 C 
ENDBRANCH  28  36
ENDBRANCH  27  33
ENDBRANCH  26  27
ENDBRANCH  25  26
ENDBRANCH  23  25
ENDBRANCH  21  23
ENDBRANCH   1  21
TORSDOF 9
