REMARK  Name = ZINC20465099
REMARK  9 active torsions:
REMARK  status: ('A' for Active; 'I' for Inactive)
REMARK    1  A    between atoms: C_1  and  C_2
REMARK    2  A    between atoms: C_2  and  C_3
REMARK    3  A    between atoms: C_2  and  N_4
REMARK    4  A    between atoms: N_4  and  C_5
REMARK    5  A    between atoms: C_5  and  C_6
REMARK    6  A    between atoms: C_8  and  N_18
REMARK    7  A    between atoms: C_10  and  O_17
REMARK    8  A    between atoms: C_12  and  C_15
REMARK    9  A    between atoms: C_15  and  O_16
REMARK                            x       y       z     vdW  Elec       q    Type
REMARK                         _______ _______ _______ _____ _____    ______ ____
ROOT
ATOM      1  C   UNL     1       0.061   9.716   2.353  0.00  0.00    +0.122 C 
ATOM      2  C   UNL     1      -0.212   9.214   0.922  0.00  0.00    +0.115 C 
ATOM      3  C   UNL     1       0.727  10.063   0.032  0.00  0.00    +0.165 C 
ATOM      4  C   UNL     1       1.017  11.286   0.943  0.00  0.00    +0.174 C 
ATOM      5  O   UNL     1       1.095  10.712   2.265  0.00  0.00    -0.369 OA
ENDROOT
BRANCH   2   6
ATOM      6  N   UNL     1       0.119   7.787   0.805  0.00  0.00    -0.292 NA
ATOM      7  C   UNL     1      -0.933   6.952   1.401  0.00  0.00    +0.104 C 
ATOM      8  C   UNL     1      -0.513   5.482   1.331  0.00  0.00    +0.123 C 
ATOM      9  N   UNL     1      -0.279   5.108  -0.071  0.00  0.00    -0.297 N 
ATOM     10  C   UNL     1       0.773   5.944  -0.667  0.00  0.00    +0.123 C 
ATOM     11  C   UNL     1       0.354   7.414  -0.597  0.00  0.00    +0.104 C 
ATOM     12  C   UNL     1       0.034   3.764  -0.181  0.00  0.00    +0.218 A 
ATOM     13  N   UNL     1       0.278   3.253  -1.379  0.00  0.00    -0.223 NA
ATOM     14  C   UNL     1       0.579   1.972  -1.518  0.00  0.00    +0.116 A 
ATOM     15  C   UNL     1       0.638   1.165  -0.393  0.00  0.00    +0.039 A 
ATOM     16  C   UNL     1       0.373   1.732   0.844  0.00  0.00    +0.116 A 
ATOM     17  N   UNL     1       0.082   3.020   0.914  0.00  0.00    -0.223 NA
ENDBRANCH   2   6
BRANCH   3  18
ATOM     18  O   UNL     1       1.931   9.351  -0.264  0.00  0.00    -0.388 OA
ATOM     19  H   UNL     1       2.707   9.818  -0.888  0.00  0.00    +0.210 HD
ENDBRANCH   3  18
BRANCH   1  20
ATOM     20  C   UNL     1       0.527   8.554   3.232  0.00  0.00    -0.049 C 
BRANCH  20  21
ATOM     21  N   UNL     1       1.014   9.076   4.516  0.00  0.00    +0.382 N 
ATOM     22  H   UNL     1       0.196   9.621   5.008  0.00  0.00    -0.085 HD
ATOM     23  H   UNL     1       1.850   9.765   4.322  0.00  0.00    -0.085 HD
BRANCH  21  25
ATOM     24  C   UNL     1       2.923   7.638   5.053  0.00  0.00    -0.014 C 
ATOM     25  C   UNL     1       1.471   7.986   5.388  0.00  0.00    -0.078 C 
ATOM     26  C   UNL     1       1.377   8.428   6.849  0.00  0.00    -0.014 C 
ENDBRANCH  21  25
ENDBRANCH  20  21
ENDBRANCH   1  20
BRANCH   4  27
ATOM     27  C   UNL     1       2.345  11.941   0.561  0.00  0.00    +0.190 C 
BRANCH  27  28
ATOM     28  O   UNL     1       2.579  13.071   1.405  0.00  0.00    -0.392 OA
ATOM     29  H   UNL     1       3.492  13.672   1.278  0.00  0.00    +0.210 HD
ENDBRANCH  27  28
ENDBRANCH   4  27
TORSDOF 7
