REMARK  Name = ZINC52344188
REMARK  6 active torsions:
REMARK  status: ('A' for Active; 'I' for Inactive)
REMARK    1  A    between atoms: C_1  and  C_2
REMARK    2  A    between atoms: C_2  and  C_4
REMARK    3  A    between atoms: C_2  and  N_10
REMARK    4  A    between atoms: N_13  and  CA_14
REMARK    5  A    between atoms: CA_14  and  CB_16
REMARK    6  A    between atoms: CA_14  and  C_17
REMARK                            x       y       z     vdW  Elec       q    Type
REMARK                         _______ _______ _______ _____ _____    ______ ____
ROOT
ATOM      1  N   UNK A   0       0.711  -0.489   1.189  0.00  0.00    -0.297 N 
ATOM      2  C   UNK A   0       2.054  -0.600   1.174  0.00  0.00    +0.300 C 
ATOM      3  O   UNK A   0       2.677  -0.297   0.175  0.00  0.00    -0.253 OA
ATOM      4  N   ALA A   1       2.706  -1.046   2.266  0.00  0.00    -0.286 N 
ATOM      5  H   UNK A   0       0.213  -0.731   1.986  0.00  0.00    +0.151 HD
ATOM      6  H   ALA A   1       2.208  -1.288   3.062  0.00  0.00    +0.151 HD
ENDROOT
BRANCH   1   8
ATOM      7  C   UNK A   0      -0.019   1.526   0.010  0.00  0.00    +0.028 C 
ATOM      8  C   UNK A   0       0.002  -0.004   0.002  0.00  0.00    +0.074 C 
BRANCH   8   9
ATOM      9  C   UNK A   0      -1.433  -0.534   0.013  0.00  0.00    +0.009 C 
ATOM     10  C   UNK A   0      -1.413  -2.063   0.004  0.00  0.00    +0.005 C 
ATOM     11  C   UNK A   0      -2.848  -2.593   0.015  0.00  0.00    +0.000 C 
ATOM     12  C   UNK A   0      -3.588  -2.086  -1.224  0.00  0.00    +0.000 C 
ATOM     13  C   UNK A   0      -3.609  -0.556  -1.216  0.00  0.00    +0.000 C 
ATOM     14  C   UNK A   0      -2.173  -0.027  -1.227  0.00  0.00    +0.005 C 
ENDBRANCH   8   9
ENDBRANCH   1   8
BRANCH   4  15
ATOM     15  CA  ALA A   1       4.166  -1.166   2.249  0.00  0.00    +0.184 C 
ATOM     16  CB  ALA A   1       4.560  -2.515   1.643  0.00  0.00    +0.040 C 
BRANCH  15  17
ATOM     17  C   ALA A   1       4.693  -1.075   3.658  0.00  0.00    +0.376 C 
ATOM     18  O   ALA A   1       3.921  -1.108   4.601  0.00  0.00    -0.244 OA
ATOM     19  OXT ALA A   1       5.892  -0.969   3.854  0.00  0.00    -0.244 OA
ENDBRANCH  15  17
ENDBRANCH   4  15
TORSDOF 4
