REMARK  Name = ZINC05102519
REMARK  7 active torsions:
REMARK  status: ('A' for Active; 'I' for Inactive)
REMARK    1  A    between atoms: C_1  and  C_2
REMARK    2  A    between atoms: N_7  and  C_8
REMARK    3  A    between atoms: C_8  and  C_10
REMARK    4  A    between atoms: C_8  and  C_18
REMARK    5  A    between atoms: C_15  and  O_16
REMARK    6  A    between atoms: O_16  and  C_17
REMARK    7  A    between atoms: C_27  and  O_28
REMARK                            x       y       z     vdW  Elec       q    Type
REMARK                         _______ _______ _______ _____ _____    ______ ____
ROOT
ATOM      1  C   UNL     1      -1.331   2.114   0.020  0.00  0.00    +0.139 C 
ENDROOT
BRANCH   1   8
ATOM      2  C   UNL     1      -1.774   2.613  -5.061  0.00  0.00    +0.044 C 
ATOM      3  C   UNL     1      -2.389   1.713  -4.020  0.00  0.00    -0.046 A 
ATOM      4  C   UNL     1      -3.313   0.740  -4.380  0.00  0.00    +0.021 A 
ATOM      5  C   UNL     1      -3.857  -0.069  -3.403  0.00  0.00    +0.084 A 
ATOM      6  C   UNL     1      -2.635   0.989  -1.754  0.00  0.00    +0.097 A 
ATOM      7  C   UNL     1      -2.047   1.838  -2.686  0.00  0.00    +0.045 A 
ATOM      8  N   UNL     1      -2.300   1.103  -0.410  0.00  0.00    -0.319 N 
ATOM      9  H   UNL     1      -2.708   0.513   0.243  0.00  0.00    +0.148 HD
ATOM     10  N   UNL     1      -3.540   0.021  -2.083  0.00  0.00    -0.350 N 
ATOM     11  H   UNL     1      -3.954  -0.600  -1.379  0.00  0.00    +0.166 HD
ENDBRANCH   1   8
BRANCH   1  12
ATOM     12  C   UNL     1      -1.567   2.451   1.470  0.00  0.00    +0.021 A 
ATOM     13  C   UNL     1      -0.714   1.934   2.441  0.00  0.00    +0.010 A 
ATOM     14  C   UNL     1      -0.896   2.225   3.759  0.00  0.00    +0.010 A 
ATOM     15  C   UNL     1      -1.966   3.047   4.149  0.00  0.00    +0.004 A 
ATOM     16  C   UNL     1      -2.190   3.364   5.503  0.00  0.00    +0.011 A 
ATOM     17  C   UNL     1      -3.250   4.169   5.809  0.00  0.00    +0.020 A 
ATOM     18  C   UNL     1      -4.072   4.651   4.793  0.00  0.00    +0.111 A 
ATOM     19  N   UNL     1      -3.860   4.354   3.534  0.00  0.00    -0.251 NA
ATOM     20  C   UNL     1      -2.841   3.571   3.167  0.00  0.00    +0.113 A 
ATOM     21  C   UNL     1      -2.618   3.253   1.811  0.00  0.00    +0.148 A 
BRANCH  21  22
ATOM     22  O   UNL     1      -3.443   3.744   0.850  0.00  0.00    -0.504 OA
ATOM     23  H   UNL     1      -4.199   3.175   0.653  0.00  0.00    +0.292 HD
ENDBRANCH  21  22
ENDBRANCH   1  12
BRANCH   1  24
ATOM     24  C   UNL     1       0.066   1.575  -0.150  0.00  0.00    +0.019 A 
ATOM     25  C   UNL     1       0.275   0.212  -0.242  0.00  0.00    +0.009 A 
ATOM     26  C   UNL     1       1.556  -0.282  -0.404  0.00  0.00    +0.001 A 
ATOM     27  C   UNL     1       2.631   0.585  -0.473  0.00  0.00    +0.004 A 
ATOM     28  C   UNL     1       2.427   1.948  -0.382  0.00  0.00    +0.046 A 
ATOM     29  C   UNL     1       1.142   2.447  -0.219  0.00  0.00    +0.125 A 
BRANCH  29  30
ATOM     30  O   UNL     1       0.939   3.788  -0.129  0.00  0.00    -0.495 OA
ATOM     31  C   UNL     1       2.094   4.626  -0.208  0.00  0.00    +0.277 C 
ENDBRANCH  29  30
ENDBRANCH   1  24
TORSDOF 5
