REMARK  Name = ZINC67582008
REMARK  10 active torsions:
REMARK  status: ('A' for Active; 'I' for Inactive)
REMARK    1  A    between atoms: C_1  and  N_2
REMARK    2  A    between atoms: N_2  and  C_3
REMARK    3  A    between atoms: N_2  and  C_4
REMARK    4  A    between atoms: C_4  and  C_6
REMARK    5  A    between atoms: C_4  and  C_25
REMARK    6  A    between atoms: C_6  and  N_7
REMARK    7  A    between atoms: N_10  and  C_11
REMARK    8  A    between atoms: C_11  and  C_12
REMARK    9  A    between atoms: C_12  and  C_14
REMARK   10  A    between atoms: C_12  and  O_24
REMARK                            x       y       z     vdW  Elec       q    Type
REMARK                         _______ _______ _______ _____ _____    ______ ____
ROOT
ATOM      1  N   UNL     1       1.010  -2.505   0.524  0.00  0.00    -0.301 N 
ATOM      2  C   UNL     1       1.045  -3.850   0.599  0.00  0.00    +0.300 C 
ATOM      3  O   UNL     1       0.646  -4.414   1.599  0.00  0.00    -0.253 OA
ATOM      4  N   UNL     1       1.524  -4.570  -0.435  0.00  0.00    -0.297 N 
ATOM      5  H   UNL     1       1.328  -2.055  -0.275  0.00  0.00    +0.150 HD
ATOM      6  H   UNL     1       1.842  -4.120  -1.234  0.00  0.00    +0.150 HD
ENDROOT
BRANCH   1   7
ATOM      7  C   UNL     1       0.490  -1.722   1.648  0.00  0.00    +0.098 C 
BRANCH   7   8
ATOM      8  C   UNL     1       0.678  -0.231   1.361  0.00  0.00    +0.016 C 
BRANCH   8   9
ATOM      9  C   UNL     1      -0.175   0.165   0.184  0.00  0.00    +0.093 A 
ATOM     10  C   UNL     1      -1.367   0.786   0.249  0.00  0.00    +0.043 A 
ATOM     11  C   UNL     1      -1.810   0.964  -1.081  0.00  0.00    +0.041 A 
ATOM     12  C   UNL     1      -0.862   0.442  -1.881  0.00  0.00    +0.195 A 
ATOM     13  O   UNL     1       0.128  -0.035  -1.109  0.00  0.00    -0.469 OA
ENDBRANCH   8   9
BRANCH   8  15
ATOM     14  C   UNL     1       2.269   1.464   0.770  0.00  0.00    -0.096 C 
ATOM     15  N   UNL     1       2.090   0.034   1.054  0.00  0.00    +0.384 N 
ATOM     16  C   UNL     1       2.920  -0.344   2.205  0.00  0.00    -0.096 C 
ATOM     17  H   UNL     1       2.366  -0.506   0.248  0.00  0.00    -0.082 HD
ENDBRANCH   8  15
ENDBRANCH   7   8
ENDBRANCH   1   7
BRANCH   4  18
ATOM     18  C   UNL     1       1.562  -6.033  -0.354  0.00  0.00    +0.141 C 
BRANCH  18  19
ATOM     19  C   UNL     1       2.145  -6.600  -1.650  0.00  0.00    +0.162 C 
BRANCH  19  20
ATOM     20  C   UNL     1       2.185  -8.104  -1.566  0.00  0.00    -0.017 A 
ATOM     21  C   UNL     1       1.053  -8.842  -1.910  0.00  0.00    +0.007 A 
ATOM     22  C   UNL     1       1.056 -10.201  -1.845  0.00  0.00    +0.009 A 
ATOM     23  C   UNL     1       2.216 -10.875  -1.425  0.00  0.00    -0.018 A 
ATOM     24  C   UNL     1       2.256 -12.277  -1.346  0.00  0.00    +0.008 A 
ATOM     25  C   UNL     1       3.397 -12.896  -0.936  0.00  0.00    +0.001 A 
ATOM     26  C   UNL     1       4.529 -12.158  -0.592  0.00  0.00    +0.001 A 
ATOM     27  C   UNL     1       4.526 -10.799  -0.656  0.00  0.00    +0.008 A 
ATOM     28  C   UNL     1       3.366 -10.125  -1.076  0.00  0.00    -0.018 A 
ATOM     29  C   UNL     1       3.327  -8.723  -1.160  0.00  0.00    +0.014 A 
ENDBRANCH  19  20
BRANCH  19  30
ATOM     30  O   UNL     1       1.326  -6.206  -2.753  0.00  0.00    -0.386 OA
ATOM     31  H   UNL     1       0.411  -6.513  -2.692  0.00  0.00    +0.210 HD
ENDBRANCH  19  30
ENDBRANCH  18  19
ENDBRANCH   4  18
TORSDOF 8
