REMARK  Name = ZINC03670479
REMARK  12 active torsions:
REMARK  status: ('A' for Active; 'I' for Inactive)
REMARK    1  A    between atoms: C_1  and  C_2
REMARK    2  A    between atoms: C_2  and  N_3
REMARK    3  A    between atoms: N_3  and  C_4
REMARK    4  A    between atoms: N_3  and  C_6
REMARK    5  A    between atoms: C_4  and  C_5
REMARK    6  A    between atoms: C_6  and  C_7
REMARK    7  A    between atoms: C_7  and  N_8
REMARK    8  A    between atoms: C_9  and  C_11
REMARK    9  A    between atoms: C_11  and  O_31
REMARK   10  A    between atoms: N_21  and  C_22
REMARK   11  A    between atoms: C_26  and  O_28
REMARK   12  A    between atoms: O_28  and  C_29
REMARK                            x       y       z     vdW  Elec       q    Type
REMARK                         _______ _______ _______ _____ _____    ______ ____
ROOT
ATOM      1  C   UNL     1       2.342  -5.099   3.612  0.00  0.00    +0.247 C 
ATOM      2  C   UNL     1       3.499  -5.670   2.824  0.00  0.00    +0.034 A 
ATOM      3  C   UNL     1       4.587  -4.898   2.490  0.00  0.00    +0.025 A 
ATOM      4  C   UNL     1       5.629  -5.456   1.767  0.00  0.00    +0.018 A 
ATOM      5  C   UNL     1       5.572  -6.785   1.383  0.00  0.00    +0.017 A 
ATOM      6  C   UNL     1       4.480  -7.561   1.718  0.00  0.00    +0.025 A 
ATOM      7  C   UNL     1       3.434  -7.006   2.444  0.00  0.00    +0.043 A 
ATOM      8  N   UNL     1       2.321  -7.774   2.791  0.00  0.00    -0.269 N 
ATOM      9  C   UNL     1       1.287  -7.285   3.488  0.00  0.00    +0.314 C 
ATOM     10  O   UNL     1       0.360  -8.028   3.746  0.00  0.00    -0.252 OA
ATOM     11  N   UNL     1       1.228  -6.012   3.916  0.00  0.00    -0.214 N 
ATOM     12 BR   UNL     1       7.129  -4.402   1.303  0.00  0.00    -0.050 Br
ATOM     13  H   UNL     1       2.296  -8.704   2.515  0.00  0.00    +0.156 HD
ENDROOT
BRANCH  11  14
ATOM     14  C   UNL     1       0.119  -5.559   4.641  0.00  0.00    +0.045 A 
ATOM     15  C   UNL     1      -1.023  -5.136   3.974  0.00  0.00    +0.024 A 
ATOM     16  C   UNL     1      -2.117  -4.690   4.690  0.00  0.00    +0.005 A 
ATOM     17  C   UNL     1      -2.078  -4.663   6.071  0.00  0.00    +0.046 A 
ATOM     18  C   UNL     1      -0.939  -5.085   6.743  0.00  0.00    +0.122 A 
ATOM     19  C   UNL     1       0.159  -5.539   6.028  0.00  0.00    +0.069 A 
BRANCH  18  20
ATOM     20  O   UNL     1      -0.902  -5.057   8.101  0.00  0.00    -0.495 OA
ATOM     21  C   UNL     1      -2.070  -4.582   8.773  0.00  0.00    +0.277 C 
ENDBRANCH  18  20
ENDBRANCH  11  14
BRANCH   1  23
ATOM     22  N   UNL     1       1.085  -4.139   1.710  0.00  0.00    -0.313 N 
ATOM     23  C   UNL     1       1.788  -3.929   2.840  0.00  0.00    +0.269 C 
ATOM     24  O   UNL     1       1.974  -2.798   3.237  0.00  0.00    -0.270 OA
ATOM     25  H   UNL     1       0.936  -5.044   1.393  0.00  0.00    +0.149 HD
BRANCH  22  26
ATOM     26  C   UNL     1       0.546  -3.002   0.960  0.00  0.00    +0.086 C 
BRANCH  26  27
ATOM     27  C   UNL     1      -0.203  -3.513  -0.272  0.00  0.00    -0.060 C 
BRANCH  27  28
ATOM     28  N   UNL     1      -0.765  -2.374  -1.011  0.00  0.00    +0.380 N 
ATOM     29  H   UNL     1      -1.330  -1.816  -0.389  0.00  0.00    -0.082 HD
BRANCH  28  31
ATOM     30  C   UNL     1      -0.253  -0.302  -2.211  0.00  0.00    -0.017 C 
ATOM     31  C   UNL     1       0.328  -1.553  -1.550  0.00  0.00    -0.082 C 
ENDBRANCH  28  31
BRANCH  28  32
ATOM     32  C   UNL     1      -1.596  -2.869  -2.117  0.00  0.00    -0.082 C 
ATOM     33  C   UNL     1      -2.803  -3.620  -1.551  0.00  0.00    -0.017 C 
ENDBRANCH  28  32
ENDBRANCH  27  28
ENDBRANCH  26  27
ENDBRANCH  22  26
ENDBRANCH   1  23
BRANCH   1  34
ATOM     34  O   UNL     1       2.856  -4.602   4.849  0.00  0.00    -0.360 OA
ATOM     35  H   UNL     1       3.560  -3.948   4.749  0.00  0.00    +0.213 HD
ENDBRANCH   1  34
TORSDOF 9
