REMARK  Name = ZINC50460064
REMARK  6 active torsions:
REMARK  status: ('A' for Active; 'I' for Inactive)
REMARK    1  A    between atoms: C_1  and  O_2
REMARK    2  A    between atoms: O_2  and  C_3
REMARK    3  A    between atoms: C_3  and  C_5
REMARK    4  A    between atoms: C_10  and  N_11
REMARK    5  A    between atoms: C_12  and  C_14
REMARK    6  A    between atoms: C_17  and  N_19
REMARK                            x       y       z     vdW  Elec       q    Type
REMARK                         _______ _______ _______ _____ _____    ______ ____
ROOT
ATOM      1  C   UNL     1       1.513  -2.329   0.735  0.00  0.00    +0.082 A 
ATOM      2  C   UNL     1       0.857  -3.088  -0.239  0.00  0.00    +0.032 A 
ATOM      3  C   UNL     1       0.134  -4.202   0.130  0.00  0.00    +0.020 A 
ATOM      4  C   UNL     1       0.052  -4.574   1.463  0.00  0.00    +0.032 A 
ATOM      5  C   UNL     1       0.693  -3.834   2.436  0.00  0.00    +0.041 A 
ATOM      6  C   UNL     1       1.432  -2.712   2.082  0.00  0.00    +0.062 A 
ATOM      7 BR   UNL     1       0.573  -4.352   4.250  0.00  0.00    -0.048 Br
ATOM      8 BR   UNL     1      -0.752  -5.228  -1.190  0.00  0.00    -0.050 Br
ENDROOT
BRANCH   6   9
ATOM      9  N   UNL     1       2.085  -1.967   3.062  0.00  0.00    -0.284 N 
ATOM     10  C   UNL     1       3.089  -2.519   3.771  0.00  0.00    +0.219 C 
ATOM     11  O   UNL     1       3.466  -3.643   3.515  0.00  0.00    -0.275 OA
ATOM     12  H   UNL     1       1.817  -1.050   3.233  0.00  0.00    +0.155 HD
BRANCH  10  13
ATOM     13  C   UNL     1       3.743  -1.740   4.883  0.00  0.00    +0.059 C 
ATOM     14  C   UNL     1       3.511  -2.224   6.316  0.00  0.00    -0.005 C 
ATOM     15  C   UNL     1       4.876  -2.423   5.653  0.00  0.00    -0.063 C 
BRANCH  15  16
ATOM     16  N   UNL     1       5.242  -3.788   5.251  0.00  0.00    +0.380 N 
ATOM     17  H   UNL     1       5.538  -3.786   4.286  0.00  0.00    -0.090 HD
ATOM     18  H   UNL     1       5.997  -4.119   5.834  0.00  0.00    -0.090 HD
ATOM     19  H   UNL     1       4.444  -4.395   5.357  0.00  0.00    -0.090 HD
ENDBRANCH  15  16
ENDBRANCH  10  13
ENDBRANCH   6   9
BRANCH   1  20
ATOM     20  C   UNL     1       2.288  -1.137   0.348  0.00  0.00    +0.341 C 
ATOM     21  O   UNL     1       2.946  -0.544   1.180  0.00  0.00    -0.245 OA
BRANCH  20  23
ATOM     22  C   UNL     1       3.044   0.455  -1.233  0.00  0.00    +0.280 C 
ATOM     23  O   UNL     1       2.268  -0.706  -0.929  0.00  0.00    -0.464 OA
ENDBRANCH  20  23
ENDBRANCH   1  20
TORSDOF 5
