REMARK  Name = ZINC36647969
REMARK  10 active torsions:
REMARK  status: ('A' for Active; 'I' for Inactive)
REMARK    1  A    between atoms: C_1  and  C_2
REMARK    2  A    between atoms: C_2  and  N_3
REMARK    3  A    between atoms: N_3  and  C_4
REMARK    4  A    between atoms: N_3  and  C_6
REMARK    5  A    between atoms: C_4  and  C_5
REMARK    6  A    between atoms: C_6  and  C_7
REMARK    7  A    between atoms: C_7  and  N_8
REMARK    8  A    between atoms: C_19  and  C_21
REMARK    9  A    between atoms: N_26  and  S_28
REMARK   10  A    between atoms: S_28  and  C_31
REMARK                            x       y       z     vdW  Elec       q    Type
REMARK                         _______ _______ _______ _____ _____    ______ ____
ROOT
ATOM      1  N   UNL     1       1.609  -3.576  -3.341  0.00  0.00    -0.252 N 
ATOM      2  C   UNL     1       0.740  -4.009  -4.329  0.00  0.00    +0.168 A 
ATOM      3  N   UNL     1      -0.012  -3.296  -5.135  0.00  0.00    -0.221 NA
ATOM      4  C   UNL     1      -0.819  -3.857  -6.061  0.00  0.00    +0.115 A 
ATOM      5  C   UNL     1      -1.674  -3.208  -6.984  0.00  0.00    +0.150 A 
ATOM      6  C   UNL     1      -2.434  -3.934  -7.866  0.00  0.00    +0.040 A 
ATOM      7  C   UNL     1      -2.394  -5.321  -7.885  0.00  0.00    +0.004 A 
ATOM      8  C   UNL     1      -1.570  -5.987  -6.997  0.00  0.00    +0.017 A 
ATOM      9  C   UNL     1      -0.805  -5.269  -6.111  0.00  0.00    +0.044 A 
ATOM     10  S   UNL     1       0.364  -5.681  -4.838  0.00  0.00    -0.052 S 
ATOM     11  F   UNL     1      -1.742  -1.859  -6.997  0.00  0.00    -0.203 F 
ATOM     12  C   UNL     1       2.199  -4.471  -2.523  0.00  0.00    +0.226 C 
ATOM     13  O   UNL     1       2.880  -4.087  -1.596  0.00  0.00    -0.275 OA
ENDROOT
BRANCH  12  14
ATOM     14  C   UNL     1       2.014  -5.947  -2.762  0.00  0.00    +0.091 C 
ATOM     15  C   UNL     1       0.614  -6.366  -2.308  0.00  0.00    +0.015 C 
ATOM     16  C   UNL     1       0.412  -7.858  -2.581  0.00  0.00    +0.018 C 
ATOM     17  C   UNL     1       1.441  -8.663  -1.780  0.00  0.00    +0.109 C 
ATOM     18  N   UNL     1       2.786  -8.166  -2.104  0.00  0.00    -0.175 NA
ATOM     19  C   UNL     1       3.061  -6.729  -1.964  0.00  0.00    +0.122 C 
BRANCH  18  20
ATOM     20  S   UNL     1       3.969  -9.206  -2.616  0.00  0.00    +0.067 S 
ATOM     21  O   UNL     1       5.212  -8.589  -2.310  0.00  0.00    -0.152 OA
ATOM     22  O   UNL     1       3.616 -10.493  -2.129  0.00  0.00    -0.152 OA
BRANCH  20  23
ATOM     23  C   UNL     1       3.865  -9.286  -4.374  0.00  0.00    +0.143 A 
ATOM     24  C   UNL     1       4.494  -8.524  -5.301  0.00  0.00    +0.036 A 
ATOM     25  C   UNL     1       4.260  -8.770  -6.641  0.00  0.00    +0.010 A 
ATOM     26  C   UNL     1       3.409  -9.766  -6.988  0.00  0.00    +0.047 A 
ATOM     27  S   UNL     1       2.912 -10.399  -5.394  0.00  0.00    -0.077 S 
ENDBRANCH  20  23
ENDBRANCH  18  20
ENDBRANCH  12  14
BRANCH   1  28
ATOM     28  C   UNL     1       1.885  -2.146  -3.183  0.00  0.00    +0.097 C 
BRANCH  28  29
ATOM     29  C   UNL     1       0.877  -1.536  -2.208  0.00  0.00    -0.059 C 
BRANCH  29  30
ATOM     30  N   UNL     1       1.234  -0.134  -1.948  0.00  0.00    +0.380 N 
ATOM     31  H   UNL     1       2.188  -0.084  -1.625  0.00  0.00    -0.082 HD
BRANCH  30  33
ATOM     32  C   UNL     1       1.584   2.073  -2.948  0.00  0.00    -0.017 C 
ATOM     33  C   UNL     1       1.095   0.643  -3.187  0.00  0.00    -0.082 C 
ENDBRANCH  30  33
BRANCH  30  34
ATOM     34  C   UNL     1       0.339   0.416  -0.921  0.00  0.00    -0.082 C 
ATOM     35  C   UNL     1       0.587  -0.299   0.408  0.00  0.00    -0.017 C 
ENDBRANCH  30  34
ENDBRANCH  29  30
ENDBRANCH  28  29
ENDBRANCH   1  28
TORSDOF 8
