REMARK  Name = ZINC39632087
REMARK  11 active torsions:
REMARK  status: ('A' for Active; 'I' for Inactive)
REMARK    1  A    between atoms: C_1  and  C_2
REMARK    2  A    between atoms: C_2  and  C_4
REMARK    3  A    between atoms: C_2  and  N_11
REMARK    4  A    between atoms: C_4  and  C_5
REMARK    5  A    between atoms: C_5  and  C_6
REMARK    6  A    between atoms: C_6  and  C_7
REMARK    7  A    between atoms: C_7  and  C_8
REMARK    8  A    between atoms: C_7  and  C_9
REMARK    9  A    between atoms: C_7  and  O_10
REMARK   10  A    between atoms: C_12  and  C_14
REMARK   11  A    between atoms: C_25  and  C_27
REMARK                            x       y       z     vdW  Elec       q    Type
REMARK                         _______ _______ _______ _____ _____    ______ ____
ROOT
ATOM      1  C   UNL     1       2.790  -1.098   2.391  0.00  0.00    +0.100 C 
ATOM      2  C   UNL     1       2.677  -0.074   3.543  0.00  0.00    +0.121 C 
ATOM      3  N   UNL     1       3.999  -0.117   4.212  0.00  0.00    -0.295 N 
ATOM      4  C   UNL     1       4.971  -0.241   3.100  0.00  0.00    +0.115 C 
ATOM      5  C   UNL     1       4.297  -1.204   2.103  0.00  0.00    -0.004 C 
ATOM      6  C   UNL     1       4.593  -0.771   0.670  0.00  0.00    -0.010 C 
ATOM      7  C   UNL     1       6.088  -0.941   0.389  0.00  0.00    -0.082 C 
ATOM      8  N   UNL     1       6.469  -2.345   0.586  0.00  0.00    +0.379 N 
ATOM      9  C   UNL     1       6.268  -2.726   1.989  0.00  0.00    -0.082 C 
ATOM     10  C   UNL     1       4.780  -2.632   2.338  0.00  0.00    -0.010 C 
ATOM     11  C   UNL     1       4.258  -0.057   5.533  0.00  0.00    +0.265 C 
ATOM     12  O   UNL     1       5.407  -0.023   5.926  0.00  0.00    -0.268 OA
ATOM     13  H   UNL     1       5.900  -2.932  -0.006  0.00  0.00    -0.086 HD
ATOM     14  H   UNL     1       7.440  -2.466   0.341  0.00  0.00    -0.086 HD
ENDROOT
BRANCH  11  15
ATOM     15  C   UNL     1       3.140  -0.031   6.508  0.00  0.00    +0.126 A 
ATOM     16  C   UNL     1       3.423   0.148   7.870  0.00  0.00    +0.033 A 
ATOM     17  C   UNL     1       2.403   0.174   8.777  0.00  0.00    +0.012 A 
ATOM     18  C   UNL     1       1.087   0.018   8.304  0.00  0.00    +0.000 A 
ATOM     19  C   UNL     1      -0.010   0.035   9.181  0.00  0.00    +0.010 A 
ATOM     20  C   UNL     1      -1.269  -0.118   8.687  0.00  0.00    +0.001 A 
ATOM     21  C   UNL     1      -1.487  -0.292   7.321  0.00  0.00    +0.002 A 
ATOM     22  C   UNL     1      -0.450  -0.314   6.441  0.00  0.00    +0.028 A 
ATOM     23  C   UNL     1       0.869  -0.159   6.912  0.00  0.00    +0.072 A 
ATOM     24  N   UNL     1       1.903  -0.171   6.073  0.00  0.00    -0.242 NA
ENDBRANCH  11  15
BRANCH   1  26
ATOM     25  N   UNL     1       1.656  -1.470   0.224  0.00  0.00    -0.312 N 
ATOM     26  C   UNL     1       2.056  -0.600   1.172  0.00  0.00    +0.218 C 
ATOM     27  O   UNL     1       1.827   0.584   1.045  0.00  0.00    -0.275 OA
ATOM     28  H   UNL     1       1.839  -2.417   0.326  0.00  0.00    +0.149 HD
BRANCH  25  30
ATOM     29  C   UNL     1      -0.550  -0.868  -0.645  0.00  0.00    +0.028 C 
ATOM     30  C   UNL     1       0.943  -0.985  -0.960  0.00  0.00    +0.070 C 
BRANCH  30  31
ATOM     31  C   UNL     1       1.144  -1.969  -2.115  0.00  0.00    +0.022 C 
BRANCH  31  32
ATOM     32  C   UNL     1       2.621  -1.992  -2.513  0.00  0.00    +0.005 C 
BRANCH  32  33
ATOM     33  C   UNL     1       2.823  -2.976  -3.667  0.00  0.00    +0.034 C 
BRANCH  33  34
ATOM     34  C   UNL     1       4.300  -3.000  -4.065  0.00  0.00    +0.061 C 
ATOM     35  C   UNL     1       4.482  -3.887  -5.298  0.00  0.00    +0.041 C 
ATOM     36  C   UNL     1       4.764  -1.578  -4.387  0.00  0.00    +0.041 C 
BRANCH  34  37
ATOM     37  O   UNL     1       5.077  -3.521  -2.985  0.00  0.00    -0.389 OA
ATOM     38  H   UNL     1       4.836  -4.421  -2.726  0.00  0.00    +0.210 HD
ENDBRANCH  34  37
ENDBRANCH  33  34
ENDBRANCH  32  33
ENDBRANCH  31  32
ENDBRANCH  30  31
ENDBRANCH  25  30
ENDBRANCH   1  26
TORSDOF 8
