REMARK  Name = ZINC66242929
REMARK  5 active torsions:
REMARK  status: ('A' for Active; 'I' for Inactive)
REMARK    1  A    between atoms: C_4  and  N_7
REMARK    2  A    between atoms: N_10  and  C_11
REMARK    3  A    between atoms: C_11  and  C_12
REMARK    4  A    between atoms: C_12  and  N_13
REMARK    5  A    between atoms: N_16  and  C_19
REMARK                            x       y       z     vdW  Elec       q    Type
REMARK                         _______ _______ _______ _____ _____    ______ ____
ROOT
ATOM      1  C   UNL     1       4.826  -4.174  -0.175  0.00  0.00    +0.131 C 
ENDROOT
BRANCH   1   5
ATOM      2  N   UNL     1       3.578  -0.665  -0.081  0.00  0.00    -0.328 N 
ATOM      3  C   UNL     1       3.601  -2.040  -0.148  0.00  0.00    +0.173 C 
ATOM      4  N   UNL     1       2.486  -2.707  -0.253  0.00  0.00    -0.371 N 
ATOM      5  N   UNL     1       4.801  -2.711  -0.104  0.00  0.00    -0.356 N 
ATOM      6  H   UNL     1       2.743  -0.188  -0.203  0.00  0.00    +0.169 HD
ATOM      7  H   UNL     1       2.500  -3.676  -0.263  0.00  0.00    +0.159 HD
ATOM      8  H   UNL     1       5.631  -2.215  -0.026  0.00  0.00    +0.162 HD
ATOM      9  H   UNL     1       1.643  -2.232  -0.321  0.00  0.00    +0.159 HD
BRANCH   2  13
ATOM     10  C   UNL     1       7.096   1.445   0.642  0.00  0.00    +0.000 A 
ATOM     11  C   UNL     1       6.189   1.914  -0.291  0.00  0.00    +0.002 A 
ATOM     12  C   UNL     1       5.022   1.217  -0.533  0.00  0.00    +0.026 A 
ATOM     13  C   UNL     1       4.760   0.043   0.161  0.00  0.00    +0.042 A 
ATOM     14  C   UNL     1       5.673  -0.426   1.097  0.00  0.00    +0.026 A 
ATOM     15  C   UNL     1       6.838   0.277   1.335  0.00  0.00    +0.002 A 
ENDBRANCH   2  13
ENDBRANCH   1   5
BRANCH   1  16
ATOM     16  C   UNL     1       6.274  -4.663  -0.106  0.00  0.00    +0.105 C 
BRANCH  16  17
ATOM     17  N   UNL     1       6.298  -6.130  -0.177  0.00  0.00    -0.298 NA
ATOM     18  C   UNL     1       5.664  -6.726   1.006  0.00  0.00    +0.103 C 
ATOM     19  C   UNL     1       5.547  -8.241   0.811  0.00  0.00    +0.120 C 
ATOM     20  N   UNL     1       6.879  -8.774   0.485  0.00  0.00    -0.327 N 
ATOM     21  C   UNL     1       7.636  -8.137  -0.603  0.00  0.00    +0.120 C 
ATOM     22  C   UNL     1       7.670  -6.626  -0.352  0.00  0.00    +0.103 C 
BRANCH  20  23
ATOM     23  C   UNL     1       7.411  -9.857   1.191  0.00  0.00    +0.030 A 
ATOM     24  C   UNL     1       6.733 -10.373   2.288  0.00  0.00    +0.026 A 
ATOM     25  C   UNL     1       7.260 -11.443   2.984  0.00  0.00    +0.040 A 
ATOM     26  C   UNL     1       8.464 -12.002   2.589  0.00  0.00    +0.124 A 
ATOM     27  C   UNL     1       9.141 -11.489   1.495  0.00  0.00    +0.040 A 
ATOM     28  C   UNL     1       8.615 -10.423   0.793  0.00  0.00    +0.026 A 
ATOM     29  F   UNL     1       8.978 -13.049   3.271  0.00  0.00    -0.205 F 
ENDBRANCH  20  23
ENDBRANCH  16  17
ENDBRANCH   1  16
TORSDOF 5
