REMARK  Name = ZINC16919434
REMARK  12 active torsions:
REMARK  status: ('A' for Active; 'I' for Inactive)
REMARK    1  A    between atoms: C_1  and  C_2
REMARK    2  A    between atoms: C_2  and  C_3
REMARK    3  A    between atoms: C_3  and  C_5
REMARK    4  A    between atoms: C_3  and  O_7
REMARK    5  A    between atoms: O_7  and  C_8
REMARK    6  A    between atoms: C_11  and  C_17
REMARK    7  A    between atoms: C_13  and  O_14
REMARK    8  A    between atoms: O_14  and  C_15
REMARK    9  A    between atoms: C_15  and  C_16
REMARK   10  A    between atoms: N_21  and  C_31
REMARK   11  A    between atoms: N_23  and  C_24
REMARK   12  A    between atoms: C_27  and  C_29
REMARK                            x       y       z     vdW  Elec       q    Type
REMARK                         _______ _______ _______ _____ _____    ______ ____
ROOT
ATOM      1  C   UNL     1       0.379   2.673  -1.197  0.00  0.00    +0.163 A 
ATOM      2  C   UNL     1       1.319   1.721  -0.825  0.00  0.00    +0.050 A 
ATOM      3  C   UNL     1       2.640   2.079  -0.662  0.00  0.00    +0.012 A 
ATOM      4  C   UNL     1       3.036   3.405  -0.870  0.00  0.00    -0.020 A 
ATOM      5  C   UNL     1       2.087   4.364  -1.245  0.00  0.00    +0.057 A 
ATOM      6  C   UNL     1       0.767   3.995  -1.412  0.00  0.00    +0.162 A 
ENDROOT
BRANCH   4   7
ATOM      7  C   UNL     1       4.443   3.790  -0.696  0.00  0.00    +0.028 C 
ATOM      8  C   UNL     1       5.430   2.981  -1.159  0.00  0.00    +0.078 C 
ATOM      9  C   UNL     1       5.333   1.775  -2.004  0.00  0.00    +0.259 C 
ATOM     10  O   UNL     1       4.259   1.359  -2.398  0.00  0.00    -0.269 OA
ATOM     11  N   UNL     1       6.466   1.167  -2.313  0.00  0.00    -0.249 N 
ATOM     12  C   UNL     1       7.671   1.654  -1.858  0.00  0.00    +0.170 C 
ATOM     13  N   UNL     1       8.879   1.176  -2.071  0.00  0.00    -0.198 NA
ATOM     14  S   UNL     1       7.196   3.094  -0.916  0.00  0.00    -0.049 S 
ATOM     15  C   UNL     1       6.439  -0.035  -3.149  0.00  0.00    +0.140 C 
BRANCH  13  16
ATOM     16  C   UNL     1       9.047   0.068  -2.840  0.00  0.00    +0.217 A 
ATOM     17  N   UNL     1       9.130  -0.051  -4.165  0.00  0.00    -0.121 NA
ATOM     18  N   UNL     1       9.288  -1.173  -4.719  0.00  0.00    -0.145 NA
ATOM     19  C   UNL     1       9.380  -2.292  -4.028  0.00  0.00    +0.101 A 
ATOM     20  S   UNL     1       9.226  -1.649  -2.365  0.00  0.00    -0.031 S 
ATOM     21  C   UNL     1       9.569  -3.709  -4.504  0.00  0.00    +0.075 C 
ENDBRANCH  13  16
ENDBRANCH   4   7
BRANCH   1  22
ATOM     22  O   UNL     1      -0.921   2.314  -1.358  0.00  0.00    -0.474 OA
BRANCH  22  23
ATOM     23  C   UNL     1      -1.240   0.933  -1.177  0.00  0.00    +0.285 C 
BRANCH  23  24
ATOM     24  C   UNL     1      -1.471   0.658   0.286  0.00  0.00    +0.396 C 
ATOM     25  O   UNL     1      -1.463   1.568   1.081  0.00  0.00    -0.242 OA
ATOM     26  O   UNL     1      -1.687  -0.598   0.707  0.00  0.00    -0.242 OA
ENDBRANCH  23  24
BRANCH  23  28
ATOM     27  C   UNL     1      -2.232   0.754  -3.463  0.00  0.00    +0.008 C 
ATOM     28  C   UNL     1      -2.506   0.594  -1.966  0.00  0.00    +0.053 C 
ENDBRANCH  23  28
ENDBRANCH  22  23
ENDBRANCH   1  22
BRANCH   6  29
ATOM     29  O   UNL     1      -0.157   4.923  -1.781  0.00  0.00    -0.489 OA
BRANCH  29  30
ATOM     30  C   UNL     1       0.310   6.258  -1.985  0.00  0.00    +0.226 C 
ATOM     31  C   UNL     1      -0.863   7.152  -2.392  0.00  0.00    +0.048 C 
ENDBRANCH  29  30
ENDBRANCH   6  29
TORSDOF 8
