REMARK  Name = ZINC43139442
REMARK  9 active torsions:
REMARK  status: ('A' for Active; 'I' for Inactive)
REMARK    1  A    between atoms: C_1  and  O_2
REMARK    2  A    between atoms: O_2  and  C_3
REMARK    3  A    between atoms: C_6  and  C_9
REMARK    4  A    between atoms: C_9  and  C_11
REMARK    5  A    between atoms: C_9  and  N_25
REMARK    6  A    between atoms: C_11  and  N_12
REMARK    7  A    between atoms: N_15  and  N_16
REMARK    8  A    between atoms: N_16  and  C_17
REMARK    9  A    between atoms: C_21  and  C_23
REMARK                            x       y       z     vdW  Elec       q    Type
REMARK                         _______ _______ _______ _____ _____    ______ ____
ROOT
ATOM      1  C   UNL     1       3.836  -2.924  -3.815  0.00  0.00    +0.095 C 
ENDROOT
BRANCH   1   2
ATOM      2  N   UNL     1       4.693  -1.748  -3.639  0.00  0.00    -0.299 N 
ATOM      3  C   UNL     1       5.971  -1.900  -3.241  0.00  0.00    +0.316 C 
ATOM      4  O   UNL     1       6.414  -3.013  -3.028  0.00  0.00    -0.251 OA
ATOM      5  N   UNL     1       6.760  -0.819  -3.080  0.00  0.00    -0.220 N 
ATOM      6  H   UNL     1       4.340  -0.861  -3.809  0.00  0.00    +0.150 HD
ATOM      7  H   UNL     1       7.680  -0.929  -2.793  0.00  0.00    +0.174 HD
BRANCH   5   8
ATOM      8  N   UNL     1       6.250   0.462  -3.325  0.00  0.00    -0.263 N 
ATOM      9  H   UNL     1       5.330   0.572  -3.612  0.00  0.00    +0.170 HD
BRANCH   8  10
ATOM     10  C   UNL     1       7.068   1.583  -3.158  0.00  0.00    +0.046 A 
ATOM     11  C   UNL     1       8.388   1.426  -2.753  0.00  0.00    +0.024 A 
ATOM     12  C   UNL     1       9.201   2.531  -2.585  0.00  0.00    +0.003 A 
ATOM     13  C   UNL     1       8.707   3.799  -2.819  0.00  0.00    +0.019 A 
ATOM     14  C   UNL     1       7.382   3.967  -3.226  0.00  0.00    +0.054 A 
ATOM     15  C   UNL     1       6.563   2.851  -3.401  0.00  0.00    +0.043 A 
BRANCH  14  16
ATOM     16  C   UNL     1       6.867   5.281  -3.470  0.00  0.00    +0.099 C 
ATOM     17  N   UNL     1       6.459   6.324  -3.663  0.00  0.00    -0.191 NA
ENDBRANCH  14  16
ENDBRANCH   8  10
ENDBRANCH   5   8
ENDBRANCH   1   2
BRANCH   1  18
ATOM     18  C   UNL     1       2.411  -2.471  -4.140  0.00  0.00    -0.020 C 
BRANCH  18  19
ATOM     19  N   UNL     1       1.569  -3.649  -4.394  0.00  0.00    +0.385 N 
ATOM     20  C   UNL     1       2.087  -4.376  -5.559  0.00  0.00    -0.078 C 
ATOM     21  C   UNL     1       1.264  -5.646  -5.779  0.00  0.00    -0.019 C 
ATOM     22  C   UNL     1      -0.199  -5.264  -6.023  0.00  0.00    -0.004 C 
ATOM     23  C   UNL     1      -0.707  -4.443  -4.835  0.00  0.00    -0.019 C 
ATOM     24  C   UNL     1       0.190  -3.216  -4.649  0.00  0.00    -0.078 C 
ATOM     25  H   UNL     1       1.587  -4.254  -3.587  0.00  0.00    -0.081 HD
ENDBRANCH  18  19
BRANCH  18  29
ATOM     26  C   UNL     1       0.825  -0.275  -0.835  0.00  0.00    +0.120 A 
ATOM     27  C   UNL     1       1.327   0.398  -1.939  0.00  0.00    +0.046 A 
ATOM     28  C   UNL     1       1.840  -0.315  -3.006  0.00  0.00    +0.005 A 
ATOM     29  C   UNL     1       1.851  -1.697  -2.974  0.00  0.00    -0.059 A 
ATOM     30  C   UNL     1       1.351  -2.370  -1.875  0.00  0.00    +0.005 A 
ATOM     31  C   UNL     1       0.843  -1.662  -0.803  0.00  0.00    +0.046 A 
BRANCH  26  33
ATOM     32  C   UNL     1       0.334   1.849   0.115  0.00  0.00    +0.277 C 
ATOM     33  O   UNL     1       0.321   0.423   0.216  0.00  0.00    -0.495 OA
ENDBRANCH  26  33
ENDBRANCH  18  29
ENDBRANCH   1  18
TORSDOF 8
