REMARK  Name = ZINC11786143
REMARK  8 active torsions:
REMARK  status: ('A' for Active; 'I' for Inactive)
REMARK    1  A    between atoms: C_1  and  O_2
REMARK    2  A    between atoms: O_2  and  C_3
REMARK    3  A    between atoms: C_6  and  S_9
REMARK    4  A    between atoms: S_9  and  C_10
REMARK    5  A    between atoms: C_13  and  C_24
REMARK    6  A    between atoms: C_16  and  C_17
REMARK    7  A    between atoms: C_16  and  N_68
REMARK    8  A    between atoms: N_29  and  C_32
REMARK                            x       y       z     vdW  Elec       q    Type
REMARK                         _______ _______ _______ _____ _____    ______ ____
ROOT
ATOM      1  C   UNL     1       2.497  -3.942   3.178  0.00  0.00    +0.034 C 
ATOM      2  C   UNL     1       2.551  -2.586   2.427  0.00  0.00    +0.006 C 
ATOM      3  C   UNL     1       1.352  -1.786   2.966  0.00  0.00    +0.021 C 
ATOM      4  C   UNL     1       1.673  -3.603   4.445  0.00  0.00    -0.063 C 
ATOM      5  N   UNL     1       0.672  -2.662   3.927  0.00  0.00    +0.391 N 
ATOM      6  H   UNL     1      -0.078  -3.180   3.455  0.00  0.00    -0.080 HD
ENDROOT
BRANCH   3   7
ATOM      7  C   UNL     1       0.422  -1.429   1.835  0.00  0.00    +0.202 C 
ATOM      8  O   UNL     1      -0.718  -1.842   1.834  0.00  0.00    -0.277 OA
ATOM      9  N   UNL     1       0.858  -0.651   0.825  0.00  0.00    -0.300 N 
ATOM     10  C   UNL     1      -0.033  -0.290  -0.289  0.00  0.00    +0.126 C 
ATOM     11  C   UNL     1       0.011   1.230  -0.475  0.00  0.00    +0.124 C 
ATOM     12  N   UNL     1       1.407   1.661  -0.632  0.00  0.00    -0.325 N 
ATOM     13  C   UNL     1       2.191   1.375   0.577  0.00  0.00    +0.124 C 
ATOM     14  C   UNL     1       2.237  -0.139   0.806  0.00  0.00    +0.126 C 
BRANCH  12  15
ATOM     15  C   UNL     1       1.478   3.017  -0.967  0.00  0.00    +0.065 A 
ATOM     16  C   UNL     1       0.877   3.478  -2.130  0.00  0.00    +0.026 A 
ATOM     17  C   UNL     1       0.950   4.818  -2.459  0.00  0.00    +0.002 A 
ATOM     18  C   UNL     1       1.620   5.700  -1.631  0.00  0.00    +0.003 A 
ATOM     19  C   UNL     1       2.219   5.245  -0.471  0.00  0.00    +0.040 A 
ATOM     20  C   UNL     1       2.147   3.906  -0.133  0.00  0.00    +0.144 A 
ATOM     21  F   UNL     1       2.728   3.463   1.003  0.00  0.00    -0.204 F 
ENDBRANCH  12  15
ENDBRANCH   3   7
BRANCH   1  22
ATOM     22  S   UNL     1       4.167  -4.490   3.626  0.00  0.00    -0.124 S 
BRANCH  22  26
ATOM     23  C   UNL     1       3.509  -8.536   5.558  0.00  0.00    +0.120 A 
ATOM     24  C   UNL     1       2.446  -7.868   4.968  0.00  0.00    +0.047 A 
ATOM     25  C   UNL     1       2.645  -6.635   4.379  0.00  0.00    +0.018 A 
ATOM     26  C   UNL     1       3.911  -6.063   4.378  0.00  0.00    +0.008 A 
ATOM     27  C   UNL     1       4.976  -6.735   4.964  0.00  0.00    +0.018 A 
ATOM     28  C   UNL     1       4.774  -7.965   5.558  0.00  0.00    +0.047 A 
BRANCH  23  30
ATOM     29  C   UNL     1       4.451 -10.380   6.727  0.00  0.00    +0.277 C 
ATOM     30  O   UNL     1       3.312  -9.750   6.138  0.00  0.00    -0.495 OA
ENDBRANCH  23  30
ENDBRANCH  22  26
ENDBRANCH   1  22
BRANCH   5  31
ATOM     31  C   UNL     1       0.086  -1.855   5.039  0.00  0.00    -0.039 C 
BRANCH  31  32
ATOM     32  C   UNL     1      -0.821  -2.723   5.873  0.00  0.00    -0.029 A 
ATOM     33  C   UNL     1      -2.190  -2.659   5.700  0.00  0.00    +0.004 A 
ATOM     34  C   UNL     1      -3.022  -3.459   6.461  0.00  0.00    +0.000 A 
ATOM     35  C   UNL     1      -2.485  -4.316   7.404  0.00  0.00    +0.003 A 
ATOM     36  C   UNL     1      -1.116  -4.377   7.583  0.00  0.00    +0.038 A 
ATOM     37  C   UNL     1      -0.282  -3.580   6.817  0.00  0.00    +0.125 A 
ATOM     38  F   UNL     1       1.057  -3.638   6.992  0.00  0.00    -0.205 F 
ENDBRANCH  31  32
ENDBRANCH   5  31
TORSDOF 7
