REMARK  Name = ZINC67567763
REMARK  5 active torsions:
REMARK  status: ('A' for Active; 'I' for Inactive)
REMARK    1  A    between atoms: C_1  and  C_2
REMARK    2  A    between atoms: C_9  and  N_12
REMARK    3  A    between atoms: C_13  and  C_15
REMARK    4  A    between atoms: N_17  and  C_18
REMARK    5  A    between atoms: C_18  and  C_19
REMARK                            x       y       z     vdW  Elec       q    Type
REMARK                         _______ _______ _______ _____ _____    ______ ____
ROOT
ATOM      1  N   UNL     1       0.046  -1.962   3.622  0.00  0.00    -0.276 N 
ATOM      2  C   UNL     1      -0.041  -2.622   4.794  0.00  0.00    +0.303 C 
ATOM      3  O   UNL     1      -0.024  -3.836   4.810  0.00  0.00    -0.265 OA
ATOM      4  H   UNL     1       0.113  -0.995   3.614  0.00  0.00    +0.155 HD
ENDROOT
BRANCH   1  13
ATOM      5  C   UNL     1       2.401   0.969   0.317  0.00  0.00    +0.065 C 
ATOM      6  C   UNL     1       1.763  -0.394   0.226  0.00  0.00    +0.039 A 
ATOM      7  C   UNL     1       1.777  -1.069  -0.992  0.00  0.00    +0.023 A 
ATOM      8  C   UNL     1       1.204  -2.305  -1.093  0.00  0.00    +0.012 A 
ATOM      9  C   UNL     1       0.612  -2.859   0.058  0.00  0.00    +0.002 A 
ATOM     10  C   UNL     1       0.005  -4.125   0.029  0.00  0.00    +0.010 A 
ATOM     11  C   UNL     1      -0.559  -4.634   1.160  0.00  0.00    +0.003 A 
ATOM     12  C   UNL     1      -0.546  -3.917   2.352  0.00  0.00    +0.025 A 
ATOM     13  C   UNL     1       0.040  -2.671   2.421  0.00  0.00    +0.060 A 
ATOM     14  C   UNL     1       0.634  -2.117   1.264  0.00  0.00    +0.092 A 
ATOM     15  N   UNL     1       1.215  -0.915   1.297  0.00  0.00    -0.250 NA
ENDBRANCH   1  13
BRANCH   2  16
ATOM     16  C   UNL     1      -0.159  -1.860   6.072  0.00  0.00    +0.300 C 
ATOM     17  O   UNL     1      -0.176  -0.646   6.056  0.00  0.00    -0.265 OA
ATOM     18  N   UNL     1      -0.246  -2.519   7.244  0.00  0.00    -0.302 N 
ATOM     19  H   UNL     1      -0.233  -3.489   7.257  0.00  0.00    +0.150 HD
BRANCH  18  20
ATOM     20  C   UNL     1      -0.362  -1.772   8.499  0.00  0.00    +0.159 C 
BRANCH  20  21
ATOM     21  C   UNL     1      -0.443  -2.737   9.653  0.00  0.00    +0.051 A 
ATOM     22  C   UNL     1      -1.576  -3.192  10.227  0.00  0.00    +0.110 A 
ATOM     23  N   UNL     1      -1.196  -4.038  11.226  0.00  0.00    -0.336 N 
ATOM     24  C   UNL     1       0.158  -4.074  11.234  0.00  0.00    +0.087 A 
ATOM     25  N   UNL     1       0.599  -3.298  10.287  0.00  0.00    -0.346 N 
ATOM     26  C   UNL     1       0.975  -4.898  12.200  0.00  0.00    +0.072 C 
ATOM     27  C   UNL     1       0.063  -5.325  13.357  0.00  0.00    +0.009 C 
ATOM     28  C   UNL     1      -1.234  -5.908  12.789  0.00  0.00    +0.022 C 
ATOM     29  C   UNL     1      -2.057  -4.789  12.142  0.00  0.00    +0.123 C 
ATOM     30  H   UNL     1       1.534  -3.148  10.074  0.00  0.00    +0.167 HD
ENDBRANCH  20  21
ENDBRANCH  18  20
ENDBRANCH   2  16
TORSDOF 4
