REMARK  Name = ZINC44253567
REMARK  12 active torsions:
REMARK  status: ('A' for Active; 'I' for Inactive)
REMARK    1  A    between atoms: C_1  and  C_2
REMARK    2  A    between atoms: C_3  and  C_28
REMARK    3  A    between atoms: C_4  and  C_27
REMARK    4  A    between atoms: C_5  and  S_10
REMARK    5  A    between atoms: C_6  and  C_9
REMARK    6  A    between atoms: C_7  and  C_8
REMARK    7  A    between atoms: S_10  and  O_13
REMARK    8  A    between atoms: O_13  and  C_14
REMARK    9  A    between atoms: C_17  and  C_20
REMARK   10  A    between atoms: C_20  and  C_22
REMARK   11  A    between atoms: C_20  and  N_26
REMARK   12  A    between atoms: C_22  and  C_23
REMARK                            x       y       z     vdW  Elec       q    Type
REMARK                         _______ _______ _______ _____ _____    ______ ____
ROOT
ATOM      1  C   UNL     1       0.578  -5.600   1.348  0.00  0.00    +0.157 A 
ATOM      2  C   UNL     1       0.240  -4.773   2.410  0.00  0.00    +0.049 A 
ATOM      3  C   UNL     1      -0.642  -5.217   3.376  0.00  0.00    +0.005 A 
ATOM      4  C   UNL     1      -1.188  -6.484   3.285  0.00  0.00    -0.061 A 
ATOM      5  C   UNL     1      -0.853  -7.310   2.228  0.00  0.00    +0.005 A 
ATOM      6  C   UNL     1       0.024  -6.869   1.257  0.00  0.00    +0.049 A 
ENDROOT
BRANCH   1   7
ATOM      7  O   UNL     1       1.446  -5.166   0.397  0.00  0.00    -0.342 OA
BRANCH   7   8
ATOM      8  S   UNL     1       0.797  -4.332  -0.699  0.00  0.00    +0.151 S 
ATOM      9  O   UNL     1      -0.608  -4.452  -0.522  0.00  0.00    -0.131 OA
ATOM     10  O   UNL     1       1.445  -4.683  -1.914  0.00  0.00    -0.131 OA
BRANCH   8  15
ATOM     11  C   UNL     1       2.183   1.438   0.393  0.00  0.00    +0.044 C 
ATOM     12  C   UNL     1       1.837  -0.003   0.120  0.00  0.00    -0.044 A 
ATOM     13  C   UNL     1       0.771  -0.314  -0.704  0.00  0.00    -0.042 A 
ATOM     14  C   UNL     1       0.454  -1.636  -0.955  0.00  0.00    -0.019 A 
ATOM     15  C   UNL     1       1.202  -2.647  -0.381  0.00  0.00    +0.134 A 
ATOM     16  C   UNL     1       2.268  -2.336   0.443  0.00  0.00    -0.019 A 
ATOM     17  C   UNL     1       2.588  -1.014   0.689  0.00  0.00    -0.042 A 
ATOM     18  C   UNL     1       3.753  -0.675   1.583  0.00  0.00    +0.044 C 
ATOM     19  C   UNL     1       3.083  -3.438   1.068  0.00  0.00    +0.046 C 
ATOM     20  C   UNL     1      -0.708  -1.975  -1.852  0.00  0.00    +0.046 C 
ATOM     21  C   UNL     1      -0.044   0.788  -1.329  0.00  0.00    +0.044 C 
ENDBRANCH   8  15
ENDBRANCH   7   8
ENDBRANCH   1   7
BRANCH   4  22
ATOM     22  C   UNL     1      -2.151  -6.965   4.340  0.00  0.00    -0.035 C 
BRANCH  22  23
ATOM     23  N   UNL     1      -3.237  -7.721   3.703  0.00  0.00    +0.383 N 
ATOM     24  H   UNL     1      -3.882  -8.043   4.410  0.00  0.00    -0.089 HD
ATOM     25  H   UNL     1      -3.724  -7.125   3.051  0.00  0.00    -0.089 HD
ATOM     26  H   UNL     1      -2.853  -8.514   3.212  0.00  0.00    -0.089 HD
ENDBRANCH  22  23
BRANCH  22  27
ATOM     27  C   UNL     1      -1.412  -7.869   5.330  0.00  0.00    +0.084 C 
BRANCH  27  28
ATOM     28  C   UNL     1      -2.343  -8.251   6.452  0.00  0.00    +0.209 C 
ATOM     29  O   UNL     1      -3.484  -7.841   6.459  0.00  0.00    -0.276 OA
ATOM     30  N   UNL     1      -1.907  -9.049   7.447  0.00  0.00    -0.329 N 
ATOM     31  H   UNL     1      -0.994  -9.377   7.441  0.00  0.00    +0.145 HD
ATOM     32  H   UNL     1      -2.506  -9.295   8.169  0.00  0.00    +0.145 HD
ENDBRANCH  27  28
ENDBRANCH  22  27
ENDBRANCH   4  22
TORSDOF 7
