REMARK  Name = ZINC07450400
REMARK  6 active torsions:
REMARK  status: ('A' for Active; 'I' for Inactive)
REMARK    1  A    between atoms: C_1  and  C_2
REMARK    2  A    between atoms: C_5  and  N_8
REMARK    3  A    between atoms: C_9  and  N_14
REMARK    4  A    between atoms: C_11  and  C_13
REMARK    5  A    between atoms: C_15  and  C_17
REMARK    6  A    between atoms: C_17  and  N_45
REMARK                            x       y       z     vdW  Elec       q    Type
REMARK                         _______ _______ _______ _____ _____    ______ ____
ROOT
ATOM      1  N   UNL     1      -0.239   1.228   4.862  0.00  0.00    -0.272 N 
ATOM      2  C   UNL     1      -0.661   1.622   3.643  0.00  0.00    +0.202 C 
ATOM      3  O   UNL     1      -1.399   2.578   3.536  0.00  0.00    -0.278 OA
ATOM      4  H   UNL     1       0.351   0.463   4.947  0.00  0.00    +0.156 HD
ENDROOT
BRANCH   1   6
ATOM      5  N   UNL     1      -0.312   1.633   7.285  0.00  0.00    -0.218 N 
ATOM      6  C   UNL     1      -0.652   1.921   5.999  0.00  0.00    +0.129 A 
ATOM      7  C   UNL     1      -1.475   3.006   6.028  0.00  0.00    +0.068 A 
ATOM      8  C   UNL     1      -1.632   3.389   7.363  0.00  0.00    +0.062 A 
ATOM      9  N   UNL     1      -0.937   2.574   8.114  0.00  0.00    -0.170 NA
ATOM     10  C   UNL     1      -2.464   4.546   7.854  0.00  0.00    +0.067 C 
BRANCH   5  15
ATOM     11  C   UNL     1       3.049  -2.612   8.986  0.00  0.00    +0.044 C 
ATOM     12  C   UNL     1       2.157  -1.484   8.534  0.00  0.00    -0.050 A 
ATOM     13  C   UNL     1       2.176  -0.277   9.208  0.00  0.00    +0.005 A 
ATOM     14  C   UNL     1       1.359   0.758   8.796  0.00  0.00    +0.028 A 
ATOM     15  C   UNL     1       0.519   0.585   7.705  0.00  0.00    +0.067 A 
ATOM     16  C   UNL     1       0.498  -0.630   7.034  0.00  0.00    +0.028 A 
ATOM     17  C   UNL     1       1.321  -1.659   7.447  0.00  0.00    +0.005 A 
ENDBRANCH   5  15
ENDBRANCH   1   6
BRANCH   2  18
ATOM     18  C   UNL     1      -0.215   0.873   2.414  0.00  0.00    +0.020 C 
BRANCH  18  26
ATOM     19  C   UNL     1      -2.361   1.108   1.314  0.00  0.00    -0.059 C 
ATOM     20  C   UNL     1      -3.088   1.926   0.245  0.00  0.00    +0.085 C 
ATOM     21  N   UNL     1      -2.438   1.748  -1.050  0.00  0.00    -0.319 N 
ATOM     22  C   UNL     1      -1.193   1.277  -1.179  0.00  0.00    +0.196 C 
ATOM     23  O   UNL     1      -0.717   1.190  -2.291  0.00  0.00    -0.278 OA
ATOM     24  C   UNL     1      -0.358   0.852  -0.004  0.00  0.00    +0.019 C 
ATOM     25  H   UNL     1      -2.930   1.982  -1.852  0.00  0.00    +0.149 HD
ATOM     26  N   UNL     1      -0.921   1.423   1.234  0.00  0.00    +0.392 N 
ATOM     27  H   UNL     1      -0.801   2.442   1.218  0.00  0.00    -0.080 HD
ENDBRANCH  18  26
ENDBRANCH   2  18
TORSDOF 4
