REMARK  Name = ZINC18169544
REMARK  11 active torsions:
REMARK  status: ('A' for Active; 'I' for Inactive)
REMARK    1  A    between atoms: C_1  and  C_2
REMARK    2  A    between atoms: C_6  and  C_37
REMARK    3  A    between atoms: C_7  and  N_8
REMARK    4  A    between atoms: N_8  and  C_9
REMARK    5  A    between atoms: C_10  and  C_29
REMARK    6  A    between atoms: C_13  and  C_16
REMARK    7  A    between atoms: N_18  and  C_19
REMARK    8  A    between atoms: C_21  and  O_27
REMARK    9  A    between atoms: C_24  and  O_25
REMARK   10  A    between atoms: O_25  and  C_26
REMARK   11  A    between atoms: O_27  and  C_28
REMARK                            x       y       z     vdW  Elec       q    Type
REMARK                         _______ _______ _______ _____ _____    ______ ____
ROOT
ATOM      1  C   UNL     1      -1.492  -1.755   3.853  0.00  0.00    +0.081 C 
ATOM      2  C   UNL     1      -2.177  -1.540   5.048  0.00  0.00    +0.087 C 
ATOM      3  C   UNL     1      -2.849  -2.642   5.689  0.00  0.00    +0.069 C 
ATOM      4  N   UNL     1      -3.507  -2.514   6.803  0.00  0.00    -0.302 NA
ATOM      5  C   UNL     1      -2.726  -3.964   4.956  0.00  0.00    +0.187 C 
ATOM      6  S   UNL     1      -1.715  -3.487   3.499  0.00  0.00    -0.090 S 
ATOM      7  H   UNL     1      -3.623  -1.636   7.199  0.00  0.00    +0.186 HD
ENDROOT
BRANCH   2   8
ATOM      8  C   UNL     1      -2.214  -0.207   5.646  0.00  0.00    +0.251 C 
ATOM      9  O   UNL     1      -1.490   0.057   6.589  0.00  0.00    -0.270 OA
ATOM     10  N   UNL     1      -3.048   0.729   5.154  0.00  0.00    -0.297 N 
ATOM     11  C   UNL     1      -4.003   0.396   4.088  0.00  0.00    +0.108 C 
ATOM     12  C   UNL     1      -5.408   0.807   4.538  0.00  0.00    +0.019 C 
ATOM     13  C   UNL     1      -5.400   2.285   4.935  0.00  0.00    +0.003 C 
ATOM     14  C   UNL     1      -4.438   2.495   6.105  0.00  0.00    +0.019 C 
ATOM     15  C   UNL     1      -3.025   2.102   5.678  0.00  0.00    +0.108 C 
ENDBRANCH   2   8
BRANCH   5  16
ATOM     16  C   UNL     1      -2.014  -4.987   5.803  0.00  0.00    +0.237 C 
ATOM     17  O   UNL     1      -1.181  -4.632   6.611  0.00  0.00    -0.274 OA
ATOM     18  N   UNL     1      -2.302  -6.296   5.664  0.00  0.00    -0.281 N 
ATOM     19  H   UNL     1      -2.934  -6.584   4.987  0.00  0.00    +0.155 HD
BRANCH  18  20
ATOM     20  C   UNL     1      -1.688  -7.241   6.496  0.00  0.00    +0.079 A 
ATOM     21  C   UNL     1      -1.232  -6.869   7.752  0.00  0.00    +0.072 A 
ATOM     22  C   UNL     1      -0.625  -7.806   8.574  0.00  0.00    +0.122 A 
ATOM     23  C   UNL     1      -0.474  -9.115   8.141  0.00  0.00    +0.049 A 
ATOM     24  C   UNL     1      -0.927  -9.488   6.889  0.00  0.00    +0.051 A 
ATOM     25  C   UNL     1      -1.540  -8.557   6.067  0.00  0.00    +0.141 A 
BRANCH  25  26
ATOM     26  O   UNL     1      -1.991  -8.927   4.838  0.00  0.00    -0.493 OA
ATOM     27  C   UNL     1      -1.806 -10.294   4.463  0.00  0.00    +0.277 C 
ENDBRANCH  25  26
BRANCH  22  28
ATOM     28  O   UNL     1      -0.178  -7.441   9.805  0.00  0.00    -0.495 OA
ATOM     29  C   UNL     1       0.438  -8.458  10.598  0.00  0.00    +0.277 C 
ENDBRANCH  22  28
ENDBRANCH  18  20
ENDBRANCH   5  16
BRANCH   1  30
ATOM     30  N   UNL     1      -0.803  -0.837   3.112  0.00  0.00    -0.308 N 
ATOM     31  H   UNL     1      -0.818   0.100   3.365  0.00  0.00    +0.153 HD
BRANCH  30  38
ATOM     32  C   UNL     1       2.015  -1.133   3.369  0.00  0.00    +0.045 C 
ATOM     33  C   UNL     1       1.300  -1.403   2.070  0.00  0.00    -0.029 A 
ATOM     34  C   UNL     1       2.013  -1.814   0.961  0.00  0.00    +0.005 A 
ATOM     35  C   UNL     1       1.357  -2.062  -0.231  0.00  0.00    +0.001 A 
ATOM     36  C   UNL     1      -0.014  -1.902  -0.317  0.00  0.00    +0.005 A 
ATOM     37  C   UNL     1      -0.733  -1.492   0.789  0.00  0.00    -0.029 A 
ATOM     38  C   UNL     1      -0.078  -1.246   1.989  0.00  0.00    +0.038 A 
ATOM     39  C   UNL     1      -2.227  -1.317   0.695  0.00  0.00    +0.045 C 
ENDBRANCH  30  38
ENDBRANCH   1  30
TORSDOF 7
