REMARK  Name = ZINC59392329
REMARK  8 active torsions:
REMARK  status: ('A' for Active; 'I' for Inactive)
REMARK    1  A    between atoms: C_1  and  C_2
REMARK    2  A    between atoms: N_16  and  C_17
REMARK    3  A    between atoms: C_17  and  C_18
REMARK    4  A    between atoms: N_20  and  C_21
REMARK    5  A    between atoms: C_21  and  C_22
REMARK    6  A    between atoms: C_25  and  O_28
REMARK    7  A    between atoms: O_28  and  C_29
REMARK    8  A    between atoms: C_29  and  C_30
REMARK                            x       y       z     vdW  Elec       q    Type
REMARK                         _______ _______ _______ _____ _____    ______ ____
ROOT
ATOM      1  C   UNL     1      -0.126   1.424  -0.048  0.00  0.00    -0.008 C 
ATOM      2  C   UNL     1      -0.046  -0.103   0.002  0.00  0.00    -0.040 C 
ATOM      3  C   UNL     1       0.531  -0.611  -1.293  0.00  0.00    -0.054 A 
ATOM      4  C   UNL     1       0.126  -0.017  -2.478  0.00  0.00    +0.051 A 
ATOM      5  C   UNL     1       0.628  -0.456  -3.691  0.00  0.00    +0.162 A 
ATOM      6  C   UNL     1       1.546  -1.499  -3.719  0.00  0.00    +0.162 A 
ATOM      7  C   UNL     1       1.948  -2.091  -2.533  0.00  0.00    +0.053 A 
ATOM      8  C   UNL     1       1.442  -1.647  -1.322  0.00  0.00    -0.038 A 
ATOM      9  C   UNL     1       1.907  -2.312  -0.054  0.00  0.00    -0.019 C 
ATOM     10  C   UNL     1       3.341  -1.855   0.276  0.00  0.00    +0.010 C 
ATOM     11  C   UNL     1       4.020  -3.125   0.847  0.00  0.00    +0.001 C 
ATOM     12  C   UNL     1       3.427  -4.255  -0.032  0.00  0.00    +0.001 C 
ATOM     13  C   UNL     1       1.958  -3.834  -0.249  0.00  0.00    +0.010 C 
ATOM     14  C   UNL     1       0.975  -1.964   1.104  0.00  0.00    -0.066 C 
ATOM     15  N   UNL     1       0.792  -0.505   1.136  0.00  0.00    +0.390 N 
ATOM     16  O   UNL     1       2.059  -1.945  -4.899  0.00  0.00    -0.485 OA
ATOM     17  C   UNL     1       1.350  -1.577  -6.088  0.00  0.00    +0.270 C 
ATOM     18  C   UNL     1       1.020  -0.081  -6.007  0.00  0.00    +0.270 C 
ATOM     19  O   UNL     1       0.214   0.139  -4.844  0.00  0.00    -0.485 OA
ATOM     20  H   UNL     1       1.690  -0.050   1.070  0.00  0.00    -0.080 HD
ENDROOT
BRANCH  15  21
ATOM     21  C   UNL     1       0.135  -0.120   2.392  0.00  0.00    +0.019 C 
BRANCH  21  22
ATOM     22  C   UNL     1       1.065  -0.389   3.547  0.00  0.00    +0.197 C 
ATOM     23  O   UNL     1       2.203  -0.751   3.338  0.00  0.00    -0.278 OA
ATOM     24  N   UNL     1       0.632  -0.227   4.813  0.00  0.00    -0.313 N 
ATOM     25  H   UNL     1      -0.279   0.063   4.981  0.00  0.00    +0.149 HD
BRANCH  24  26
ATOM     26  C   UNL     1       1.535  -0.488   5.936  0.00  0.00    +0.139 C 
BRANCH  26  27
ATOM     27  C   UNL     1       0.812  -0.234   7.233  0.00  0.00    -0.030 A 
ATOM     28  C   UNL     1       0.835   1.026   7.801  0.00  0.00    +0.009 A 
ATOM     29  C   UNL     1       0.172   1.262   8.990  0.00  0.00    +0.046 A 
ATOM     30  C   UNL     1      -0.517   0.233   9.615  0.00  0.00    +0.121 A 
ATOM     31  C   UNL     1      -0.539  -1.031   9.043  0.00  0.00    +0.046 A 
ATOM     32  C   UNL     1       0.121  -1.260   7.851  0.00  0.00    +0.009 A 
BRANCH  30  33
ATOM     33  O   UNL     1      -1.169   0.462  10.785  0.00  0.00    -0.483 OA
BRANCH  33  34
ATOM     34  C   UNL     1      -1.858  -0.645  11.371  0.00  0.00    +0.324 C 
BRANCH  34  35
ATOM     35  C   UNL     1      -2.516  -0.204  12.653  0.00  0.00    +0.248 C 
ATOM     36  O   UNL     1      -2.406   0.944  13.028  0.00  0.00    -0.272 OA
ATOM     37  N   UNL     1      -3.227  -1.087  13.383  0.00  0.00    -0.327 N 
ATOM     38  H   UNL     1      -3.314  -2.005  13.084  0.00  0.00    +0.145 HD
ATOM     39  H   UNL     1      -3.650  -0.803  14.209  0.00  0.00    +0.145 HD
ENDBRANCH  34  35
ENDBRANCH  33  34
ENDBRANCH  30  33
ENDBRANCH  26  27
ENDBRANCH  24  26
ENDBRANCH  21  22
ENDBRANCH  15  21
TORSDOF 7
