REMARK  Name = ZINC06750405
REMARK  7 active torsions:
REMARK  status: ('A' for Active; 'I' for Inactive)
REMARK    1  A    between atoms: C_1  and  C_2
REMARK    2  A    between atoms: C_2  and  N_54
REMARK    3  A    between atoms: C_8  and  N_24
REMARK    4  A    between atoms: C_9  and  C_10
REMARK    5  A    between atoms: C_10  and  C_12
REMARK    6  A    between atoms: C_10  and  N_13
REMARK    7  A    between atoms: N_16  and  C_17
REMARK                            x       y       z     vdW  Elec       q    Type
REMARK                         _______ _______ _______ _____ _____    ______ ____
ROOT
ATOM      1  C   UNL     1      -6.898   1.001   0.637  0.00  0.00    -0.074 C 
ATOM      2  C   UNL     1      -5.846   2.083   0.895  0.00  0.00    +0.018 C 
ATOM      3  C   UNL     1      -4.466   1.465   0.690  0.00  0.00    -0.034 A 
ATOM      4  C   UNL     1      -4.332   0.109   0.700  0.00  0.00    -0.021 A 
ATOM      5  S   UNL     1      -2.603  -0.148   0.418  0.00  0.00    -0.077 S 
ATOM      6  C   UNL     1      -2.118   1.568   0.308  0.00  0.00    +0.090 A 
ATOM      7  C   UNL     1      -3.305   2.207   0.486  0.00  0.00    +0.007 A 
ATOM      8  C   UNL     1      -5.417  -0.897   0.901  0.00  0.00    -0.035 C 
ATOM      9  N   UNL     1      -6.594  -0.188   1.459  0.00  0.00    +0.383 N 
ATOM     10  H   UNL     1      -6.380   0.113   2.417  0.00  0.00    -0.081 HD
ENDROOT
BRANCH   6  11
ATOM     11  N   UNL     1      -0.847   2.113   0.090  0.00  0.00    -0.317 N 
ATOM     12  C   UNL     1      -0.525   3.438   0.168  0.00  0.00    +0.092 A 
ATOM     13  C   UNL     1       0.790   3.568  -0.101  0.00  0.00    +0.019 A 
ATOM     14  C   UNL     1       1.299   2.280  -0.361  0.00  0.00    +0.019 A 
ATOM     15  C   UNL     1       0.275   1.409  -0.240  0.00  0.00    +0.092 A 
ENDBRANCH   6  11
BRANCH   9  17
ATOM     16  C   UNL     1      -8.178  -1.479   0.069  0.00  0.00    -0.017 C 
ATOM     17  C   UNL     1      -7.763  -1.094   1.490  0.00  0.00    -0.082 C 
ENDBRANCH   9  17
BRANCH   7  18
ATOM     18  C   UNL     1      -3.365   3.712   0.463  0.00  0.00    +0.104 C 
ATOM     19  C   UNL     1      -2.746   4.267   1.748  0.00  0.00    +0.033 C 
BRANCH  18  20
ATOM     20  N   UNL     1      -2.618   4.213  -0.694  0.00  0.00    -0.292 N 
ATOM     21  C   UNL     1      -2.692   5.516  -1.031  0.00  0.00    +0.304 C 
ATOM     22  O   UNL     1      -3.377   6.276  -0.374  0.00  0.00    -0.252 OA
ATOM     23  N   UNL     1      -2.005   5.976  -2.095  0.00  0.00    -0.269 N 
ATOM     24  H   UNL     1      -2.071   3.606  -1.217  0.00  0.00    +0.151 HD
ATOM     25  H   UNL     1      -1.384   5.394  -2.560  0.00  0.00    +0.156 HD
BRANCH  23  26
ATOM     26  C   UNL     1      -2.189   7.295  -2.530  0.00  0.00    +0.035 A 
ATOM     27  C   UNL     1      -3.432   7.900  -2.408  0.00  0.00    +0.026 A 
ATOM     28  C   UNL     1      -3.610   9.203  -2.831  0.00  0.00    +0.040 A 
ATOM     29  C   UNL     1      -2.552   9.901  -3.389  0.00  0.00    +0.124 A 
ATOM     30  C   UNL     1      -1.312   9.297  -3.517  0.00  0.00    +0.040 A 
ATOM     31  C   UNL     1      -1.129   7.996  -3.089  0.00  0.00    +0.026 A 
ATOM     32  F   UNL     1      -2.729  11.173  -3.808  0.00  0.00    -0.205 F 
ENDBRANCH  23  26
ENDBRANCH  18  20
ENDBRANCH   7  18
TORSDOF 5
