REMARK  Name = ZINC59170486
REMARK  10 active torsions:
REMARK  status: ('A' for Active; 'I' for Inactive)
REMARK    1  A    between atoms: C_1  and  C_2
REMARK    2  A    between atoms: C_5  and  S_8
REMARK    3  A    between atoms: S_8  and  N_11
REMARK    4  A    between atoms: N_11  and  N_12
REMARK    5  A    between atoms: C_14  and  C_25
REMARK    6  A    between atoms: C_19  and  O_23
REMARK    7  A    between atoms: O_23  and  C_24
REMARK    8  A    between atoms: N_27  and  C_28
REMARK    9  A    between atoms: C_31  and  C_35
REMARK   10  A    between atoms: C_32  and  C_34
REMARK                            x       y       z     vdW  Elec       q    Type
REMARK                         _______ _______ _______ _____ _____    ______ ____
ROOT
ATOM      1  N   UNL     1       3.286  -3.492  -0.222  0.00  0.00    -0.260 N 
ATOM      2  C   UNL     1       4.395  -4.149  -0.030  0.00  0.00    +0.225 A 
ATOM      3  C   UNL     1       5.069  -4.140   1.289  0.00  0.00    +0.099 A 
ATOM      4  C   UNL     1       5.856  -5.225   1.602  0.00  0.00    +0.030 A 
ATOM      5  C   UNL     1       5.960  -6.298   0.608  0.00  0.00    +0.018 A 
ATOM      6  C   UNL     1       6.511  -7.537   0.951  0.00  0.00    +0.015 A 
ATOM      7  C   UNL     1       6.598  -8.526   0.012  0.00  0.00    +0.046 A 
ATOM      8  C   UNL     1       6.141  -8.309  -1.285  0.00  0.00    +0.124 A 
ATOM      9  C   UNL     1       5.592  -7.085  -1.642  0.00  0.00    +0.092 A 
ATOM     10  C   UNL     1       5.499  -6.074  -0.703  0.00  0.00    +0.141 A 
ATOM     11  O   UNL     1       4.968  -4.873  -1.035  0.00  0.00    -0.437 OA
ATOM     12  H   UNL     1       2.848  -3.051   0.522  0.00  0.00    +0.189 HD
ENDROOT
BRANCH   3  13
ATOM     13  C   UNL     1       4.906  -3.017   2.225  0.00  0.00    +0.253 C 
ATOM     14  O   UNL     1       4.143  -2.108   1.957  0.00  0.00    -0.270 OA
ATOM     15  N   UNL     1       5.601  -2.996   3.380  0.00  0.00    -0.281 N 
ATOM     16  H   UNL     1       6.276  -3.671   3.552  0.00  0.00    +0.155 HD
BRANCH  15  17
ATOM     17  C   UNL     1       5.349  -2.001   4.329  0.00  0.00    +0.034 A 
ATOM     18  C   UNL     1       4.066  -1.489   4.477  0.00  0.00    +0.023 A 
ATOM     19  C   UNL     1       3.820  -0.506   5.415  0.00  0.00    +0.005 A 
ATOM     20  C   UNL     1       4.850  -0.032   6.208  0.00  0.00    -0.047 A 
ATOM     21  C   UNL     1       6.128  -0.539   6.063  0.00  0.00    -0.046 A 
ATOM     22  C   UNL     1       6.379  -1.526   5.131  0.00  0.00    +0.027 A 
ATOM     23  C   UNL     1       7.247  -0.018   6.928  0.00  0.00    +0.044 C 
ATOM     24  C   UNL     1       4.578   1.041   7.231  0.00  0.00    +0.044 C 
ENDBRANCH  15  17
ENDBRANCH   3  13
BRANCH   1  25
ATOM     25  N   UNL     1       2.726  -3.424  -1.505  0.00  0.00    -0.157 N 
ATOM     26  H   UNL     1       3.123  -3.925  -2.235  0.00  0.00    +0.194 HD
BRANCH  25  27
ATOM     27  S   UNL     1       1.387  -2.487  -1.775  0.00  0.00    +0.085 S 
ATOM     28  O   UNL     1       0.368  -2.978  -0.915  0.00  0.00    -0.149 OA
ATOM     29  O   UNL     1       1.223  -2.410  -3.184  0.00  0.00    -0.149 OA
BRANCH  27  34
ATOM     30  C   UNL     1       2.699   3.091   0.113  0.00  0.00    +0.044 C 
ATOM     31  C   UNL     1       2.372   1.698  -0.358  0.00  0.00    -0.050 A 
ATOM     32  C   UNL     1       2.731   1.297  -1.632  0.00  0.00    +0.005 A 
ATOM     33  C   UNL     1       2.430   0.019  -2.064  0.00  0.00    +0.029 A 
ATOM     34  C   UNL     1       1.771  -0.858  -1.223  0.00  0.00    +0.110 A 
ATOM     35  C   UNL     1       1.413  -0.458   0.050  0.00  0.00    +0.029 A 
ATOM     36  C   UNL     1       1.718   0.819   0.484  0.00  0.00    +0.005 A 
ENDBRANCH  27  34
ENDBRANCH  25  27
ENDBRANCH   1  25
BRANCH   8  37
ATOM     37  O   UNL     1       6.232  -9.302  -2.206  0.00  0.00    -0.495 OA
ATOM     38  C   UNL     1       6.807 -10.537  -1.775  0.00  0.00    +0.277 C 
ENDBRANCH   8  37
TORSDOF 6
