REMARK  Name = ZINC06082913
REMARK  12 active torsions:
REMARK  status: ('A' for Active; 'I' for Inactive)
REMARK    1  A    between atoms: C_1  and  C_2
REMARK    2  A    between atoms: C_2  and  C_4
REMARK    3  A    between atoms: C_2  and  O_11
REMARK    4  A    between atoms: O_11  and  C_12
REMARK    5  A    between atoms: C_12  and  C_13
REMARK    6  A    between atoms: C_13  and  C_15
REMARK    7  A    between atoms: C_13  and  O_30
REMARK    8  A    between atoms: C_15  and  N_61
REMARK    9  A    between atoms: C_16  and  C_17
REMARK   10  A    between atoms: C_16  and  N_61
REMARK   11  A    between atoms: C_22  and  O_23
REMARK   12  A    between atoms: C_24  and  N_61
REMARK                            x       y       z     vdW  Elec       q    Type
REMARK                         _______ _______ _______ _____ _____    ______ ____
ROOT
ATOM      1  N   UNL     1       1.582   1.994   0.170  0.00  0.00    +0.386 N 
ATOM      2  H   UNL     1       1.552   2.997   0.386  0.00  0.00    -0.081 HD
ENDROOT
BRANCH   1   3
ATOM      3  C   UNL     1       0.199   1.485   0.060  0.00  0.00    -0.068 C 
ATOM      4  C   UNL     1       0.128   0.030   0.527  0.00  0.00    -0.015 C 
ATOM      5  C   UNL     1      -1.314  -0.470   0.419  0.00  0.00    -0.002 C 
ATOM      6  C   UNL     1      -2.221   0.393   1.298  0.00  0.00    -0.000 C 
ATOM      7  C   UNL     1      -2.150   1.848   0.831  0.00  0.00    -0.002 C 
ATOM      8  C   UNL     1      -0.708   2.348   0.939  0.00  0.00    -0.015 C 
ENDBRANCH   1   3
BRANCH   1   9
ATOM      9  C   UNL     1       2.294   1.290   1.258  0.00  0.00    -0.044 C 
BRANCH   9  10
ATOM     10  C   UNL     1       1.798   1.832   2.600  0.00  0.00    +0.124 C 
BRANCH  10  11
ATOM     11  O   UNL     1       1.919   3.256   2.613  0.00  0.00    -0.391 OA
ATOM     12  H   UNL     1       2.825   3.574   2.494  0.00  0.00    +0.210 HD
ENDBRANCH  10  11
BRANCH  10  13
ATOM     13  C   UNL     1       2.638   1.237   3.732  0.00  0.00    +0.190 C 
BRANCH  13  14
ATOM     14  O   UNL     1       2.103   1.651   4.990  0.00  0.00    -0.370 OA
BRANCH  14  16
ATOM     15  C   UNL     1       3.925   2.132   6.503  0.00  0.00    +0.043 C 
ATOM     16  C   UNL     1       2.818   1.147   6.120  0.00  0.00    +0.145 C 
BRANCH  16  17
ATOM     17  C   UNL     1       1.872   0.980   7.281  0.00  0.00    -0.019 A 
ATOM     18  C   UNL     1       0.836   1.876   7.462  0.00  0.00    +0.007 A 
ATOM     19  C   UNL     1      -0.036   1.720   8.523  0.00  0.00    +0.020 A 
ATOM     20  C   UNL     1       0.135   0.671   9.410  0.00  0.00    +0.041 A 
ATOM     21  C   UNL     1       1.175  -0.223   9.231  0.00  0.00    +0.020 A 
ATOM     22  C   UNL     1       2.043  -0.068   8.166  0.00  0.00    +0.007 A 
ATOM     23 CL   UNL     1      -0.956   0.478  10.746  0.00  0.00    -0.084 Cl
ENDBRANCH  16  17
ENDBRANCH  14  16
ENDBRANCH  13  14
ENDBRANCH  10  13
ENDBRANCH   9  10
ENDBRANCH   1   9
BRANCH   1  24
ATOM     24  C   UNL     1       2.296   1.798  -1.110  0.00  0.00    -0.039 C 
BRANCH  24  25
ATOM     25  C   UNL     1       1.798   2.818  -2.101  0.00  0.00    -0.022 A 
ATOM     26  C   UNL     1       0.904   2.445  -3.087  0.00  0.00    +0.005 A 
ATOM     27  C   UNL     1       0.447   3.380  -3.997  0.00  0.00    +0.000 A 
ATOM     28  C   UNL     1       0.882   4.691  -3.923  0.00  0.00    +0.004 A 
ATOM     29  C   UNL     1       1.775   5.069  -2.939  0.00  0.00    +0.045 A 
ATOM     30  C   UNL     1       2.232   4.133  -2.022  0.00  0.00    +0.118 A 
BRANCH  30  31
ATOM     31  O   UNL     1       3.106   4.504  -1.050  0.00  0.00    -0.507 OA
ATOM     32  H   UNL     1       4.035   4.420  -1.304  0.00  0.00    +0.292 HD
ENDBRANCH  30  31
ENDBRANCH  24  25
ENDBRANCH   1  24
TORSDOF 11
