REMARK  Name = ZINC38636141
REMARK  12 active torsions:
REMARK  status: ('A' for Active; 'I' for Inactive)
REMARK    1  A    between atoms: C_1  and  C_2
REMARK    2  A    between atoms: C_4  and  N_29
REMARK    3  A    between atoms: C_7  and  S_8
REMARK    4  A    between atoms: S_8  and  N_11
REMARK    5  A    between atoms: N_11  and  C_12
REMARK    6  A    between atoms: C_12  and  C_13
REMARK    7  A    between atoms: C_13  and  C_15
REMARK    8  A    between atoms: C_13  and  N_24
REMARK    9  A    between atoms: C_18  and  N_21
REMARK   10  A    between atoms: N_21  and  C_22
REMARK   11  A    between atoms: N_21  and  C_23
REMARK   12  A    between atoms: C_30  and  C_32
REMARK                            x       y       z     vdW  Elec       q    Type
REMARK                         _______ _______ _______ _____ _____    ______ ____
ROOT
ATOM      1  N   UNL     1       0.083   3.452   1.689  0.00  0.00    -0.191 NA
ATOM      2  H   UNL     1       0.022   4.259   2.223  0.00  0.00    +0.148 HD
ENDROOT
BRANCH   1   3
ATOM      3  S   UNL     1      -1.212   2.959   0.782  0.00  0.00    +0.059 S 
ATOM      4  O   UNL     1      -0.728   2.750  -0.537  0.00  0.00    -0.153 OA
ATOM      5  O   UNL     1      -2.275   3.858   1.069  0.00  0.00    -0.153 OA
BRANCH   3  12
ATOM      6  C   UNL     1      -2.342   2.490   3.546  0.00  0.00    +0.046 C 
ATOM      7  C   UNL     1      -2.214   1.268   2.675  0.00  0.00    -0.022 A 
ATOM      8  C   UNL     1      -2.608   0.034   3.155  0.00  0.00    +0.028 A 
ATOM      9  C   UNL     1      -2.490  -1.092   2.351  0.00  0.00    +0.034 A 
ATOM     10  C   UNL     1      -1.976  -0.974   1.066  0.00  0.00    +0.025 A 
ATOM     11  C   UNL     1      -1.583   0.262   0.592  0.00  0.00    +0.030 A 
ATOM     12  C   UNL     1      -1.708   1.383   1.393  0.00  0.00    +0.108 A 
BRANCH   9  13
ATOM     13  N   UNL     1      -2.888  -2.344   2.835  0.00  0.00    -0.286 N 
ATOM     14  C   UNL     1      -3.941  -2.439   3.671  0.00  0.00    +0.214 C 
ATOM     15  O   UNL     1      -4.597  -1.454   3.934  0.00  0.00    -0.276 OA
ATOM     16  C   UNL     1      -4.302  -3.770   4.278  0.00  0.00    +0.109 C 
ATOM     17  H   UNL     1      -2.406  -3.142   2.568  0.00  0.00    +0.155 HD
ENDBRANCH   9  13
ENDBRANCH   3  12
ENDBRANCH   1   3
BRANCH   1  18
ATOM     18  C   UNL     1       1.320   2.668   1.685  0.00  0.00    +0.095 C 
BRANCH  18  19
ATOM     19  C   UNL     1       2.470   3.527   2.214  0.00  0.00    -0.022 C 
BRANCH  19  20
ATOM     20  C   UNL     1       2.672   4.711   1.303  0.00  0.00    -0.060 A 
ATOM     21  C   UNL     1       3.368   4.559   0.118  0.00  0.00    +0.004 A 
ATOM     22  C   UNL     1       3.555   5.641  -0.719  0.00  0.00    +0.023 A 
ATOM     23  C   UNL     1       3.043   6.884  -0.370  0.00  0.00    +0.029 A 
ATOM     24  C   UNL     1       2.344   7.034   0.822  0.00  0.00    +0.023 A 
ATOM     25  C   UNL     1       2.156   5.946   1.651  0.00  0.00    +0.004 A 
BRANCH  23  26
ATOM     26  N   UNL     1       3.230   7.981  -1.214  0.00  0.00    -0.336 N 
ATOM     27  C   UNL     1       3.968   7.822  -2.469  0.00  0.00    +0.129 C 
ATOM     28  C   UNL     1       2.689   9.291  -0.843  0.00  0.00    +0.129 C 
ENDBRANCH  23  26
ENDBRANCH  19  20
BRANCH  19  29
ATOM     29  N   UNL     1       3.701   2.727   2.256  0.00  0.00    +0.385 N 
ATOM     30  C   UNL     1       4.781   3.483   2.940  0.00  0.00    -0.078 C 
ATOM     31  C   UNL     1       5.757   2.370   3.399  0.00  0.00    -0.020 C 
ATOM     32  C   UNL     1       4.805   1.224   3.811  0.00  0.00    -0.020 C 
ATOM     33  C   UNL     1       3.488   1.507   3.065  0.00  0.00    -0.078 C 
ATOM     34  H   UNL     1       3.987   2.478   1.321  0.00  0.00    -0.081 HD
ENDBRANCH  19  29
ENDBRANCH  18  19
ENDBRANCH   1  18
TORSDOF 8
