REMARK  Name = ZINC43256479
REMARK  7 active torsions:
REMARK  status: ('A' for Active; 'I' for Inactive)
REMARK    1  A    between atoms: C_1  and  C_2
REMARK    2  A    between atoms: C_2  and  C_3
REMARK    3  A    between atoms: C_3  and  C_5
REMARK    4  A    between atoms: C_3  and  N_21
REMARK    5  A    between atoms: C_5  and  C_7
REMARK    6  A    between atoms: C_5  and  O_13
REMARK    7  A    between atoms: O_13  and  C_14
REMARK                            x       y       z     vdW  Elec       q    Type
REMARK                         _______ _______ _______ _____ _____    ______ ____
ROOT
ATOM      1  C   UNL     1       0.627  -2.035  -1.333  0.00  0.00    +0.196 C 
ENDROOT
BRANCH   1   2
ATOM      2  C   UNL     1      -0.794  -2.499  -1.527  0.00  0.00    +0.030 A 
ATOM      3  C   UNL     1      -1.416  -2.888  -2.666  0.00  0.00    +0.016 A 
ATOM      4  C   UNL     1      -2.741  -3.278  -2.607  0.00  0.00    +0.028 A 
ATOM      5  C   UNL     1      -3.379  -3.259  -1.410  0.00  0.00    +0.078 A 
ATOM      6  S   UNL     1      -2.091  -2.684  -0.315  0.00  0.00    -0.078 S 
ATOM      7 CL   UNL     1      -5.020  -3.688  -1.038  0.00  0.00    -0.076 Cl
ENDBRANCH   1   2
BRANCH   1   8
ATOM      8  C   UNL     1       0.658  -0.508  -1.252  0.00  0.00    -0.029 C 
BRANCH   8   9
ATOM      9  N   UNL     1       2.053  -0.050  -1.183  0.00  0.00    +0.383 N 
ATOM     10  H   UNL     1       2.494  -0.440  -0.363  0.00  0.00    -0.089 HD
ATOM     11  H   UNL     1       2.547  -0.354  -2.008  0.00  0.00    -0.089 HD
ATOM     12  H   UNL     1       2.073   0.957  -1.130  0.00  0.00    -0.089 HD
ENDBRANCH   8   9
BRANCH   8  14
ATOM     13  C   UNL     1      -0.168   1.480   0.015  0.00  0.00    +0.002 C 
ATOM     14  C   UNL     1      -0.092  -0.048  -0.001  0.00  0.00    -0.016 C 
ENDBRANCH   8  14
ENDBRANCH   1   8
BRANCH   1  15
ATOM     15  O   UNL     1       1.146  -2.587  -0.121  0.00  0.00    -0.484 OA
BRANCH  15  16
ATOM     16  C   UNL     1       2.451  -2.968  -0.127  0.00  0.00    +0.134 A 
ATOM     17  C   UNL     1       3.246  -2.708  -1.233  0.00  0.00    +0.047 A 
ATOM     18  C   UNL     1       4.572  -3.097  -1.236  0.00  0.00    +0.004 A 
ATOM     19  C   UNL     1       5.107  -3.744  -0.138  0.00  0.00    +0.001 A 
ATOM     20  C   UNL     1       4.317  -4.005   0.966  0.00  0.00    +0.018 A 
ATOM     21  C   UNL     1       2.991  -3.613   0.977  0.00  0.00    +0.055 A 
ATOM     22  I   UNL     1       1.797  -4.000   2.654  0.00  0.00    -0.040 I 
ENDBRANCH  15  16
ENDBRANCH   1  15
TORSDOF 6
