REMARK  Name = ZINC03399842
REMARK  9 active torsions:
REMARK  status: ('A' for Active; 'I' for Inactive)
REMARK    1  A    between atoms: C_1  and  C_2
REMARK    2  A    between atoms: C_2  and  C_3
REMARK    3  A    between atoms: C_12  and  C_13
REMARK    4  A    between atoms: C_13  and  C_15
REMARK    5  A    between atoms: C_15  and  O_16
REMARK    6  A    between atoms: O_16  and  C_17
REMARK    7  A    between atoms: C_17  and  C_19
REMARK    8  A    between atoms: C_19  and  C_20
REMARK    9  A    between atoms: C_20  and  N_21
REMARK                            x       y       z     vdW  Elec       q    Type
REMARK                         _______ _______ _______ _____ _____    ______ ____
ROOT
ATOM      1  C   UNL     1       5.515   1.922   0.662  0.00  0.00    +0.309 C 
ATOM      2  O   UNL     1       5.668   2.255   1.814  0.00  0.00    -0.251 OA
ENDROOT
BRANCH   1   3
ATOM      3  O   UNL     1       6.391   1.085   0.084  0.00  0.00    -0.457 OA
BRANCH   3   4
ATOM      4  C   UNL     1       7.496   0.620   0.902  0.00  0.00    +0.311 C 
BRANCH   4   5
ATOM      5  C   UNL     1       8.368  -0.304   0.090  0.00  0.00    +0.202 C 
ATOM      6  O   UNL     1       8.084  -0.546  -1.066  0.00  0.00    -0.288 OA
BRANCH   5  16
ATOM      7  C   UNL     1      12.480  -2.974   0.680  0.00  0.00    -0.024 A 
ATOM      8  C   UNL     1      12.562  -3.516  -0.585  0.00  0.00    +0.005 A 
ATOM      9  C   UNL     1      11.611  -3.212  -1.547  0.00  0.00    +0.001 A 
ATOM     10  C   UNL     1      10.568  -2.363  -1.248  0.00  0.00    +0.011 A 
ATOM     11  C   UNL     1      10.469  -1.814   0.027  0.00  0.00    +0.011 A 
ATOM     12  C   UNL     1      11.434  -2.115   1.001  0.00  0.00    +0.050 A 
ATOM     13  N   UNL     1      11.093  -1.435   2.152  0.00  0.00    -0.360 N 
ATOM     14  H   UNL     1      11.594  -1.470   2.982  0.00  0.00    +0.165 HD
ATOM     15  C   UNL     1       9.970  -0.715   1.965  0.00  0.00    +0.095 A 
ATOM     16  C   UNL     1       9.518  -0.889   0.675  0.00  0.00    +0.046 A 
BRANCH   7  18
ATOM     17  C   UNL     1      13.025  -4.476   2.577  0.00  0.00    +0.009 C 
ATOM     18  C   UNL     1      13.522  -3.313   1.715  0.00  0.00    +0.034 C 
ENDBRANCH   7  18
ENDBRANCH   5  16
ENDBRANCH   4   5
ENDBRANCH   3   4
ENDBRANCH   1   3
BRANCH   1  19
ATOM     19  C   UNL     1       4.342   2.447  -0.124  0.00  0.00    +0.140 C 
BRANCH  19  20
ATOM     20  C   UNL     1       3.507   3.373   0.762  0.00  0.00    +0.122 C 
BRANCH  20  21
ATOM     21  N   UNL     1       2.366   3.883  -0.003  0.00  0.00    -0.298 N 
ATOM     22  C   UNL     1       1.165   3.166   0.007  0.00  0.00    +0.048 A 
ATOM     23  C   UNL     1       1.179   1.780   0.000  0.00  0.00    +0.024 A 
ATOM     24  C   UNL     1      -0.013   1.076   0.008  0.00  0.00    +0.002 A 
ATOM     25  C   UNL     1      -1.221   1.746   0.017  0.00  0.00    +0.001 A 
ATOM     26  C   UNL     1      -1.247   3.131   0.030  0.00  0.00    +0.017 A 
ATOM     27  C   UNL     1      -0.059   3.838   0.023  0.00  0.00    +0.034 A 
ATOM     28  S   UNL     1      -0.060   5.604   0.034  0.00  0.00    -0.086 S 
ATOM     29  C   UNL     1       1.451   5.986  -0.796  0.00  0.00    +0.034 A 
ATOM     30  C   UNL     1       2.508   5.075  -0.722  0.00  0.00    +0.048 A 
ATOM     31  C   UNL     1       3.700   5.363  -1.369  0.00  0.00    +0.024 A 
ATOM     32  C   UNL     1       3.833   6.543  -2.080  0.00  0.00    +0.002 A 
ATOM     33  C   UNL     1       2.784   7.440  -2.150  0.00  0.00    +0.001 A 
ATOM     34  C   UNL     1       1.589   7.163  -1.506  0.00  0.00    +0.017 A 
ENDBRANCH  20  21
ENDBRANCH  19  20
ENDBRANCH   1  19
TORSDOF 8
