REMARK  Name = ZINC67224124
REMARK  13 active torsions:
REMARK  status: ('A' for Active; 'I' for Inactive)
REMARK    1  A    between atoms: CD1_1  and  CG_2
REMARK    2  A    between atoms: CG_2  and  CD2_3
REMARK    3  A    between atoms: CG_2  and  CB_4
REMARK    4  A    between atoms: CB_4  and  CA_5
REMARK    5  A    between atoms: CA_5  and  C_7
REMARK    6  A    between atoms: CA_5  and  N_9
REMARK    7  A    between atoms: C_7  and  O_8
REMARK    8  A    between atoms: N_9  and  C_10
REMARK    9  A    between atoms: C_10  and  C_11
REMARK   10  A    between atoms: C_14  and  O_18
REMARK   11  A    between atoms: O_18  and  C_19
REMARK   12  A    between atoms: C_19  and  C_20
REMARK   13  A    between atoms: C_20  and  O_21
REMARK                            x       y       z     vdW  Elec       q    Type
REMARK                         _______ _______ _______ _____ _____    ______ ____
ROOT
ATOM      1  C   UNK A   0      -2.079  -0.320  -3.676  0.00  0.00    -0.045 C 
ENDROOT
BRANCH   1   2
ATOM      2  C   UNK A   0      -1.411  -1.003  -4.841  0.00  0.00    -0.050 A 
ATOM      3  C   UNK A   0      -0.423  -0.347  -5.553  0.00  0.00    +0.006 A 
ATOM      4  C   UNK A   0       0.191  -0.972  -6.621  0.00  0.00    +0.046 A 
ATOM      5  C   UNK A   0      -0.183  -2.259  -6.980  0.00  0.00    +0.122 A 
ATOM      6  C   UNK A   0      -1.174  -2.915  -6.265  0.00  0.00    +0.061 A 
ATOM      7  C   UNK A   0      -1.782  -2.288  -5.194  0.00  0.00    +0.023 A 
ATOM      8 BR   UNK A   0      -3.128  -3.186  -4.214  0.00  0.00    -0.050 Br
BRANCH   5   9
ATOM      9  O   UNK A   0       0.420  -2.874  -8.031  0.00  0.00    -0.490 OA
BRANCH   9  10
ATOM     10  C   UNK A   0      -0.016  -4.199  -8.344  0.00  0.00    +0.256 C 
BRANCH  10  11
ATOM     11  C   UNK A   0       0.771  -4.724  -9.547  0.00  0.00    +0.196 C 
BRANCH  11  12
ATOM     12  O   UNK A   0       2.150  -4.853  -9.194  0.00  0.00    -0.392 OA
ATOM     13  H   UNK A   0       2.709  -5.181  -9.911  0.00  0.00    +0.210 HD
ENDBRANCH  11  12
ENDBRANCH  10  11
ENDBRANCH   9  10
ENDBRANCH   5   9
ENDBRANCH   1   2
BRANCH   1  14
ATOM     14  N   LEU A   1      -1.484  -0.797  -2.421  0.00  0.00    +0.385 N 
ATOM     15  H1  LEU A   1      -0.497  -0.586  -2.415  0.00  0.00    -0.085 HD
ATOM     16  H2  LEU A   1      -1.614  -1.795  -2.346  0.00  0.00    -0.085 HD
BRANCH  14  17
ATOM     17  CA  LEU A   1      -2.135  -0.131  -1.286  0.00  0.00    -0.045 C 
BRANCH  17  18
ATOM     18  CB  LEU A   1      -1.433  -0.534   0.013  0.00  0.00    -0.011 C 
BRANCH  18  20
ATOM     19  CD1 LEU A   1      -0.019   1.526   0.010  0.00  0.00    +0.007 C 
ATOM     20  CG  LEU A   1       0.002  -0.004   0.002  0.00  0.00    -0.019 C 
ATOM     21  CD2 LEU A   1       0.742  -0.511   1.242  0.00  0.00    +0.007 C 
ENDBRANCH  18  20
ENDBRANCH  17  18
BRANCH  17  22
ATOM     22  C   LEU A   1      -3.605  -0.552  -1.222  0.00  0.00    +0.140 C 
BRANCH  22  23
ATOM     23  O   LEU A   1      -3.689  -1.950  -0.939  0.00  0.00    -0.397 OA
ATOM     24  H   LEU A   1      -4.593  -2.287  -0.884  0.00  0.00    +0.209 HD
ENDBRANCH  22  23
ENDBRANCH  17  22
ENDBRANCH  14  17
ENDBRANCH   1  14
TORSDOF 11
