REMARK  Name = ZINC57358743
REMARK  9 active torsions:
REMARK  status: ('A' for Active; 'I' for Inactive)
REMARK    1  A    between atoms: C_1  and  C_2
REMARK    2  A    between atoms: C_5  and  C_7
REMARK    3  A    between atoms: C_10  and  C_12
REMARK    4  A    between atoms: C_12  and  C_13
REMARK    5  A    between atoms: C_13  and  C_14
REMARK    6  A    between atoms: N_16  and  C_17
REMARK    7  A    between atoms: C_21  and  C_23
REMARK    8  A    between atoms: C_23  and  N_24
REMARK    9  A    between atoms: C_28  and  C_30
REMARK                            x       y       z     vdW  Elec       q    Type
REMARK                         _______ _______ _______ _____ _____    ______ ____
ROOT
ATOM      1  C   UNL     1      -4.191  -8.443  -0.875  0.00  0.00    +0.034 A 
ATOM      2  C   UNL     1      -3.289  -9.493  -0.764  0.00  0.00    +0.023 A 
ATOM      3  C   UNL     1      -3.609 -10.733  -1.282  0.00  0.00    +0.002 A 
ATOM      4  C   UNL     1      -4.825 -10.929  -1.911  0.00  0.00    +0.002 A 
ATOM      5  C   UNL     1      -5.724  -9.885  -2.024  0.00  0.00    -0.062 A 
ATOM      6  C   UNL     1      -5.413  -8.644  -1.502  0.00  0.00    +0.025 A 
ENDROOT
BRANCH   1   9
ATOM      7  C   UNL     1      -2.598  -6.741  -0.396  0.00  0.00    +0.218 C 
ATOM      8  O   UNL     1      -1.718  -7.464  -0.812  0.00  0.00    -0.275 OA
ATOM      9  N   UNL     1      -3.870  -7.185  -0.352  0.00  0.00    -0.285 N 
ATOM     10  H   UNL     1      -4.563  -6.633   0.043  0.00  0.00    +0.155 HD
BRANCH   7  11
ATOM     11  C   UNL     1      -2.270  -5.347   0.072  0.00  0.00    +0.104 C 
BRANCH  11  12
ATOM     12  C   UNL     1      -0.769  -5.097  -0.082  0.00  0.00    +0.083 C 
BRANCH  12  16
ATOM     13  C   UNL     1      -0.097  -1.536   0.370  0.00  0.00    +0.109 A 
ATOM     14  C   UNL     1       0.119  -1.956   1.629  0.00  0.00    +0.045 A 
ATOM     15  C   UNL     1      -0.103  -3.353   1.639  0.00  0.00    +0.045 A 
ATOM     16  C   UNL     1      -0.441  -3.702   0.385  0.00  0.00    +0.106 A 
ATOM     17  O   UNL     1      -0.441  -2.598  -0.378  0.00  0.00    -0.464 OA
BRANCH  13  21
ATOM     18  C   UNL     1      -1.437   2.030  -0.460  0.00  0.00    +0.008 C 
ATOM     19  C   UNL     1      -1.231   0.534  -0.711  0.00  0.00    -0.003 C 
ATOM     20  C   UNL     1      -0.076   0.124  -1.627  0.00  0.00    +0.015 C 
ATOM     21  C   UNL     1       0.021  -0.115  -0.118  0.00  0.00    +0.058 C 
ENDBRANCH  13  21
ENDBRANCH  12  16
ENDBRANCH  11  12
ENDBRANCH   7  11
ENDBRANCH   1   9
BRANCH   5  22
ATOM     22  C   UNL     1      -7.048 -10.102  -2.710  0.00  0.00    -0.042 C 
BRANCH  22  23
ATOM     23  N   UNL     1      -8.047 -10.533  -1.723  0.00  0.00    +0.390 N 
ATOM     24  C   UNL     1      -8.361  -9.418  -0.793  0.00  0.00    -0.077 C 
ATOM     25  C   UNL     1      -9.751  -9.807  -0.230  0.00  0.00    -0.020 C 
ATOM     26  C   UNL     1     -10.458 -10.431  -1.455  0.00  0.00    -0.008 C 
ATOM     27  C   UNL     1      -9.320 -10.866  -2.397  0.00  0.00    +0.019 C 
ATOM     28  H   UNL     1      -7.706 -11.331  -1.208  0.00  0.00    -0.080 HD
BRANCH  27  29
ATOM     29  C   UNL     1      -9.397 -12.351  -2.643  0.00  0.00    +0.197 C 
ATOM     30  O   UNL     1      -8.486 -13.072  -2.295  0.00  0.00    -0.278 OA
ATOM     31  N   UNL     1     -10.478 -12.879  -3.251  0.00  0.00    -0.331 N 
ATOM     32  H   UNL     1     -11.207 -12.302  -3.529  0.00  0.00    +0.145 HD
ATOM     33  H   UNL     1     -10.528 -13.834  -3.409  0.00  0.00    +0.145 HD
ENDBRANCH  27  29
ENDBRANCH  22  23
ENDBRANCH   5  22
TORSDOF 8
