REMARK  Name = ZINC20567478
REMARK  9 active torsions:
REMARK  status: ('A' for Active; 'I' for Inactive)
REMARK    1  A    between atoms: C_1  and  C_2
REMARK    2  A    between atoms: C_2  and  C_4
REMARK    3  A    between atoms: C_2  and  N_16
REMARK    4  A    between atoms: N_6  and  C_7
REMARK    5  A    between atoms: C_8  and  N_15
REMARK    6  A    between atoms: N_16  and  C_17
REMARK    7  A    between atoms: N_16  and  C_20
REMARK    8  A    between atoms: C_17  and  C_18
REMARK    9  A    between atoms: C_20  and  C_21
REMARK                            x       y       z     vdW  Elec       q    Type
REMARK                         _______ _______ _______ _____ _____    ______ ____
ROOT
ATOM      1  C   UNL     1       2.346   5.227  -0.286  0.00  0.00    +0.204 C 
ATOM      2  O   UNL     1       1.307   5.787  -0.564  0.00  0.00    -0.277 OA
ATOM      3  N   UNL     1       2.327   3.959   0.172  0.00  0.00    -0.284 N 
ATOM      4  H   UNL     1       3.264   3.471   0.478  0.00  0.00    +0.155 HD
ENDROOT
BRANCH   3   5
ATOM      5  C   UNL     1       1.112   3.263   0.258  0.00  0.00    +0.073 A 
ATOM      6  C   UNL     1       0.832   2.482   1.379  0.00  0.00    +0.049 A 
ATOM      7  C   UNL     1      -0.371   1.796   1.458  0.00  0.00    +0.044 A 
ATOM      8  C   UNL     1      -1.287   1.883   0.425  0.00  0.00    +0.044 A 
ATOM      9  C   UNL     1      -1.011   2.663  -0.684  0.00  0.00    +0.042 A 
ATOM     10  C   UNL     1       0.186   3.350  -0.771  0.00  0.00    +0.065 A 
ATOM     11 CL   UNL     1       0.530   4.322  -2.168  0.00  0.00    -0.082 Cl
ATOM     12 CL   UNL     1      -2.788   1.018   0.524  0.00  0.00    -0.083 Cl
BRANCH   6  13
ATOM     13  N   UNL     1       1.762   2.390   2.420  0.00  0.00    -0.356 N 
ATOM     14  H   UNL     1       1.540   1.773   3.303  0.00  0.00    +0.142 HD
ATOM     15  H   UNL     1       2.716   2.934   2.355  0.00  0.00    +0.142 HD
ENDBRANCH   6  13
ENDBRANCH   3   5
BRANCH   1  17
ATOM     16  C   UNL     1       4.483   5.263  -1.544  0.00  0.00    -0.004 C 
ATOM     17  C   UNL     1       3.659   5.948  -0.452  0.00  0.00    +0.019 C 
BRANCH  17  18
ATOM     18  N   UNL     1       3.406   7.344  -0.832  0.00  0.00    +0.404 N 
ATOM     19  H   UNL     1       2.664   7.756  -0.132  0.00  0.00    -0.078 HD
BRANCH  18  20
ATOM     20  C   UNL     1       4.629   8.150  -0.721  0.00  0.00    +0.045 C 
BRANCH  20  21
ATOM     21  C   UNL     1       4.274   9.579  -0.695  0.00  0.00    +0.044 C 
ATOM     22  N   UNL     1       4.001  10.681  -0.676  0.00  0.00    -0.199 NA
ENDBRANCH  20  21
ENDBRANCH  18  20
BRANCH  18  23
ATOM     23  C   UNL     1       2.842   7.427  -2.186  0.00  0.00    +0.045 C 
BRANCH  23  24
ATOM     24  C   UNL     1       2.381   8.801  -2.443  0.00  0.00    +0.044 C 
ATOM     25  N   UNL     1       2.024   9.861  -2.640  0.00  0.00    -0.199 NA
ENDBRANCH  23  24
ENDBRANCH  18  23
ENDBRANCH  17  18
ENDBRANCH   1  17
TORSDOF 8
