REMARK  Name = ZINC02395520
REMARK  8 active torsions:
REMARK  status: ('A' for Active; 'I' for Inactive)
REMARK    1  A    between atoms: C_4  and  N_7
REMARK    2  A    between atoms: C_8  and  C_26
REMARK    3  A    between atoms: C_11  and  S_12
REMARK    4  A    between atoms: S_12  and  C_13
REMARK    5  A    between atoms: C_13  and  C_14
REMARK    6  A    between atoms: N_16  and  N_17
REMARK    7  A    between atoms: C_18  and  C_19
REMARK    8  A    between atoms: C_22  and  O_25
REMARK                            x       y       z     vdW  Elec       q    Type
REMARK                         _______ _______ _______ _____ _____    ______ ____
ROOT
ATOM      1  N   UNL     1       2.057   0.659  -0.014  0.00  0.00    -0.270 N 
ATOM      2  C   UNL     1       1.212   1.747  -0.000  0.00  0.00    +0.169 A 
ATOM      3  N   UNL     1      -0.015   1.281   0.009  0.00  0.00    -0.128 NA
ATOM      4  N   UNL     1       0.002  -0.004   0.002  0.00  0.00    -0.122 NA
ATOM      5  C   UNL     1       1.242  -0.440  -0.012  0.00  0.00    +0.197 A 
ENDROOT
BRANCH   2   6
ATOM      6  C   UNL     1       1.611   3.170   0.003  0.00  0.00    +0.021 A 
ATOM      7  C   UNL     1       2.922   3.531  -0.315  0.00  0.00    +0.011 A 
ATOM      8  C   UNL     1       3.288   4.861  -0.315  0.00  0.00    +0.002 A 
ATOM      9  C   UNL     1       2.361   5.837   0.009  0.00  0.00    +0.015 A 
ATOM     10  C   UNL     1       1.061   5.486   0.330  0.00  0.00    +0.019 A 
ATOM     11  C   UNL     1       0.681   4.158   0.329  0.00  0.00    +0.027 A 
ATOM     12 BR   UNL     1      -0.197   6.827   0.772  0.00  0.00    -0.050 Br
ENDBRANCH   2   6
BRANCH   1  16
ATOM     13  C   UNL     1       6.225   0.706  -0.056  0.00  0.00    +0.000 A 
ATOM     14  C   UNL     1       5.530   0.197  -1.137  0.00  0.00    +0.002 A 
ATOM     15  C   UNL     1       4.149   0.180  -1.127  0.00  0.00    +0.026 A 
ATOM     16  C   UNL     1       3.459   0.675  -0.028  0.00  0.00    +0.051 A 
ATOM     17  C   UNL     1       4.160   1.190   1.054  0.00  0.00    +0.026 A 
ATOM     18  C   UNL     1       5.541   1.198   1.040  0.00  0.00    +0.002 A 
ENDBRANCH   1  16
BRANCH   5  19
ATOM     19  S   UNL     1       1.758  -2.124  -0.025  0.00  0.00    -0.076 S 
BRANCH  19  20
ATOM     20  C   UNL     1       0.146  -2.947  -0.014  0.00  0.00    +0.174 C 
BRANCH  20  21
ATOM     21  C   UNL     1       0.344  -4.441  -0.023  0.00  0.00    +0.242 C 
ATOM     22  O   UNL     1       1.466  -4.904  -0.036  0.00  0.00    -0.273 OA
ATOM     23  N   UNL     1      -0.724  -5.263  -0.018  0.00  0.00    -0.206 N 
ATOM     24  H   UNL     1      -1.620  -4.893  -0.007  0.00  0.00    +0.177 HD
BRANCH  23  25
ATOM     25  N   UNL     1      -0.539  -6.652  -0.026  0.00  0.00    -0.188 NA
ATOM     26  C   UNL     1      -1.568  -7.443  -0.020  0.00  0.00    +0.138 C 
BRANCH  26  27
ATOM     27  C   UNL     1      -1.374  -8.904  -0.029  0.00  0.00    -0.005 A 
ATOM     28  C   UNL     1      -0.084  -9.440  -0.050  0.00  0.00    +0.013 A 
ATOM     29  C   UNL     1       0.093 -10.806  -0.054  0.00  0.00    +0.046 A 
ATOM     30  C   UNL     1      -1.009 -11.651  -0.048  0.00  0.00    +0.117 A 
ATOM     31  C   UNL     1      -2.294 -11.123  -0.032  0.00  0.00    +0.046 A 
ATOM     32  C   UNL     1      -2.480  -9.758  -0.023  0.00  0.00    +0.013 A 
BRANCH  30  33
ATOM     33  O   UNL     1      -0.831 -12.998  -0.057  0.00  0.00    -0.507 OA
ATOM     34  H   UNL     1      -0.787 -13.383  -0.943  0.00  0.00    +0.292 HD
ENDBRANCH  30  33
ENDBRANCH  26  27
ENDBRANCH  23  25
ENDBRANCH  20  21
ENDBRANCH  19  20
ENDBRANCH   5  19
TORSDOF 8
