REMARK  Name = ZINC61819598
REMARK  4 active torsions:
REMARK  status: ('A' for Active; 'I' for Inactive)
REMARK    1  A    between atoms: C_1  and  C_2
REMARK    2  A    between atoms: C_2  and  C_21
REMARK    3  A    between atoms: N_5  and  C_8
REMARK    4  A    between atoms: C_14  and  N_16
REMARK                            x       y       z     vdW  Elec       q    Type
REMARK                         _______ _______ _______ _____ _____    ______ ____
ROOT
ATOM      1  C   UNL     1       4.273  -0.198  -0.028  0.00  0.00    +0.047 C 
ATOM      2  C   UNL     1       4.451   1.308   0.177  0.00  0.00    +0.082 C 
ATOM      3  C   UNL     1       5.942   1.649   0.174  0.00  0.00    +0.171 C 
ATOM      4  C   UNL     1       6.650   0.892   1.299  0.00  0.00    +0.063 C 
ATOM      5  C   UNL     1       6.468  -0.614   1.092  0.00  0.00    -0.010 C 
ATOM      6  C   UNL     1       4.977  -0.953   1.102  0.00  0.00    -0.057 C 
ATOM      7  O   UNL     1       6.515   1.273  -1.089  0.00  0.00    -0.346 OA
ATOM      8  C   UNL     1       6.492   2.484  -1.881  0.00  0.00    +0.191 C 
ATOM      9  C   UNL     1       6.788   3.565  -0.812  0.00  0.00    +0.191 C 
ATOM     10  O   UNL     1       6.114   3.059   0.359  0.00  0.00    -0.346 OA
ENDROOT
BRANCH   1  15
ATOM     11  C   UNL     1      -0.019   1.526   0.010  0.00  0.00    +0.011 C 
ATOM     12  C   UNL     1       0.002  -0.004   0.002  0.00  0.00    -0.033 C 
ATOM     13  C   UNL     1       0.726  -0.499  -1.253  0.00  0.00    +0.022 C 
ATOM     14  C   UNL     1       2.177  -0.015  -1.224  0.00  0.00    +0.085 C 
ATOM     15  N   UNL     1       2.842  -0.528  -0.020  0.00  0.00    -0.301 NA
ATOM     16  C   UNL     1       2.193  -0.028   1.199  0.00  0.00    +0.085 C 
ATOM     17  C   UNL     1       0.742  -0.513   1.242  0.00  0.00    +0.022 C 
ATOM     18  C   UNL     1      -1.433  -0.535   0.010  0.00  0.00    +0.011 C 
ENDBRANCH   1  15
BRANCH   6  19
ATOM     19  N   UNL     1       4.803  -2.399   0.907  0.00  0.00    +0.381 N 
ATOM     20  H   UNL     1       5.203  -2.670   0.021  0.00  0.00    -0.090 HD
ATOM     21  H   UNL     1       5.267  -2.897   1.652  0.00  0.00    -0.090 HD
ATOM     22  H   UNL     1       3.819  -2.623   0.914  0.00  0.00    -0.090 HD
ENDBRANCH   6  19
TORSDOF 2
