REMARK  Name = ZINC15018404
REMARK  7 active torsions:
REMARK  status: ('A' for Active; 'I' for Inactive)
REMARK    1  A    between atoms: C_1  and  C_2
REMARK    2  A    between atoms: N_12  and  N_13
REMARK    3  A    between atoms: C_14  and  C_16
REMARK    4  A    between atoms: C_16  and  N_27
REMARK    5  A    between atoms: C_17  and  C_18
REMARK    6  A    between atoms: C_21  and  N_24
REMARK    7  A    between atoms: C_28  and  C_30
REMARK                            x       y       z     vdW  Elec       q    Type
REMARK                         _______ _______ _______ _____ _____    ______ ____
ROOT
ATOM      1  C   UNL     1      -0.127  -5.699   6.379  0.00  0.00    +0.098 C 
ATOM      2  C   UNL     1       0.242  -6.947   6.755  0.00  0.00    +0.036 C 
ENDROOT
BRANCH   2   3
ATOM      3  C   UNL     1       0.395  -7.269   8.181  0.00  0.00    -0.023 A 
ATOM      4  C   UNL     1      -0.228  -6.478   9.152  0.00  0.00    +0.010 A 
ATOM      5  C   UNL     1      -0.080  -6.787  10.488  0.00  0.00    +0.033 A 
ATOM      6  C   UNL     1       0.683  -7.877  10.869  0.00  0.00    +0.126 A 
ATOM      7  C   UNL     1       1.302  -8.666   9.915  0.00  0.00    +0.033 A 
ATOM      8  C   UNL     1       1.159  -8.373   8.575  0.00  0.00    +0.010 A 
BRANCH   6   9
ATOM      9  N   UNL     1       0.837  -8.202  12.305  0.00  0.00    +0.056 N 
ATOM     10  O   UNL     1       0.298  -7.515  13.141  0.00  0.00    -0.126 OA
ATOM     11  O   UNL     1       1.502  -9.153  12.641  0.00  0.00    -0.126 OA
ENDBRANCH   6   9
ENDBRANCH   2   3
BRANCH   1  13
ATOM     12  N   UNL     1      -0.795  -4.175   4.595  0.00  0.00    -0.201 N 
ATOM     13  C   UNL     1      -0.428  -5.416   4.969  0.00  0.00    +0.277 C 
ATOM     14  O   UNL     1      -0.346  -6.303   4.140  0.00  0.00    -0.267 OA
ATOM     15  H   UNL     1      -0.861  -3.468   5.256  0.00  0.00    +0.178 HD
BRANCH  12  27
ATOM     16  C   UNL     1      -2.803   1.303   0.599  0.00  0.00    +0.045 C 
ATOM     17  C   UNL     1      -2.458  -0.161   0.497  0.00  0.00    -0.029 A 
ATOM     18  C   UNL     1      -2.503  -0.795  -0.728  0.00  0.00    +0.006 A 
ATOM     19  C   UNL     1      -2.190  -2.139  -0.839  0.00  0.00    +0.021 A 
ATOM     20  C   UNL     1      -1.828  -2.860   0.283  0.00  0.00    +0.052 A 
ATOM     21  C   UNL     1      -1.780  -2.229   1.522  0.00  0.00    +0.047 A 
ATOM     22  C   UNL     1      -2.091  -0.868   1.637  0.00  0.00    +0.047 A 
ATOM     23  N   UNL     1      -1.963  -0.477   2.965  0.00  0.00    -0.279 N 
ATOM     24  C   UNL     1      -1.578  -1.502   3.744  0.00  0.00    +0.269 C 
ATOM     25  O   UNL     1      -1.387  -1.457   4.945  0.00  0.00    -0.268 OA
ATOM     26  C   UNL     1      -1.440  -2.696   2.886  0.00  0.00    +0.154 C 
ATOM     27  N   UNL     1      -1.083  -3.905   3.251  0.00  0.00    -0.174 NA
ATOM     28 CL   UNL     1      -1.436  -4.546   0.148  0.00  0.00    -0.083 Cl
ATOM     29  H   UNL     1      -2.131   0.422   3.289  0.00  0.00    +0.155 HD
ENDBRANCH  12  27
ENDBRANCH   1  13
BRANCH   1  30
ATOM     30  N   UNL     1      -0.221  -4.681   7.331  0.00  0.00    -0.277 N 
ATOM     31  C   UNL     1      -1.387  -4.028   7.507  0.00  0.00    +0.248 C 
ATOM     32  O   UNL     1      -2.324  -4.246   6.764  0.00  0.00    -0.270 OA
ATOM     33  H   UNL     1       0.553  -4.444   7.866  0.00  0.00    +0.155 HD
BRANCH  31  34
ATOM     34  C   UNL     1      -1.526  -3.046   8.603  0.00  0.00    +0.037 A 
ATOM     35  C   UNL     1      -0.419  -2.703   9.382  0.00  0.00    +0.013 A 
ATOM     36  C   UNL     1      -0.556  -1.786  10.403  0.00  0.00    +0.001 A 
ATOM     37  C   UNL     1      -1.787  -1.206  10.656  0.00  0.00    +0.000 A 
ATOM     38  C   UNL     1      -2.888  -1.542   9.888  0.00  0.00    +0.001 A 
ATOM     39  C   UNL     1      -2.763  -2.453   8.860  0.00  0.00    +0.013 A 
ENDBRANCH  31  34
ENDBRANCH   1  30
TORSDOF 6
