REMARK  Name = ZINC20533533
REMARK  6 active torsions:
REMARK  status: ('A' for Active; 'I' for Inactive)
REMARK    1  A    between atoms: C_1  and  C_2
REMARK    2  A    between atoms: C_16  and  C_19
REMARK    3  A    between atoms: C_19  and  C_20
REMARK    4  A    between atoms: C_20  and  C_21
REMARK    5  A    between atoms: N_26  and  C_29
REMARK    6  A    between atoms: C_33  and  N_35
REMARK                            x       y       z     vdW  Elec       q    Type
REMARK                         _______ _______ _______ _____ _____    ______ ____
ROOT
ATOM      1  C   UNL     1       1.084   1.296   0.161  0.00  0.00    +0.047 C 
ATOM      2  C   UNL     1       0.789  -0.181   0.106  0.00  0.00    -0.011 A 
ATOM      3  C   UNL     1       0.626  -0.805  -1.114  0.00  0.00    +0.046 A 
ATOM      4  C   UNL     1       0.356  -2.161  -1.174  0.00  0.00    +0.021 A 
ATOM      5  C   UNL     1       0.248  -2.894  -0.005  0.00  0.00    +0.009 A 
ATOM      6  C   UNL     1       0.409  -2.275   1.214  0.00  0.00    +0.004 A 
ATOM      7  C   UNL     1       0.687  -0.912   1.287  0.00  0.00    +0.043 A 
ATOM      8  N   UNL     1       0.816  -0.516   2.620  0.00  0.00    -0.283 N 
ATOM      9  C   UNL     1       0.642  -1.543   3.474  0.00  0.00    +0.243 C 
ATOM     10  O   UNL     1       0.697  -1.495   4.684  0.00  0.00    -0.273 OA
ATOM     11  C   UNL     1       0.359  -2.759   2.635  0.00  0.00    +0.136 C 
ATOM     12  C   UNL     1      -1.004  -3.379   2.970  0.00  0.00    +0.123 C 
ATOM     13  C   UNL     1      -0.781  -4.911   2.833  0.00  0.00    +0.107 C 
ATOM     14  C   UNL     1       0.691  -5.060   2.394  0.00  0.00    +0.068 C 
ATOM     15  N   UNL     1       1.357  -3.816   2.883  0.00  0.00    -0.295 NA
ATOM     16  C   UNL     1      -0.948  -5.416   4.248  0.00  0.00    +0.232 C 
ATOM     17  O   UNL     1      -0.842  -6.572   4.597  0.00  0.00    -0.274 OA
ATOM     18  N   UNL     1      -1.233  -4.388   5.056  0.00  0.00    -0.210 N 
ATOM     19  C   UNL     1      -1.300  -3.185   4.441  0.00  0.00    +0.233 C 
ATOM     20  O   UNL     1      -1.552  -2.124   4.971  0.00  0.00    -0.274 OA
ATOM     21 CL   UNL     1       0.761   0.115  -2.580  0.00  0.00    -0.083 Cl
ATOM     22  H   UNL     1       1.007   0.393   2.898  0.00  0.00    +0.155 HD
ATOM     23  H   UNL     1       2.206  -3.639   2.368  0.00  0.00    +0.123 HD
ENDROOT
BRANCH  18  24
ATOM     24  C   UNL     1      -1.450  -4.543   6.433  0.00  0.00    +0.046 A 
ATOM     25  C   UNL     1      -0.404  -4.921   7.264  0.00  0.00    +0.024 A 
ATOM     26  C   UNL     1      -0.622  -5.073   8.619  0.00  0.00    +0.004 A 
ATOM     27  C   UNL     1      -1.880  -4.850   9.149  0.00  0.00    +0.033 A 
ATOM     28  C   UNL     1      -2.923  -4.475   8.323  0.00  0.00    +0.128 A 
ATOM     29  C   UNL     1      -2.711  -4.315   6.968  0.00  0.00    +0.056 A 
BRANCH  28  30
ATOM     30  N   UNL     1      -4.269  -4.237   8.894  0.00  0.00    +0.056 N 
ATOM     31  O   UNL     1      -4.454  -4.372  10.081  0.00  0.00    -0.126 OA
ATOM     32  O   UNL     1      -5.181  -3.909   8.172  0.00  0.00    -0.126 OA
ENDBRANCH  28  30
ENDBRANCH  18  24
BRANCH  14  33
ATOM     33  C   UNL     1       1.324  -6.284   3.059  0.00  0.00    +0.028 C 
BRANCH  33  34
ATOM     34  C   UNL     1       2.740  -6.484   2.515  0.00  0.00    +0.097 C 
BRANCH  34  35
ATOM     35  C   UNL     1       3.364  -7.690   3.171  0.00  0.00    +0.211 C 
ATOM     36  O   UNL     1       2.737  -8.326   3.992  0.00  0.00    -0.276 OA
ATOM     37  N   UNL     1       4.617  -8.061   2.845  0.00  0.00    -0.329 N 
ATOM     38  H   UNL     1       5.118  -7.553   2.188  0.00  0.00    +0.145 HD
ATOM     39  H   UNL     1       5.019  -8.837   3.266  0.00  0.00    +0.145 HD
ENDBRANCH  34  35
ENDBRANCH  33  34
ENDBRANCH  14  33
TORSDOF 5
