REMARK  Name = ZINC55888033
REMARK  9 active torsions:
REMARK  status: ('A' for Active; 'I' for Inactive)
REMARK    1  A    between atoms: C_4  and  N_22
REMARK    2  A    between atoms: C_5  and  N_7
REMARK    3  A    between atoms: N_7  and  C_8
REMARK    4  A    between atoms: C_8  and  C_9
REMARK    5  A    between atoms: N_11  and  C_12
REMARK    6  A    between atoms: C_17  and  S_18
REMARK    7  A    between atoms: S_18  and  C_19
REMARK    8  A    between atoms: C_19  and  C_20
REMARK    9  A    between atoms: C_25  and  O_28
REMARK                            x       y       z     vdW  Elec       q    Type
REMARK                         _______ _______ _______ _____ _____    ______ ____
ROOT
ATOM      1  N   UNL     1       1.236  -2.040  -0.002  0.00  0.00    -0.334 N 
ATOM      2  H   UNL     1       2.078  -2.518   0.054  0.00  0.00    +0.147 HD
ENDROOT
BRANCH   1   7
ATOM      3  C   UNL     1       0.004   1.422   0.060  0.00  0.00    +0.002 A 
ATOM      4  C   UNL     1       1.196   2.123   0.053  0.00  0.00    +0.002 A 
ATOM      5  C   UNL     1       2.401   1.445   0.027  0.00  0.00    +0.023 A 
ATOM      6  C   UNL     1       2.418   0.064   0.009  0.00  0.00    +0.035 A 
ATOM      7  C   UNL     1       1.222  -0.643   0.017  0.00  0.00    +0.047 A 
ATOM      8  C   UNL     1       0.014   0.041   0.042  0.00  0.00    +0.025 A 
BRANCH   6   9
ATOM      9  N   UNL     1       3.636  -0.621  -0.018  0.00  0.00    -0.392 NA
ATOM     10  C   UNL     1       4.326  -0.340  -1.283  0.00  0.00    +0.087 C 
ATOM     11  C   UNL     1       5.622  -1.150  -1.353  0.00  0.00    +0.048 C 
ATOM     12  C   UNL     1       6.525  -0.760  -0.180  0.00  0.00    +0.117 C 
ATOM     13  C   UNL     1       5.768  -0.987   1.132  0.00  0.00    +0.048 C 
ATOM     14  C   UNL     1       4.467  -0.183   1.110  0.00  0.00    +0.087 C 
ATOM     15  H   UNL     1       3.465  -1.612   0.056  0.00  0.00    +0.126 HD
BRANCH  12  16
ATOM     16  O   UNL     1       7.705  -1.566  -0.196  0.00  0.00    -0.392 OA
ATOM     17  H   UNL     1       8.324  -1.372   0.521  0.00  0.00    +0.210 HD
ENDBRANCH  12  16
ENDBRANCH   6   9
ENDBRANCH   1   7
BRANCH   1  18
ATOM     18  C   UNL     1      -0.023  -2.783  -0.105  0.00  0.00    +0.198 C 
BRANCH  18  19
ATOM     19  C   UNL     1       0.266  -4.262  -0.104  0.00  0.00    +0.234 C 
ATOM     20  O   UNL     1       1.410  -4.657  -0.025  0.00  0.00    -0.274 OA
ATOM     21  N   UNL     1      -0.747  -5.146  -0.191  0.00  0.00    -0.283 N 
ATOM     22  H   UNL     1      -1.654  -4.833  -0.335  0.00  0.00    +0.155 HD
BRANCH  21  23
ATOM     23  C   UNL     1      -0.491  -6.519  -0.074  0.00  0.00    +0.047 A 
ATOM     24  C   UNL     1       0.627  -6.962   0.616  0.00  0.00    +0.024 A 
ATOM     25  C   UNL     1       0.878  -8.316   0.731  0.00  0.00    +0.002 A 
ATOM     26  C   UNL     1       0.016  -9.234   0.159  0.00  0.00    +0.001 A 
ATOM     27  C   UNL     1      -1.101  -8.803  -0.531  0.00  0.00    +0.016 A 
ATOM     28  C   UNL     1      -1.364  -7.445  -0.646  0.00  0.00    +0.030 A 
BRANCH  28  29
ATOM     29  S   UNL     1      -2.791  -6.892  -1.519  0.00  0.00    -0.108 S 
BRANCH  29  30
ATOM     30  C   UNL     1      -3.593  -8.425  -2.066  0.00  0.00    +0.192 C 
BRANCH  30  31
ATOM     31  C   UNL     1      -4.815  -8.098  -2.818  0.00  0.00    +0.074 C 
ATOM     32  N   UNL     1      -5.758  -7.846  -3.398  0.00  0.00    -0.196 NA
ENDBRANCH  30  31
ENDBRANCH  29  30
ENDBRANCH  28  29
ENDBRANCH  21  23
ENDBRANCH  18  19
ENDBRANCH   1  18
TORSDOF 9
