REMARK  Name = ZINC66908359
REMARK  8 active torsions:
REMARK  status: ('A' for Active; 'I' for Inactive)
REMARK    1  A    between atoms: C_1  and  C_2
REMARK    2  A    between atoms: C_2  and  C_28
REMARK    3  A    between atoms: C_4  and  N_10
REMARK    4  A    between atoms: C_6  and  C_8
REMARK    5  A    between atoms: C_6  and  C_9
REMARK    6  A    between atoms: C_16  and  N_19
REMARK    7  A    between atoms: C_20  and  C_22
REMARK    8  A    between atoms: C_22  and  C_23
REMARK                            x       y       z     vdW  Elec       q    Type
REMARK                         _______ _______ _______ _____ _____    ______ ____
ROOT
ATOM      1  N   UNL     1      -3.540  -0.921   1.006  0.00  0.00    -0.296 N 
ATOM      2  C   UNL     1      -4.546  -0.473   1.784  0.00  0.00    +0.302 C 
ATOM      3  O   UNL     1      -4.316   0.318   2.678  0.00  0.00    -0.253 OA
ATOM      4  N   UNL     1      -5.805  -0.903   1.571  0.00  0.00    -0.286 N 
ATOM      5  C   UNL     1      -6.082  -1.945   0.573  0.00  0.00    +0.111 C 
ATOM      6  C   UNL     1      -7.155  -1.431  -0.392  0.00  0.00    +0.041 C 
ATOM      7  C   UNL     1      -8.382  -0.985   0.407  0.00  0.00    +0.076 C 
ATOM      8  C   UNL     1      -7.992   0.158   1.348  0.00  0.00    +0.041 C 
ATOM      9  C   UNL     1      -6.927  -0.342   2.337  0.00  0.00    +0.111 C 
ATOM     10  H   UNL     1      -3.710  -1.607   0.342  0.00  0.00    +0.151 HD
ENDROOT
BRANCH   1  14
ATOM     11  C   UNL     1      -0.021   1.532   0.007  0.00  0.00    -0.010 C 
ATOM     12  C   UNL     1       0.001  -0.001  -0.001  0.00  0.00    -0.072 C 
ATOM     13  C   UNL     1      -1.420  -0.536  -0.147  0.00  0.00    +0.009 C 
ATOM     14  C   UNL     1      -2.188  -0.371   1.165  0.00  0.00    +0.072 C 
ATOM     15  C   UNL     1      -1.450  -1.153   2.251  0.00  0.00    +0.009 C 
ATOM     16  C   UNL     1      -0.029  -0.623   2.415  0.00  0.00    -0.072 C 
ATOM     17  N   UNL     1       0.696  -0.525   1.161  0.00  0.00    +0.386 N 
ATOM     18  C   UNL     1       0.732  -1.617   3.323  0.00  0.00    -0.010 C 
ATOM     19  C   UNL     1      -0.059   0.723   3.148  0.00  0.00    -0.010 C 
ATOM     20  C   UNL     1       0.789  -0.436  -1.258  0.00  0.00    -0.010 C 
ATOM     21  H   UNL     1       1.056  -1.456   0.925  0.00  0.00    -0.084 HD
ATOM     22  H   UNL     1       1.533   0.045   1.318  0.00  0.00    -0.084 HD
ENDBRANCH   1  14
BRANCH   7  23
ATOM     23  N   UNL     1      -9.423  -0.523  -0.514  0.00  0.00    -0.312 N 
ATOM     24  C   UNL     1     -10.718  -0.559  -0.141  0.00  0.00    +0.214 C 
ATOM     25  O   UNL     1     -11.021  -0.973   0.958  0.00  0.00    -0.276 OA
ATOM     26  H   UNL     1      -9.181  -0.192  -1.393  0.00  0.00    +0.149 HD
BRANCH  24  27
ATOM     27  C   UNL     1     -11.789  -0.085  -1.089  0.00  0.00    +0.099 C 
BRANCH  27  28
ATOM     28  C   UNL     1     -13.159  -0.231  -0.424  0.00  0.00    -0.002 C 
ATOM     29  C   UNL     1     -13.503  -1.724  -0.243  0.00  0.00    +0.004 C 
ATOM     30  C   UNL     1     -15.026  -1.798  -0.511  0.00  0.00    +0.000 C 
ATOM     31  C   UNL     1     -15.220  -0.787  -1.669  0.00  0.00    +0.000 C 
ATOM     32  C   UNL     1     -14.251   0.365  -1.330  0.00  0.00    +0.004 C 
ENDBRANCH  27  28
ENDBRANCH  24  27
ENDBRANCH   7  23
TORSDOF 4
