REMARK  Name = ZINC53124464
REMARK  15 active torsions:
REMARK  status: ('A' for Active; 'I' for Inactive)
REMARK    1  A    between atoms: C_1  and  C_2
REMARK    2  A    between atoms: C_2  and  C_4
REMARK    3  A    between atoms: C_2  and  N_16
REMARK    4  A    between atoms: C_7  and  N_10
REMARK    5  A    between atoms: C_11  and  C_13
REMARK    6  A    between atoms: C_17  and  C_19
REMARK    7  A    between atoms: C_19  and  N_20
REMARK    8  A    between atoms: N_20  and  C_21
REMARK    9  A    between atoms: C_21  and  C_22
REMARK   10  A    between atoms: C_21  and  C_23
REMARK   11  A    between atoms: C_21  and  C_24
REMARK   12  A    between atoms: C_24  and  C_25
REMARK   13  A    between atoms: C_25  and  C_26
REMARK   14  A    between atoms: C_25  and  C_27
REMARK   15  A    between atoms: C_25  and  C_28
REMARK                            x       y       z     vdW  Elec       q    Type
REMARK                         _______ _______ _______ _____ _____    ______ ____
ROOT
ATOM      1  N   UNL     1       1.680   0.769   0.915  0.00  0.00    -0.310 N 
ATOM      2  C   UNL     1       2.874   0.145   0.885  0.00  0.00    +0.196 C 
ATOM      3  O   UNL     1       3.531   0.143  -0.134  0.00  0.00    -0.278 OA
ATOM      4  H   UNL     1       1.154   0.771   1.730  0.00  0.00    +0.149 HD
ENDROOT
BRANCH   1   6
ATOM      5  C   UNL     1       1.749   2.861  -0.350  0.00  0.00    +0.033 C 
ATOM      6  C   UNL     1       1.175   1.444  -0.283  0.00  0.00    +0.100 C 
BRANCH   6   7
ATOM      7  C   UNL     1      -0.329   1.513  -0.225  0.00  0.00    -0.027 A 
ATOM      8  C   UNL     1      -0.961   1.795   0.972  0.00  0.00    +0.007 A 
ATOM      9  C   UNL     1      -2.340   1.859   1.028  0.00  0.00    +0.023 A 
ATOM     10  C   UNL     1      -3.091   1.641  -0.119  0.00  0.00    +0.033 A 
ATOM     11  C   UNL     1      -2.453   1.359  -1.320  0.00  0.00    +0.023 A 
ATOM     12  C   UNL     1      -1.074   1.301  -1.371  0.00  0.00    +0.007 A 
BRANCH  10  13
ATOM     13  N   UNL     1      -4.488   1.704  -0.065  0.00  0.00    -0.285 N 
ATOM     14  C   UNL     1      -5.091   2.626   0.711  0.00  0.00    +0.220 C 
ATOM     15  O   UNL     1      -4.427   3.464   1.284  0.00  0.00    -0.275 OA
ATOM     16  H   UNL     1      -5.022   1.085  -0.587  0.00  0.00    +0.155 HD
BRANCH  14  17
ATOM     17  C   UNL     1      -6.590   2.615   0.868  0.00  0.00    +0.075 C 
ATOM     18  C   UNL     1      -7.373   3.772   0.243  0.00  0.00    +0.013 C 
ATOM     19  C   UNL     1      -7.214   3.688   1.763  0.00  0.00    +0.013 C 
ENDBRANCH  14  17
ENDBRANCH  10  13
ENDBRANCH   6   7
ENDBRANCH   1   6
BRANCH   2  20
ATOM     20  C   UNL     1       3.393  -0.549   2.118  0.00  0.00    +0.016 C 
BRANCH  20  21
ATOM     21  N   UNL     1       4.703  -1.147   1.828  0.00  0.00    +0.388 N 
ATOM     22  H   UNL     1       4.609  -1.816   1.079  0.00  0.00    -0.084 HD
ATOM     23  H   UNL     1       5.349  -0.422   1.553  0.00  0.00    -0.084 HD
BRANCH  21  24
ATOM     24  C   UNL     1       5.209  -1.824   3.030  0.00  0.00    -0.073 C 
ATOM     25  C   UNL     1       5.175  -0.855   4.214  0.00  0.00    -0.010 C 
ATOM     26  C   UNL     1       4.330  -3.038   3.340  0.00  0.00    -0.010 C 
BRANCH  24  27
ATOM     27  C   UNL     1       6.648  -2.284   2.789  0.00  0.00    -0.007 C 
BRANCH  27  28
ATOM     28  C   UNL     1       6.760  -2.896   1.391  0.00  0.00    -0.039 C 
ATOM     29  C   UNL     1       6.785  -1.779   0.346  0.00  0.00    +0.010 C 
ATOM     30  C   UNL     1       8.049  -3.714   1.294  0.00  0.00    +0.010 C 
ATOM     31  C   UNL     1       5.558  -3.807   1.135  0.00  0.00    +0.010 C 
ENDBRANCH  27  28
ENDBRANCH  24  27
ENDBRANCH  21  24
ENDBRANCH  20  21
ENDBRANCH   2  20
TORSDOF 9
