REMARK  Name = ZINC02955695
REMARK  8 active torsions:
REMARK  status: ('A' for Active; 'I' for Inactive)
REMARK    1  A    between atoms: C_1  and  C_2
REMARK    2  A    between atoms: C_5  and  C_32
REMARK    3  A    between atoms: C_6  and  N_8
REMARK    4  A    between atoms: C_10  and  C_22
REMARK    5  A    between atoms: C_13  and  C_20
REMARK    6  A    between atoms: C_16  and  C_19
REMARK    7  A    between atoms: C_20  and  O_21
REMARK    8  A    between atoms: N_24  and  C_25
REMARK                            x       y       z     vdW  Elec       q    Type
REMARK                         _______ _______ _______ _____ _____    ______ ____
ROOT
ATOM      1  N   UNL     1      -0.296  -2.666   2.310  0.00  0.00    -0.325 N 
ATOM      2  C   UNL     1       0.125  -2.147   3.442  0.00  0.00    +0.212 A 
ATOM      3  C   UNL     1       0.643  -3.008   4.524  0.00  0.00    +0.098 A 
ATOM      4  C   UNL     1       1.548  -2.447   5.398  0.00  0.00    +0.030 A 
ATOM      5  C   UNL     1       1.913  -1.046   5.179  0.00  0.00    +0.027 A 
ATOM      6  C   UNL     1       3.002  -0.457   5.834  0.00  0.00    +0.007 A 
ATOM      7  C   UNL     1       3.287   0.868   5.574  0.00  0.00    +0.117 A 
ATOM      8  N   UNL     1       2.556   1.572   4.729  0.00  0.00    -0.256 NA
ATOM      9  C   UNL     1       1.523   1.063   4.090  0.00  0.00    +0.081 A 
ATOM     10  C   UNL     1       1.158  -0.261   4.288  0.00  0.00    +0.159 A 
ATOM     11  O   UNL     1       0.102  -0.805   3.645  0.00  0.00    -0.437 OA
ATOM     12  C   UNL     1       0.732   1.924   3.139  0.00  0.00    +0.069 C 
ATOM     13  H   UNL     1      -0.199  -3.617   2.146  0.00  0.00    +0.169 HD
ENDROOT
BRANCH   1  19
ATOM     14  C   UNL     1      -3.615   0.733   1.127  0.00  0.00    +0.044 C 
ATOM     15  C   UNL     1      -2.490  -0.198   0.752  0.00  0.00    -0.048 A 
ATOM     16  C   UNL     1      -2.038  -0.242  -0.555  0.00  0.00    +0.004 A 
ATOM     17  C   UNL     1      -1.007  -1.094  -0.908  0.00  0.00    +0.005 A 
ATOM     18  C   UNL     1      -0.421  -1.905   0.041  0.00  0.00    -0.027 A 
ATOM     19  C   UNL     1      -0.872  -1.865   1.363  0.00  0.00    +0.045 A 
ATOM     20  C   UNL     1      -1.911  -0.998   1.714  0.00  0.00    +0.029 A 
ATOM     21  C   UNL     1       0.702  -2.833  -0.346  0.00  0.00    +0.046 C 
ENDBRANCH   1  19
BRANCH   3  22
ATOM     22  C   UNL     1       0.210  -4.410   4.663  0.00  0.00    +0.253 C 
ATOM     23  O   UNL     1       0.738  -5.131   5.489  0.00  0.00    -0.270 OA
ATOM     24  N   UNL     1      -0.771  -4.894   3.876  0.00  0.00    -0.281 N 
ATOM     25  H   UNL     1      -1.198  -4.317   3.224  0.00  0.00    +0.155 HD
BRANCH  24  26
ATOM     26  C   UNL     1      -1.173  -6.228   3.999  0.00  0.00    +0.034 A 
ATOM     27  C   UNL     1      -1.132  -6.856   5.237  0.00  0.00    +0.024 A 
ATOM     28  C   UNL     1      -1.530  -8.173   5.355  0.00  0.00    +0.017 A 
ATOM     29  C   UNL     1      -1.967  -8.868   4.241  0.00  0.00    +0.018 A 
ATOM     30  C   UNL     1      -2.008  -8.245   3.006  0.00  0.00    +0.017 A 
ATOM     31  C   UNL     1      -1.618  -6.926   2.883  0.00  0.00    +0.024 A 
ATOM     32 BR   UNL     1      -2.510 -10.671   4.407  0.00  0.00    -0.050 Br
ENDBRANCH  24  26
ENDBRANCH   3  22
BRANCH   6  33
ATOM     33  C   UNL     1       3.842  -1.252   6.800  0.00  0.00    +0.193 C 
BRANCH  33  34
ATOM     34  O   UNL     1       4.879  -0.420   7.325  0.00  0.00    -0.390 OA
ATOM     35  H   UNL     1       5.460  -0.867   7.955  0.00  0.00    +0.210 HD
ENDBRANCH  33  34
ENDBRANCH   6  33
TORSDOF 5
