REMARK  Name = ZINC37021968
REMARK  4 active torsions:
REMARK  status: ('A' for Active; 'I' for Inactive)
REMARK    1  A    between atoms: C_4  and  C_11
REMARK    2  A    between atoms: C_11  and  S_12
REMARK    3  A    between atoms: S_12  and  C_13
REMARK    4  A    between atoms: C_19  and  N_21
REMARK                            x       y       z     vdW  Elec       q    Type
REMARK                         _______ _______ _______ _____ _____    ______ ____
ROOT
ATOM      1  C   UNL     1       3.720  -0.697  -0.043  0.00  0.00    +0.116 C 
ENDROOT
BRANCH   1   5
ATOM      2  C   UNL     1      -0.017   1.378   0.010  0.00  0.00    +0.029 A 
ATOM      3  C   UNL     1       1.171   2.088   0.002  0.00  0.00    +0.042 A 
ATOM      4  C   UNL     1       2.380   1.416  -0.014  0.00  0.00    +0.028 A 
ATOM      5  C   UNL     1       2.403   0.035  -0.024  0.00  0.00    +0.006 A 
ATOM      6  C   UNL     1       1.213  -0.679  -0.017  0.00  0.00    +0.133 A 
ATOM      7  C   UNL     1       0.002  -0.004   0.002  0.00  0.00    +0.022 A 
ATOM      8  C   UNL     1      -1.298  -0.768   0.019  0.00  0.00    +0.202 C 
ATOM      9  O   UNL     1      -1.054  -2.125  -0.363  0.00  0.00    -0.339 OA
ATOM     10  C   UNL     1       0.043  -2.718   0.342  0.00  0.00    +0.394 C 
ATOM     11  O   UNL     1       1.245  -2.039  -0.030  0.00  0.00    -0.466 OA
ATOM     12 CL   UNL     1       1.143   3.824   0.013  0.00  0.00    -0.084 Cl
ENDBRANCH   1   5
BRANCH   1  13
ATOM     13  S   UNL     1       4.267  -1.002   1.659  0.00  0.00    -0.083 S 
BRANCH  13  14
ATOM     14  C   UNL     1       5.799  -1.853   1.469  0.00  0.00    +0.171 A 
ATOM     15  N   UNL     1       6.488  -2.243   2.577  0.00  0.00    -0.302 N 
ATOM     16  H   UNL     1       6.133  -2.051   3.460  0.00  0.00    +0.171 HD
ATOM     17  C   UNL     1       7.662  -2.895   2.450  0.00  0.00    +0.254 A 
ATOM     18  O   UNL     1       8.286  -3.248   3.439  0.00  0.00    -0.268 OA
ATOM     19  C   UNL     1       8.152  -3.159   1.168  0.00  0.00    +0.113 A 
ATOM     20  C   UNL     1       7.412  -2.741   0.071  0.00  0.00    +0.124 A 
ATOM     21  N   UNL     1       6.252  -2.103   0.258  0.00  0.00    -0.209 NA
BRANCH  20  22
ATOM     22  N   UNL     1       7.870  -2.987  -1.208  0.00  0.00    -0.343 N 
ATOM     23  H   UNL     1       8.710  -3.453  -1.341  0.00  0.00    +0.144 HD
ATOM     24  H   UNL     1       7.351  -2.694  -1.974  0.00  0.00    +0.144 HD
ENDBRANCH  20  22
ENDBRANCH  13  14
ENDBRANCH   1  13
TORSDOF 4
