REMARK  Name = ZINC08211970
REMARK  6 active torsions:
REMARK  status: ('A' for Active; 'I' for Inactive)
REMARK    1  A    between atoms: C_1  and  C_2
REMARK    2  A    between atoms: C_2  and  C_4
REMARK    3  A    between atoms: C_2  and  N_65
REMARK    4  A    between atoms: N_9  and  C_10
REMARK    5  A    between atoms: N_22  and  C_25
REMARK    6  A    between atoms: C_28  and  O_31
REMARK                            x       y       z     vdW  Elec       q    Type
REMARK                         _______ _______ _______ _____ _____    ______ ____
ROOT
ATOM      1  C   UNL     1      -1.613   5.077   2.768  0.00  0.00    +0.207 C 
ATOM      2  O   UNL     1      -1.171   5.875   1.970  0.00  0.00    -0.277 OA
ATOM      3  N   UNL     1      -1.474   3.755   2.546  0.00  0.00    -0.242 N 
ATOM      4  C   UNL     1      -0.843   3.320   1.438  0.00  0.00    +0.306 C 
ATOM      5  O   UNL     1      -0.400   4.121   0.637  0.00  0.00    -0.252 OA
ATOM      6  N   UNL     1      -0.704   1.998   1.216  0.00  0.00    -0.294 N 
ATOM      7  H   UNL     1      -1.828   3.116   3.185  0.00  0.00    +0.159 HD
ATOM      8  H   UNL     1      -1.058   1.359   1.854  0.00  0.00    +0.151 HD
ENDROOT
BRANCH   6   9
ATOM      9  C   UNL     1      -0.019   1.526   0.010  0.00  0.00    +0.037 C 
ATOM     10  C   UNL     1       1.417   2.055  -0.000  0.00  0.00    +0.029 C 
ATOM     11  C   UNL     1       2.133   1.562  -1.259  0.00  0.00    -0.008 C 
ATOM     12  C   UNL     1       2.154   0.032  -1.268  0.00  0.00    +0.007 C 
ATOM     13  C   UNL     1       0.718  -0.497  -1.257  0.00  0.00    -0.008 C 
ATOM     14  C   UNL     1       0.002  -0.004   0.002  0.00  0.00    +0.029 C 
ATOM     15  C   UNL     1      -0.022   0.009  -2.496  0.00  0.00    +0.007 C 
ATOM     16  C   UNL     1      -0.043   1.539  -2.488  0.00  0.00    -0.008 C 
ATOM     17  C   UNL     1       1.393   2.069  -2.499  0.00  0.00    +0.007 C 
ATOM     18  C   UNL     1      -0.759   2.033  -1.229  0.00  0.00    +0.029 C 
ENDBRANCH   6   9
BRANCH   1  20
ATOM     19  C   UNL     1      -1.579   5.056   5.247  0.00  0.00    -0.004 C 
ATOM     20  C   UNL     1      -2.319   5.563   4.008  0.00  0.00    +0.017 C 
BRANCH  20  26
ATOM     21  C   UNL     1      -0.974   7.577   4.035  0.00  0.00    -0.059 C 
ATOM     22  C   UNL     1      -1.037   9.104   3.962  0.00  0.00    +0.086 C 
ATOM     23  N   UNL     1      -1.820   9.614   5.096  0.00  0.00    -0.333 N 
ATOM     24  C   UNL     1      -3.184   9.069   5.078  0.00  0.00    +0.086 C 
ATOM     25  C   UNL     1      -3.122   7.542   5.150  0.00  0.00    -0.059 C 
ATOM     26  N   UNL     1      -2.351   7.041   3.993  0.00  0.00    +0.389 N 
ATOM     27  H   UNL     1      -2.805   7.356   3.127  0.00  0.00    -0.081 HD
BRANCH  23  28
ATOM     28  C   UNL     1      -1.839  11.014   5.104  0.00  0.00    +0.030 A 
ATOM     29  C   UNL     1      -3.050  11.692   5.088  0.00  0.00    +0.026 A 
ATOM     30  C   UNL     1      -3.068  13.073   5.102  0.00  0.00    +0.047 A 
ATOM     31  C   UNL     1      -1.877  13.782   5.119  0.00  0.00    +0.117 A 
ATOM     32  C   UNL     1      -0.666  13.105   5.129  0.00  0.00    +0.047 A 
ATOM     33  C   UNL     1      -0.646  11.725   5.122  0.00  0.00    +0.026 A 
BRANCH  31  34
ATOM     34  O   UNL     1      -1.895  15.142   5.126  0.00  0.00    -0.507 OA
ATOM     35  H   UNL     1      -1.890  15.540   4.245  0.00  0.00    +0.292 HD
ENDBRANCH  31  34
ENDBRANCH  23  28
ENDBRANCH  20  26
ENDBRANCH   1  20
TORSDOF 5
