REMARK  Name = ZINC26571034
REMARK  10 active torsions:
REMARK  status: ('A' for Active; 'I' for Inactive)
REMARK    1  A    between atoms: C_1  and  C_2
REMARK    2  A    between atoms: C_2  and  CA_3
REMARK    3  A    between atoms: CA_3  and  C_5
REMARK    4  A    between atoms: CA_3  and  N_7
REMARK    5  A    between atoms: C_5  and  O_6
REMARK    6  A    between atoms: N_7  and  C_8
REMARK    7  A    between atoms: C_8  and  C_9
REMARK    8  A    between atoms: C_9  and  C_11
REMARK    9  A    between atoms: C_9  and  O_27
REMARK   10  A    between atoms: C_11  and  N_12
REMARK                            x       y       z     vdW  Elec       q    Type
REMARK                         _______ _______ _______ _____ _____    ______ ____
ROOT
ATOM      1  N   UNL     1       2.469   3.649  -0.002  0.00  0.00    -0.337 N 
ATOM      2  C   UNL     1       1.162   3.193   0.008  0.00  0.00    +0.050 A 
ATOM      3  C   UNL     1      -0.061   3.857   0.023  0.00  0.00    +0.027 A 
ATOM      4  C   UNL     1      -1.236   3.138   0.030  0.00  0.00    +0.017 A 
ATOM      5  C   UNL     1      -1.215   1.751   0.017  0.00  0.00    +0.019 A 
ATOM      6  C   UNL     1      -0.013   1.076   0.008  0.00  0.00    +0.026 A 
ATOM      7  C   UNL     1       1.183   1.791   0.000  0.00  0.00    +0.009 A 
ATOM      8  C   UNL     1       2.603   1.393  -0.015  0.00  0.00    +0.009 A 
ATOM      9  C   UNL     1       3.349   2.581  -0.016  0.00  0.00    +0.050 A 
ATOM     10  C   UNL     1       4.738   2.514  -0.030  0.00  0.00    +0.027 A 
ATOM     11  C   UNL     1       5.370   1.289  -0.042  0.00  0.00    +0.017 A 
ATOM     12  C   UNL     1       4.631   0.115  -0.042  0.00  0.00    +0.019 A 
ATOM     13  C   UNL     1       3.253   0.162  -0.029  0.00  0.00    +0.026 A 
ATOM     14 BR   UNL     1       5.517  -1.556  -0.060  0.00  0.00    -0.050 Br
ATOM     15 BR   UNL     1      -2.839   0.783   0.019  0.00  0.00    -0.050 Br
ENDROOT
BRANCH   1  16
ATOM     16  C   UNL     1       2.864   5.060   0.003  0.00  0.00    +0.151 C 
BRANCH  16  17
ATOM     17  C   UNL     1       2.988   5.559  -1.438  0.00  0.00    +0.117 C 
BRANCH  17  18
ATOM     18  O   UNL     1       4.056   4.870  -2.091  0.00  0.00    -0.392 OA
ATOM     19  H   UNL     1       4.023   3.775  -2.191  0.00  0.00    +0.210 HD
ENDBRANCH  17  18
BRANCH  17  20
ATOM     20  C   UNL     1       3.278   7.061  -1.434  0.00  0.00    -0.049 C 
BRANCH  20  21
ATOM     21  N   UNL     1       3.278   7.564  -2.815  0.00  0.00    +0.384 N 
ATOM     22  H1  UNL     1       2.292   7.368  -3.262  0.00  0.00    -0.085 HD
ATOM     23  H2  UNL     1       4.052   7.028  -3.385  0.00  0.00    -0.085 HD
BRANCH  21  24
ATOM     24  CA  UNL     1       3.554   9.006  -2.850  0.00  0.00    -0.046 C 
BRANCH  24  26
ATOM     25  C   UNL     1       5.516   8.701  -4.366  0.00  0.00    +0.002 C 
ATOM     26  C   UNL     1       4.153   9.378  -4.208  0.00  0.00    -0.017 C 
ENDBRANCH  24  26
BRANCH  24  27
ATOM     27  C   UNL     1       2.251   9.780  -2.639  0.00  0.00    +0.140 C 
BRANCH  27  28
ATOM     28  O   UNL     1       1.369   9.537  -3.737  0.00  0.00    -0.397 OA
ATOM     29  H   UNL     1       0.377  10.011  -3.761  0.00  0.00    +0.209 HD
ENDBRANCH  27  28
ENDBRANCH  24  27
ENDBRANCH  21  24
ENDBRANCH  20  21
ENDBRANCH  17  20
ENDBRANCH  16  17
ENDBRANCH   1  16
TORSDOF 9
