REMARK  Name = ZINC19850016
REMARK  8 active torsions:
REMARK  status: ('A' for Active; 'I' for Inactive)
REMARK    1  A    between atoms: C_5  and  C_7
REMARK    2  A    between atoms: C_7  and  N_8
REMARK    3  A    between atoms: N_11  and  C_14
REMARK    4  A    between atoms: C_14  and  C_15
REMARK    5  A    between atoms: N_17  and  N_18
REMARK    6  A    between atoms: C_19  and  C_20
REMARK    7  A    between atoms: C_23  and  O_27
REMARK    8  A    between atoms: C_25  and  O_26
REMARK                            x       y       z     vdW  Elec       q    Type
REMARK                         _______ _______ _______ _____ _____    ______ ____
ROOT
ATOM      1  C   UNL     1       5.066   4.081   4.712  0.00  0.00    +0.020 C 
ENDROOT
BRANCH   1   5
ATOM      2  N   UNL     1       7.378   3.515   8.202  0.00  0.00    -0.302 NA
ATOM      3  C   UNL     1       6.060   4.150   8.345  0.00  0.00    +0.066 C 
ATOM      4  C   UNL     1       5.206   3.827   7.116  0.00  0.00    -0.063 C 
ATOM      5  N   UNL     1       5.890   4.306   5.907  0.00  0.00    +0.387 N 
ATOM      6  C   UNL     1       7.208   3.671   5.765  0.00  0.00    -0.063 C 
ATOM      7  C   UNL     1       8.062   3.994   6.993  0.00  0.00    +0.066 C 
ATOM      8  H   UNL     1       6.044   5.390   6.011  0.00  0.00    -0.081 HD
BRANCH   2   9
ATOM      9  C   UNL     1       8.202   3.740   9.397  0.00  0.00    +0.120 C 
BRANCH   9  14
ATOM     10  C   UNL     1      11.892   3.445   8.656  0.00  0.00    +0.000 A 
ATOM     11  C   UNL     1      12.090   2.082   8.777  0.00  0.00    +0.001 A 
ATOM     12  C   UNL     1      11.031   1.255   9.097  0.00  0.00    +0.020 A 
ATOM     13  C   UNL     1       9.771   1.791   9.299  0.00  0.00    +0.045 A 
ATOM     14  C   UNL     1       9.573   3.155   9.179  0.00  0.00    -0.015 A 
ATOM     15  C   UNL     1      10.633   3.981   8.853  0.00  0.00    +0.006 A 
ATOM     16 CL   UNL     1       8.439   0.753   9.701  0.00  0.00    -0.083 Cl
ENDBRANCH   9  14
ENDBRANCH   2   9
ENDBRANCH   1   5
BRANCH   1  17
ATOM     17  C   UNL     1       5.680   4.797   3.537  0.00  0.00    +0.216 C 
ATOM     18  O   UNL     1       6.704   5.432   3.680  0.00  0.00    -0.276 OA
ATOM     19  N   UNL     1       5.092   4.732   2.326  0.00  0.00    -0.209 N 
ATOM     20  H   UNL     1       4.163   4.157   2.196  0.00  0.00    +0.177 HD
BRANCH  19  21
ATOM     21  N   UNL     1       5.662   5.398   1.233  0.00  0.00    -0.188 NA
ATOM     22  C   UNL     1       5.163   5.242   0.045  0.00  0.00    +0.142 C 
BRANCH  22  23
ATOM     23  C   UNL     1       4.138   4.211  -0.194  0.00  0.00    +0.036 A 
ATOM     24  C   UNL     1       4.097   3.065   0.605  0.00  0.00    +0.016 A 
ATOM     25  C   UNL     1       3.137   2.103   0.378  0.00  0.00    +0.046 A 
ATOM     26  C   UNL     1       2.208   2.268  -0.643  0.00  0.00    +0.120 A 
ATOM     27  C   UNL     1       2.244   3.400  -1.445  0.00  0.00    +0.091 A 
ATOM     28  C   UNL     1       3.201   4.375  -1.224  0.00  0.00    +0.129 A 
BRANCH  28  29
ATOM     29  O   UNL     1       3.234   5.486  -2.004  0.00  0.00    -0.506 OA
ATOM     30  H   UNL     1       2.498   5.613  -2.812  0.00  0.00    +0.292 HD
ENDBRANCH  28  29
BRANCH  26  31
ATOM     31  O   UNL     1       1.265   1.315  -0.859  0.00  0.00    -0.507 OA
ATOM     32  H   UNL     1       0.529   1.444  -1.667  0.00  0.00    +0.292 HD
ENDBRANCH  26  31
ENDBRANCH  22  23
ENDBRANCH  19  21
ENDBRANCH   1  17
TORSDOF 8
