REMARK  Name = ZINC37361451
REMARK  6 active torsions:
REMARK  status: ('A' for Active; 'I' for Inactive)
REMARK    1  A    between atoms: C_3  and  C_9
REMARK    2  A    between atoms: C_11  and  N_33
REMARK    3  A    between atoms: N_12  and  C_26
REMARK    4  A    between atoms: N_18  and  C_19
REMARK    5  A    between atoms: C_19  and  C_20
REMARK    6  A    between atoms: C_20  and  N_21
REMARK                            x       y       z     vdW  Elec       q    Type
REMARK                         _______ _______ _______ _____ _____    ______ ____
ROOT
ATOM      1  C   UNL     1       3.675   2.146  -0.273  0.00  0.00    +0.091 A 
ATOM      2  C   UNL     1       4.907   1.491  -0.049  0.00  0.00    +0.086 A 
ATOM      3  C   UNL     1       5.313   0.179   0.163  0.00  0.00    +0.131 A 
ATOM      4  N   UNL     1       6.652   0.189   0.316  0.00  0.00    -0.216 N 
ATOM      5  N   UNL     1       7.134   1.498   0.205  0.00  0.00    -0.144 NA
ATOM      6  C   UNL     1       6.128   2.316  -0.013  0.00  0.00    +0.189 A 
ATOM      7  N   UNL     1       5.996   3.644  -0.197  0.00  0.00    -0.193 NA
ATOM      8  C   UNL     1       4.806   4.173  -0.400  0.00  0.00    +0.218 A 
ATOM      9  N   UNL     1       3.684   3.462  -0.444  0.00  0.00    -0.214 NA
ATOM     10  N   UNL     1       4.721   5.541  -0.583  0.00  0.00    -0.315 N 
ATOM     11  H   UNL     1       3.858   5.957  -0.735  0.00  0.00    +0.149 HD
ENDROOT
BRANCH   1  14
ATOM     12  C   UNL     1       0.838  -0.110   0.715  0.00  0.00    +0.004 A 
ATOM     13  C   UNL     1       2.020   0.599   0.765  0.00  0.00    +0.013 A 
ATOM     14  C   UNL     1       2.408   1.383  -0.322  0.00  0.00    +0.039 A 
ATOM     15  C   UNL     1       1.595   1.444  -1.456  0.00  0.00    +0.168 A 
ATOM     16  C   UNL     1       0.411   0.728  -1.494  0.00  0.00    +0.159 A 
ATOM     17  C   UNL     1       0.035  -0.047  -0.410  0.00  0.00    +0.041 A 
ATOM     18  F   UNL     1      -0.378   0.784  -2.589  0.00  0.00    -0.202 F 
ATOM     19  F   UNL     1       1.963   2.201  -2.514  0.00  0.00    -0.202 F 
ENDBRANCH   1  14
BRANCH   4  20
ATOM     20  C   UNL     1       7.443  -0.943   0.550  0.00  0.00    +0.068 A 
ATOM     21  C   UNL     1       6.951  -1.988   1.320  0.00  0.00    +0.030 A 
ATOM     22  C   UNL     1       7.732  -3.103   1.550  0.00  0.00    +0.040 A 
ATOM     23  C   UNL     1       9.006  -3.179   1.012  0.00  0.00    +0.124 A 
ATOM     24  C   UNL     1       9.499  -2.138   0.244  0.00  0.00    +0.040 A 
ATOM     25  C   UNL     1       8.719  -1.024   0.007  0.00  0.00    +0.030 A 
ATOM     26  F   UNL     1       9.770  -4.271   1.238  0.00  0.00    -0.205 F 
ENDBRANCH   4  20
BRANCH   3  27
ATOM     27  N   UNL     1       4.493  -0.933   0.210  0.00  0.00    -0.342 N 
ATOM     28  H   UNL     1       3.535  -0.834   0.099  0.00  0.00    +0.144 HD
ATOM     29  H   UNL     1       4.876  -1.812   0.353  0.00  0.00    +0.144 HD
ENDBRANCH   3  27
BRANCH  10  30
ATOM     30  C   UNL     1       5.934   6.362  -0.547  0.00  0.00    +0.086 C 
BRANCH  30  31
ATOM     31  C   UNL     1       5.564   7.829  -0.775  0.00  0.00    -0.060 C 
BRANCH  31  32
ATOM     32  N   UNL     1       6.781   8.652  -0.739  0.00  0.00    +0.381 N 
ATOM     33  C   UNL     1       7.631   8.361  -1.921  0.00  0.00    -0.079 C 
ATOM     34  C   UNL     1       8.513   9.629  -2.044  0.00  0.00    -0.020 C 
ATOM     35  C   UNL     1       7.539  10.766  -1.661  0.00  0.00    -0.020 C 
ATOM     36  C   UNL     1       6.430  10.085  -0.838  0.00  0.00    -0.079 C 
ATOM     37  H   UNL     1       7.295   8.477   0.112  0.00  0.00    -0.082 HD
ENDBRANCH  31  32
ENDBRANCH  30  31
ENDBRANCH  10  30
TORSDOF 6
