REMARK  Name = ZINC04454753
REMARK  5 active torsions:
REMARK  status: ('A' for Active; 'I' for Inactive)
REMARK    1  A    between atoms: C_2  and  C_11
REMARK    2  A    between atoms: C_13  and  C_20
REMARK    3  A    between atoms: C_15  and  C_16
REMARK    4  A    between atoms: C_15  and  C_18
REMARK    5  A    between atoms: C_20  and  C_22
REMARK                            x       y       z     vdW  Elec       q    Type
REMARK                         _______ _______ _______ _____ _____    ______ ____
ROOT
ATOM      1  C   UNL     1      -1.294  -0.774   0.010  0.00  0.00    +0.068 C 
ATOM      2  C   UNL     1      -1.492  -1.811   1.117  0.00  0.00    +0.100 C 
ATOM      3  C   UNL     1      -1.231  -2.266  -0.321  0.00  0.00    +0.160 C 
ENDROOT
BRANCH   1   5
ATOM      4  C   UNL     1       0.982  -0.292   0.934  0.00  0.00    +0.055 A 
ATOM      5  C   UNL     1       0.002  -0.004   0.002  0.00  0.00    -0.019 A 
ATOM      6  C   UNL     1       0.209   0.989  -0.938  0.00  0.00    +0.048 A 
ATOM      7  C   UNL     1       1.397   1.698  -0.949  0.00  0.00    +0.069 A 
ATOM      8  C   UNL     1       2.382   1.414  -0.018  0.00  0.00    +0.168 A 
ATOM      9  C   UNL     1       2.173   0.414   0.929  0.00  0.00    +0.167 A 
ATOM     10  O   UNL     1       3.280   0.328   1.724  0.00  0.00    -0.453 OA
ATOM     11  C   UNL     1       4.000   1.557   1.515  0.00  0.00    +0.466 C 
ATOM     12  O   UNL     1       3.619   1.955   0.184  0.00  0.00    -0.453 OA
ATOM     13 CL   UNL     1      -1.022   1.343  -2.110  0.00  0.00    -0.083 Cl
ENDBRANCH   1   5
BRANCH   3  14
ATOM     14  C   UNL     1      -2.360  -2.845  -1.066  0.00  0.00    +0.086 C 
ATOM     15  N   UNL     1      -3.232  -3.292  -1.641  0.00  0.00    -0.195 NA
ENDBRANCH   3  14
BRANCH   3  16
ATOM     16  C   UNL     1       0.091  -2.840  -0.624  0.00  0.00    +0.086 C 
ATOM     17  N   UNL     1       1.110  -3.283  -0.857  0.00  0.00    -0.195 NA
ENDBRANCH   3  16
BRANCH   2  18
ATOM     18  C   UNL     1      -2.886  -1.990   1.661  0.00  0.00    +0.146 C 
ATOM     19  O   UNL     1      -3.841  -1.793   0.950  0.00  0.00    -0.296 OA
BRANCH  18  20
ATOM     20  C   UNL     1      -3.087  -2.416   3.093  0.00  0.00    +0.030 C 
ATOM     21  C   UNL     1      -2.424  -3.777   3.318  0.00  0.00    +0.018 C 
ATOM     22  C   UNL     1      -2.629  -4.209   4.771  0.00  0.00    -0.010 C 
ATOM     23  C   UNL     1      -4.126  -4.316   5.066  0.00  0.00    +0.007 C 
ATOM     24  C   UNL     1      -4.789  -2.955   4.841  0.00  0.00    -0.010 C 
ATOM     25  C   UNL     1      -4.584  -2.523   3.388  0.00  0.00    +0.018 C 
ATOM     26  C   UNL     1      -4.158  -1.920   5.774  0.00  0.00    +0.007 C 
ATOM     27  C   UNL     1      -2.660  -1.813   5.480  0.00  0.00    -0.010 C 
ATOM     28  C   UNL     1      -1.998  -3.174   5.705  0.00  0.00    +0.007 C 
ATOM     29  C   UNL     1      -2.456  -1.381   4.026  0.00  0.00    +0.018 C 
ENDBRANCH  18  20
ENDBRANCH   2  18
TORSDOF 5
