REMARK  Name = ZINC53124828
REMARK  11 active torsions:
REMARK  status: ('A' for Active; 'I' for Inactive)
REMARK    1  A    between atoms: C_1  and  C_2
REMARK    2  A    between atoms: C_2  and  C_4
REMARK    3  A    between atoms: C_2  and  N_11
REMARK    4  A    between atoms: N_11  and  C_12
REMARK    5  A    between atoms: N_11  and  C_13
REMARK    6  A    between atoms: C_13  and  C_14
REMARK    7  A    between atoms: N_16  and  C_17
REMARK    8  A    between atoms: C_17  and  C_18
REMARK    9  A    between atoms: C_18  and  C_19
REMARK   10  A    between atoms: C_22  and  S_25
REMARK   11  A    between atoms: S_25  and  N_28
REMARK                            x       y       z     vdW  Elec       q    Type
REMARK                         _______ _______ _______ _____ _____    ______ ____
ROOT
ATOM      1  C   UNL     1       1.520  -2.432  -2.389  0.00  0.00    +0.196 C 
ATOM      2  O   UNL     1       2.031  -1.632  -3.145  0.00  0.00    -0.278 OA
ATOM      3  N   UNL     1       1.677  -3.753  -2.599  0.00  0.00    -0.317 N 
ATOM      4  H   UNL     1       1.269  -4.393  -1.995  0.00  0.00    +0.149 HD
ENDROOT
BRANCH   1   5
ATOM      5  C   UNL     1       0.710  -1.947  -1.215  0.00  0.00    +0.019 C 
BRANCH   5   6
ATOM      6  N   UNL     1       0.690  -0.478  -1.207  0.00  0.00    +0.388 N 
ATOM      7  C   UNL     1      -0.021   0.009  -2.397  0.00  0.00    -0.095 C 
ATOM      8  H   UNL     1       1.636  -0.129  -1.214  0.00  0.00    -0.081 HD
BRANCH   6  10
ATOM      9  C   UNL     1      -0.019   1.526   0.010  0.00  0.00    -0.008 C 
ATOM     10  C   UNL     1       0.002  -0.004   0.002  0.00  0.00    -0.038 C 
BRANCH  10  11
ATOM     11  C   UNL     1       0.731  -0.503   1.223  0.00  0.00    -0.026 A 
ATOM     12  C   UNL     1       2.077  -0.808   1.148  0.00  0.00    +0.005 A 
ATOM     13  C   UNL     1       2.746  -1.266   2.268  0.00  0.00    +0.000 A 
ATOM     14  C   UNL     1       2.069  -1.420   3.464  0.00  0.00    +0.003 A 
ATOM     15  C   UNL     1       0.724  -1.115   3.541  0.00  0.00    +0.038 A 
ATOM     16  C   UNL     1       0.054  -0.651   2.421  0.00  0.00    +0.125 A 
ATOM     17  F   UNL     1      -1.261  -0.349   2.497  0.00  0.00    -0.205 F 
ENDBRANCH  10  11
ENDBRANCH   6  10
ENDBRANCH   5   6
ENDBRANCH   1   5
BRANCH   3  18
ATOM     18  C   UNL     1       2.465  -4.225  -3.741  0.00  0.00    +0.109 C 
BRANCH  18  19
ATOM     19  C   UNL     1       2.486  -5.755  -3.749  0.00  0.00    +0.054 C 
BRANCH  19  20
ATOM     20  C   UNL     1       3.297  -6.240  -4.923  0.00  0.00    -0.046 A 
ATOM     21  C   UNL     1       2.682  -6.466  -6.141  0.00  0.00    +0.005 A 
ATOM     22  C   UNL     1       3.426  -6.911  -7.218  0.00  0.00    +0.029 A 
ATOM     23  C   UNL     1       4.784  -7.129  -7.078  0.00  0.00    +0.105 A 
ATOM     24  C   UNL     1       5.398  -6.901  -5.861  0.00  0.00    +0.029 A 
ATOM     25  C   UNL     1       4.655  -6.452  -4.785  0.00  0.00    +0.005 A 
BRANCH  23  26
ATOM     26  S   UNL     1       5.731  -7.697  -8.451  0.00  0.00    +0.056 S 
ATOM     27  O   UNL     1       6.877  -8.344  -7.913  0.00  0.00    -0.153 OA
ATOM     28  O   UNL     1       4.825  -8.355  -9.325  0.00  0.00    -0.153 OA
BRANCH  26  29
ATOM     29  N   UNL     1       6.278  -6.357  -9.256  0.00  0.00    -0.204 NA
ATOM     30  H   UNL     1       6.052  -5.471  -8.933  0.00  0.00    +0.144 HD
ATOM     31  H   UNL     1       6.825  -6.459 -10.050  0.00  0.00    +0.144 HD
ENDBRANCH  26  29
ENDBRANCH  23  26
ENDBRANCH  19  20
ENDBRANCH  18  19
ENDBRANCH   3  18
TORSDOF 9
