REMARK  Name = ZINC40118782
REMARK  11 active torsions:
REMARK  status: ('A' for Active; 'I' for Inactive)
REMARK    1  A    between atoms: C_1  and  C_2
REMARK    2  A    between atoms: C_2  and  C_3
REMARK    3  A    between atoms: C_2  and  C_4
REMARK    4  A    between atoms: C_2  and  C_5
REMARK    5  A    between atoms: C_5  and  C_7
REMARK    6  A    between atoms: C_5  and  N_18
REMARK    7  A    between atoms: C_7  and  N_8
REMARK    8  A    between atoms: N_18  and  S_19
REMARK    9  A    between atoms: S_19  and  C_22
REMARK   10  A    between atoms: C_24  and  C_28
REMARK   11  A    between atoms: N_25  and  C_27
REMARK                            x       y       z     vdW  Elec       q    Type
REMARK                         _______ _______ _______ _____ _____    ______ ____
ROOT
ATOM      1  C   UNL     1       0.811  -0.005  -0.897  0.00  0.00    +0.065 C 
ENDROOT
BRANCH   1   3
ATOM      2  C   UNL     1       0.635   1.955   0.642  0.00  0.00    +0.012 C 
ATOM      3  C   UNL     1       0.325   0.466   0.475  0.00  0.00    -0.022 C 
ATOM      4  C   UNL     1       1.039  -0.330   1.569  0.00  0.00    +0.012 C 
ATOM      5  C   UNL     1      -1.184   0.244   0.585  0.00  0.00    +0.012 C 
ENDBRANCH   1   3
BRANCH   1   6
ATOM      6  N   UNL     1       0.196   0.817  -1.942  0.00  0.00    -0.188 NA
ATOM      7  H   UNL     1       0.335   1.778  -1.948  0.00  0.00    +0.148 HD
BRANCH   6   8
ATOM      8  S   UNL     1      -0.735   0.108  -3.114  0.00  0.00    +0.060 S 
ATOM      9  O   UNL     1      -1.206   1.157  -3.948  0.00  0.00    -0.153 OA
ATOM     10  O   UNL     1       0.014  -0.989  -3.619  0.00  0.00    -0.153 OA
BRANCH   8  11
ATOM     11  C   UNL     1      -2.149  -0.573  -2.314  0.00  0.00    +0.123 A 
ATOM     12  C   UNL     1      -2.236  -1.844  -1.737  0.00  0.00    +0.061 A 
ATOM     13  C   UNL     1      -3.510  -1.970  -1.226  0.00  0.00    +0.106 A 
ATOM     14  N   UNL     1      -4.181  -0.797  -1.488  0.00  0.00    -0.344 N 
ATOM     15  C   UNL     1      -3.343   0.043  -2.143  0.00  0.00    +0.114 A 
ATOM     16  C   UNL     1      -5.567  -0.504  -1.117  0.00  0.00    +0.149 C 
BRANCH  13  17
ATOM     17  C   UNL     1      -4.053  -3.142  -0.529  0.00  0.00    +0.258 C 
ATOM     18  O   UNL     1      -5.224  -3.167  -0.202  0.00  0.00    -0.269 OA
ATOM     19  N   UNL     1      -3.253  -4.191  -0.251  0.00  0.00    -0.324 N 
ATOM     20  H   UNL     1      -2.304  -4.143  -0.447  0.00  0.00    +0.145 HD
ATOM     21  H   UNL     1      -3.627  -4.994   0.144  0.00  0.00    +0.145 HD
ENDBRANCH  13  17
ENDBRANCH   8  11
ENDBRANCH   6   8
ENDBRANCH   1   6
BRANCH   1  22
ATOM     22  C   UNL     1       2.334   0.129  -0.973  0.00  0.00    -0.057 C 
BRANCH  22  23
ATOM     23  N   UNL     1       2.794  -0.264  -2.311  0.00  0.00    +0.384 N 
ATOM     24  C   UNL     1       2.583  -1.707  -2.501  0.00  0.00    -0.074 C 
ATOM     25  C   UNL     1       2.775  -2.038  -3.982  0.00  0.00    +0.017 C 
ATOM     26  C   UNL     1       4.083  -1.468  -4.466  0.00  0.00    -0.048 A 
ATOM     27  C   UNL     1       4.611  -1.936  -5.659  0.00  0.00    +0.004 A 
ATOM     28  C   UNL     1       5.806  -1.435  -6.136  0.00  0.00    +0.000 A 
ATOM     29  C   UNL     1       6.479  -0.462  -5.420  0.00  0.00    +0.000 A 
ATOM     30  C   UNL     1       5.954   0.003  -4.231  0.00  0.00    +0.002 A 
ATOM     31  C   UNL     1       4.755  -0.500  -3.750  0.00  0.00    -0.061 A 
ATOM     32  C   UNL     1       4.224   0.031  -2.444  0.00  0.00    -0.043 C 
ATOM     33  H   UNL     1       2.277   0.249  -3.010  0.00  0.00    -0.081 HD
ENDBRANCH  22  23
ENDBRANCH   1  22
TORSDOF 7
