REMARK  Name = ZINC67298335
REMARK  3 active torsions:
REMARK  status: ('A' for Active; 'I' for Inactive)
REMARK    1  A    between atoms: C_3  and  O_23
REMARK    2  A    between atoms: C_8  and  C_20
REMARK    3  A    between atoms: N_10  and  C_11
REMARK                            x       y       z     vdW  Elec       q    Type
REMARK                         _______ _______ _______ _____ _____    ______ ____
ROOT
ATOM      1  C   UNL     1      -0.182   1.307   1.480  0.00  0.00    +0.015 A 
ATOM      2  C   UNL     1       0.941   1.926   1.947  0.00  0.00    +0.046 A 
ATOM      3  C   UNL     1       2.155   1.245   1.994  0.00  0.00    +0.120 A 
ATOM      4  C   UNL     1       2.243  -0.068   1.553  0.00  0.00    +0.092 A 
ATOM      5  C   UNL     1       1.115  -0.709   1.070  0.00  0.00    +0.141 A 
ATOM      6  C   UNL     1      -0.118  -0.028   1.053  0.00  0.00    +0.018 A 
ATOM      7  C   UNL     1      -1.286  -0.693   0.599  0.00  0.00    +0.030 A 
ATOM      8  C   UNL     1      -1.217  -2.062   0.382  0.00  0.00    +0.097 A 
ATOM      9  C   UNL     1       0.066  -2.731   0.673  0.00  0.00    +0.212 A 
ATOM     10  N   UNL     1       0.112  -4.008   0.983  0.00  0.00    -0.323 N 
ATOM     11  O   UNL     1       1.197  -1.981   0.609  0.00  0.00    -0.438 OA
ATOM     12  H   UNL     1      -0.708  -4.522   1.047  0.00  0.00    +0.169 HD
ENDROOT
BRANCH  10  13
ATOM     13  C   UNL     1       1.318  -4.612   1.216  0.00  0.00    +0.080 A 
ATOM     14  C   UNL     1       2.361  -4.473   0.298  0.00  0.00    +0.067 A 
ATOM     15  C   UNL     1       3.575  -5.086   0.539  0.00  0.00    +0.126 A 
ATOM     16  C   UNL     1       3.760  -5.837   1.688  0.00  0.00    +0.041 A 
ATOM     17  C   UNL     1       2.730  -5.980   2.602  0.00  0.00    +0.043 A 
ATOM     18  C   UNL     1       1.513  -5.368   2.377  0.00  0.00    +0.147 A 
ATOM     19  F   UNL     1       0.511  -5.503   3.273  0.00  0.00    -0.203 F 
ATOM     20  F   UNL     1       4.585  -4.952  -0.348  0.00  0.00    -0.205 F 
ENDBRANCH  10  13
BRANCH   8  21
ATOM     21  C   UNL     1      -2.378  -2.816  -0.119  0.00  0.00    +0.247 C 
ATOM     22  O   UNL     1      -2.262  -3.994  -0.400  0.00  0.00    -0.270 OA
ATOM     23  N   UNL     1      -3.568  -2.202  -0.265  0.00  0.00    -0.325 N 
ATOM     24  H   UNL     1      -3.679  -1.283   0.025  0.00  0.00    +0.145 HD
ATOM     25  H   UNL     1      -4.315  -2.679  -0.661  0.00  0.00    +0.145 HD
ENDBRANCH   8  21
BRANCH   3  26
ATOM     26  O   UNL     1       3.260   1.870   2.473  0.00  0.00    -0.507 OA
ATOM     27  H   UNL     1       3.389   1.765   3.426  0.00  0.00    +0.292 HD
ENDBRANCH   3  26
TORSDOF 3
