REMARK  Name = ZINC20827004
REMARK  10 active torsions:
REMARK  status: ('A' for Active; 'I' for Inactive)
REMARK    1  A    between atoms: C_4  and  C_7
REMARK    2  A    between atoms: C_7  and  C_8
REMARK    3  A    between atoms: C_8  and  C_30
REMARK    4  A    between atoms: N_9  and  N_10
REMARK    5  A    between atoms: C_14  and  S_17
REMARK    6  A    between atoms: N_15  and  N_16
REMARK    7  A    between atoms: S_17  and  C_18
REMARK    8  A    between atoms: C_18  and  C_19
REMARK    9  A    between atoms: N_21  and  C_22
REMARK   10  A    between atoms: C_30  and  C_31
REMARK                            x       y       z     vdW  Elec       q    Type
REMARK                         _______ _______ _______ _____ _____    ______ ____
ROOT
ATOM      1  N   UNL     1      -1.609  -0.268  -5.851  0.00  0.00    -0.204 N 
ATOM      2  C   UNL     1      -2.456   0.232  -4.871  0.00  0.00    +0.254 A 
ATOM      3  N   UNL     1      -2.669   1.498  -4.610  0.00  0.00    -0.109 NA
ATOM      4  N   UNL     1      -3.582   1.574  -3.550  0.00  0.00    -0.119 NA
ATOM      5  C   UNL     1      -3.902   0.351  -3.202  0.00  0.00    +0.210 A 
ATOM      6  N   UNL     1      -3.216  -0.511  -4.011  0.00  0.00    -0.211 N 
ATOM      7  H   UNL     1      -1.507  -1.355  -5.987  0.00  0.00    +0.177 HD
ENDROOT
BRANCH   6   8
ATOM      8  N   UNL     1      -3.276  -1.875  -3.965  0.00  0.00    -0.294 N 
ATOM      9  H   UNL     1      -3.925  -2.372  -3.229  0.00  0.00    +0.163 HD
ATOM     10  H   UNL     1      -2.675  -2.475  -4.664  0.00  0.00    +0.163 HD
ENDBRANCH   6   8
BRANCH   1  12
ATOM     11  C   UNL     1      -0.104   0.150  -7.571  0.00  0.00    +0.045 C 
ATOM     12  N   UNL     1      -0.885   0.611  -6.667  0.00  0.00    -0.188 NA
BRANCH  11  13
ATOM     13  C   UNL     1       0.036  -1.339  -7.757  0.00  0.00    +0.088 C 
BRANCH  13  17
ATOM     14  C   UNL     1      -2.867  -2.700 -10.579  0.00  0.00    +0.000 A 
ATOM     15  C   UNL     1      -1.619  -2.295 -11.013  0.00  0.00    +0.000 A 
ATOM     16  C   UNL     1      -0.679  -1.854 -10.100  0.00  0.00    +0.004 A 
ATOM     17  C   UNL     1      -0.988  -1.819  -8.753  0.00  0.00    -0.042 A 
ATOM     18  C   UNL     1      -2.235  -2.230  -8.319  0.00  0.00    +0.004 A 
ATOM     19  C   UNL     1      -3.176  -2.666  -9.232  0.00  0.00    +0.000 A 
ENDBRANCH  13  17
ENDBRANCH  11  13
BRANCH  11  20
ATOM     20  C   UNL     1       0.674   1.096  -8.448  0.00  0.00    +0.088 C 
BRANCH  20  21
ATOM     21  C   UNL     1       2.148   0.930  -8.182  0.00  0.00    -0.042 A 
ATOM     22  C   UNL     1       2.766   1.696  -7.212  0.00  0.00    +0.004 A 
ATOM     23  C   UNL     1       4.117   1.540  -6.965  0.00  0.00    +0.000 A 
ATOM     24  C   UNL     1       4.852   0.625  -7.694  0.00  0.00    +0.000 A 
ATOM     25  C   UNL     1       4.235  -0.138  -8.669  0.00  0.00    +0.000 A 
ATOM     26  C   UNL     1       2.883   0.015  -8.912  0.00  0.00    +0.004 A 
ENDBRANCH  20  21
ENDBRANCH  11  20
ENDBRANCH   1  12
BRANCH   5  27
ATOM     27  S   UNL     1      -5.018  -0.102  -1.917  0.00  0.00    -0.075 S 
BRANCH  27  28
ATOM     28  C   UNL     1      -5.577   1.486  -1.241  0.00  0.00    +0.173 C 
BRANCH  28  29
ATOM     29  C   UNL     1      -6.551   1.239  -0.118  0.00  0.00    +0.228 C 
ATOM     30  O   UNL     1      -6.839   0.103   0.196  0.00  0.00    -0.275 OA
ATOM     31  N   UNL     1      -7.101   2.280   0.538  0.00  0.00    -0.280 N 
ATOM     32  H   UNL     1      -6.778   3.306   0.310  0.00  0.00    +0.155 HD
BRANCH  31  33
ATOM     33  C   UNL     1      -8.086   2.054   1.510  0.00  0.00    +0.105 A 
ATOM     34  C   UNL     1      -9.426   2.009   1.147  0.00  0.00    +0.147 A 
ATOM     35  C   UNL     1     -10.395   1.780   2.108  0.00  0.00    +0.040 A 
ATOM     36  C   UNL     1     -10.031   1.609   3.431  0.00  0.00    +0.006 A 
ATOM     37  C   UNL     1      -8.698   1.659   3.797  0.00  0.00    +0.040 A 
ATOM     38  C   UNL     1      -7.724   1.881   2.841  0.00  0.00    +0.147 A 
ATOM     39  F   UNL     1      -6.423   1.931   3.200  0.00  0.00    -0.203 F 
ATOM     40  F   UNL     1      -9.783   2.182  -0.145  0.00  0.00    -0.203 F 
ENDBRANCH  31  33
ENDBRANCH  28  29
ENDBRANCH  27  28
ENDBRANCH   5  27
TORSDOF 10
