REMARK  Name = ZINC63985904
REMARK  13 active torsions:
REMARK  status: ('A' for Active; 'I' for Inactive)
REMARK    1  A    between atoms: C_1  and  O_2
REMARK    2  A    between atoms: O_2  and  C_3
REMARK    3  A    between atoms: C_3  and  C_4
REMARK    4  A    between atoms: C_4  and  C_5
REMARK    5  A    between atoms: N_7  and  C_8
REMARK    6  A    between atoms: C_12  and  N_34
REMARK    7  A    between atoms: N_16  and  C_23
REMARK    8  A    between atoms: C_17  and  C_19
REMARK    9  A    between atoms: C_19  and  O_21
REMARK   10  A    between atoms: O_21  and  C_22
REMARK   11  A    between atoms: C_23  and  C_24
REMARK   12  A    between atoms: C_24  and  C_25
REMARK   13  A    between atoms: N_34  and  C_35
REMARK                            x       y       z     vdW  Elec       q    Type
REMARK                         _______ _______ _______ _____ _____    ______ ____
ROOT
ATOM      1  C   UNL     1       2.052  -4.613  -3.542  0.00  0.00    +0.138 C 
ATOM      2  C   UNL     1       3.533  -4.767  -3.283  0.00  0.00    +0.015 A 
ATOM      3  C   UNL     1       4.511  -3.832  -3.002  0.00  0.00    +0.033 A 
ATOM      4  C   UNL     1       5.817  -4.276  -2.807  0.00  0.00    +0.044 A 
ATOM      5  C   UNL     1       6.082  -5.634  -2.901  0.00  0.00    +0.107 A 
ATOM      6  N   UNL     1       5.122  -6.494  -3.171  0.00  0.00    -0.348 N 
ATOM      7  C   UNL     1       3.860  -6.112  -3.365  0.00  0.00    +0.105 A 
ATOM      8  N   UNL     1       2.744  -6.894  -3.655  0.00  0.00    -0.301 N 
ATOM      9  C   UNL     1       1.552  -6.046  -3.788  0.00  0.00    +0.208 C 
ATOM     10  H   UNL     1       5.342  -7.437  -3.230  0.00  0.00    +0.167 HD
ENDROOT
BRANCH   1  13
ATOM     11  C   UNL     1       1.298  -2.694  -2.243  0.00  0.00    +0.216 C 
ATOM     12  O   UNL     1       1.771  -1.970  -3.094  0.00  0.00    -0.276 OA
ATOM     13  N   UNL     1       1.386  -4.032  -2.373  0.00  0.00    -0.306 N 
ATOM     14  H   UNL     1       1.008  -4.612  -1.693  0.00  0.00    +0.149 HD
BRANCH  11  15
ATOM     15  C   UNL     1       0.613  -2.097  -1.041  0.00  0.00    +0.124 C 
BRANCH  15  16
ATOM     16  C   UNL     1       0.652  -0.570  -1.138  0.00  0.00    +0.168 C 
BRANCH  16  18
ATOM     17  C   UNL     1      -0.017   1.425   0.010  0.00  0.00    +0.194 C 
ATOM     18  O   UNL     1       0.002  -0.004   0.002  0.00  0.00    -0.382 OA
ENDBRANCH  16  18
ENDBRANCH  15  16
ENDBRANCH  11  15
ENDBRANCH   1  13
BRANCH   9  19
ATOM     19  C   UNL     1       0.974  -6.167  -5.174  0.00  0.00    +0.330 C 
ATOM     20  O   UNL     1       1.633  -6.652  -6.064  0.00  0.00    -0.249 OA
BRANCH  19  21
ATOM     21  O   UNL     1      -0.273  -5.737  -5.421  0.00  0.00    -0.467 OA
ATOM     22  C   UNL     1      -0.757  -5.883  -6.758  0.00  0.00    +0.280 C 
ENDBRANCH  19  21
ENDBRANCH   9  19
BRANCH   4  23
ATOM     23  N   UNL     1       6.844  -3.367  -2.520  0.00  0.00    -0.340 N 
ATOM     24  H   UNL     1       6.649  -2.419  -2.456  0.00  0.00    +0.146 HD
BRANCH  23  25
ATOM     25  C   UNL     1       8.213  -3.849  -2.317  0.00  0.00    +0.075 C 
ATOM     26  C   UNL     1       8.395  -4.274  -0.856  0.00  0.00    +0.050 C 
ATOM     27  C   UNL     1       9.848  -4.701  -0.635  0.00  0.00    +0.161 C 
ATOM     28  O   UNL     1      10.719  -3.622  -0.981  0.00  0.00    -0.380 OA
ATOM     29  C   UNL     1      10.626  -3.213  -2.348  0.00  0.00    +0.161 C 
ATOM     30  C   UNL     1       9.204  -2.726  -2.638  0.00  0.00    +0.050 C 
ENDBRANCH  23  25
ENDBRANCH   4  23
BRANCH   8  31
ATOM     31  C   UNL     1       2.756  -8.351  -3.807  0.00  0.00    +0.112 C 
BRANCH  31  32
ATOM     32  C   UNL     1       2.499  -9.008  -2.450  0.00  0.00    +0.052 C 
BRANCH  32  33
ATOM     33  C   UNL     1       2.512 -10.506  -2.607  0.00  0.00    -0.040 C 
ATOM     34  C   UNL     1       3.559 -11.337  -2.398  0.00  0.00    -0.001 A 
ATOM     35  C   UNL     1       4.946 -11.102  -1.980  0.00  0.00    +0.010 A 
ATOM     36  C   UNL     1       5.782 -12.158  -1.857  0.00  0.00    +0.001 A 
ATOM     37  C   UNL     1       5.358 -13.468  -2.118  0.00  0.00    +0.002 A 
ATOM     38  C   UNL     1       4.099 -13.763  -2.506  0.00  0.00    +0.026 A 
ATOM     39  C   UNL     1       3.136 -12.729  -2.667  0.00  0.00    +0.043 A 
ATOM     40  N   UNL     1       1.876 -12.759  -3.028  0.00  0.00    -0.380 N 
ATOM     41  C   UNL     1       1.355 -11.387  -3.023  0.00  0.00    +0.144 C 
ATOM     42  H   UNL     1       1.371 -13.555  -3.256  0.00  0.00    +0.160 HD
ENDBRANCH  32  33
ENDBRANCH  31  32
ENDBRANCH   8  31
TORSDOF 11
