REMARK  Name = ZINC15866747
REMARK  5 active torsions:
REMARK  status: ('A' for Active; 'I' for Inactive)
REMARK    1  A    between atoms: C_1  and  C_2
REMARK    2  A    between atoms: C_5  and  C_7
REMARK    3  A    between atoms: N_14  and  S_15
REMARK    4  A    between atoms: S_15  and  C_18
REMARK    5  A    between atoms: C_28  and  C_30
REMARK                            x       y       z     vdW  Elec       q    Type
REMARK                         _______ _______ _______ _____ _____    ______ ____
ROOT
ATOM      1  S   UNL     1      -0.958   6.127  -2.094  0.00  0.00    +0.062 S 
ATOM      2  O   UNL     1      -0.425   5.354  -3.161  0.00  0.00    -0.153 OA
ATOM      3  O   UNL     1      -2.228   5.855  -1.517  0.00  0.00    -0.153 OA
ENDROOT
BRANCH   1   4
ATOM      4  C   UNL     1       0.217   6.054  -0.784  0.00  0.00    +0.109 A 
ATOM      5  C   UNL     1      -0.205   6.179   0.527  0.00  0.00    +0.030 A 
ATOM      6  C   UNL     1       0.714   6.125   1.559  0.00  0.00    +0.029 A 
ATOM      7  C   UNL     1       2.058   5.944   1.277  0.00  0.00    +0.078 A 
ATOM      8  C   UNL     1       2.486   5.816  -0.042  0.00  0.00    +0.144 A 
ATOM      9  C   UNL     1       1.557   5.872  -1.070  0.00  0.00    +0.076 A 
ATOM     10  O   UNL     1       3.800   5.629  -0.332  0.00  0.00    -0.488 OA
ATOM     11  C   UNL     1       4.761   6.004   0.658  0.00  0.00    +0.248 C 
ATOM     12  C   UNL     1       4.348   5.401   2.004  0.00  0.00    +0.154 C 
ATOM     13  N   UNL     1       2.997   5.891   2.322  0.00  0.00    -0.265 N 
ATOM     14  C   UNL     1       2.672   6.281   3.571  0.00  0.00    +0.217 C 
ATOM     15  O   UNL     1       1.590   6.784   3.787  0.00  0.00    -0.276 OA
ATOM     16  C   UNL     1       3.657   6.098   4.697  0.00  0.00    +0.109 C 
ENDBRANCH   1   4
BRANCH   1  23
ATOM     17  C   UNL     1      -2.051   8.562  -2.128  0.00  0.00    +0.116 C 
ATOM     18  C   UNL     1      -1.577   9.260  -0.830  0.00  0.00    +0.026 C 
ATOM     19  C   UNL     1      -0.548  10.266  -1.136  0.00  0.00    +0.002 C 
ATOM     20  C   UNL     1       0.728   9.694  -1.746  0.00  0.00    +0.001 C 
ATOM     21  C   UNL     1       0.552   9.555  -3.238  0.00  0.00    +0.017 C 
ATOM     22  C   UNL     1       0.025   8.152  -3.576  0.00  0.00    +0.110 C 
ATOM     23  N   UNL     1      -1.005   7.696  -2.623  0.00  0.00    -0.169 NA
BRANCH  17  28
ATOM     24  C   UNL     1      -6.438   5.617  -0.086  0.00  0.00    +0.051 C 
ATOM     25  C   UNL     1      -5.373   6.344  -0.866  0.00  0.00    -0.013 A 
ATOM     26  C   UNL     1      -5.241   6.481  -2.208  0.00  0.00    +0.011 A 
ATOM     27  C   UNL     1      -4.170   7.200  -2.706  0.00  0.00    +0.013 A 
ATOM     28  C   UNL     1      -3.284   7.746  -1.838  0.00  0.00    +0.009 A 
ATOM     29  S   UNL     1      -3.952   7.241  -0.261  0.00  0.00    -0.097 S 
ENDBRANCH  17  28
ENDBRANCH   1  23
TORSDOF 3
