REMARK  Name = ZINC59350327
REMARK  10 active torsions:
REMARK  status: ('A' for Active; 'I' for Inactive)
REMARK    1  A    between atoms: C_1  and  C_2
REMARK    2  A    between atoms: C_2  and  C_3
REMARK    3  A    between atoms: C_3  and  N_4
REMARK    4  A    between atoms: N_4  and  C_5
REMARK    5  A    between atoms: N_4  and  C_17
REMARK    6  A    between atoms: C_5  and  C_6
REMARK    7  A    between atoms: N_8  and  C_9
REMARK    8  A    between atoms: C_10  and  C_14
REMARK    9  A    between atoms: C_17  and  C_19
REMARK   10  A    between atoms: C_17  and  C_20
REMARK                            x       y       z     vdW  Elec       q    Type
REMARK                         _______ _______ _______ _____ _____    ______ ____
ROOT
ATOM      1  N   UNL     1       0.624  -1.938  -1.229  0.00  0.00    +0.390 N 
ATOM      2  H   UNL     1       0.940  -2.148  -0.294  0.00  0.00    -0.080 HD
ENDROOT
BRANCH   1   3
ATOM      3  C   UNL     1       1.470  -2.642  -2.202  0.00  0.00    -0.040 C 
ATOM      4  C   UNL     1       2.922  -2.187  -2.039  0.00  0.00    -0.008 C 
BRANCH   3   5
ATOM      5  C   UNL     1       1.380  -4.127  -1.964  0.00  0.00    -0.060 A 
ATOM      6  C   UNL     1       1.348  -4.619  -0.672  0.00  0.00    +0.003 A 
ATOM      7  C   UNL     1       1.266  -5.981  -0.452  0.00  0.00    +0.021 A 
ATOM      8  C   UNL     1       1.215  -6.853  -1.525  0.00  0.00    +0.059 A 
ATOM      9  C   UNL     1       1.246  -6.361  -2.819  0.00  0.00    +0.059 A 
ATOM     10  C   UNL     1       1.324  -4.997  -3.037  0.00  0.00    +0.023 A 
ATOM     11 CL   UNL     1       1.183  -7.453  -4.166  0.00  0.00    -0.082 Cl
ATOM     12 CL   UNL     1       1.112  -8.564  -1.250  0.00  0.00    -0.082 Cl
ENDBRANCH   3   5
ENDBRANCH   1   3
BRANCH   1  13
ATOM     13  C   UNL     1       0.712  -0.490  -1.461  0.00  0.00    -0.078 C 
BRANCH  13  15
ATOM     14  C   UNL     1       0.410   1.327  -3.149  0.00  0.00    +0.002 C 
ATOM     15  C   UNL     1       0.364  -0.185  -2.919  0.00  0.00    -0.022 C 
ENDBRANCH  13  15
ENDBRANCH   1  13
BRANCH   1  16
ATOM     16  C   UNL     1      -0.769  -2.375  -1.385  0.00  0.00    +0.020 C 
BRANCH  16  17
ATOM     17  C   UNL     1      -1.607  -1.787  -0.279  0.00  0.00    +0.201 C 
ATOM     18  O   UNL     1      -1.077  -1.169   0.620  0.00  0.00    -0.278 OA
ATOM     19  N   UNL     1      -2.945  -1.947  -0.289  0.00  0.00    -0.281 N 
ATOM     20  H   UNL     1      -3.369  -2.442  -1.008  0.00  0.00    +0.155 HD
BRANCH  19  21
ATOM     21  C   UNL     1      -3.716  -1.406   0.729  0.00  0.00    +0.084 A 
ATOM     22  C   UNL     1      -5.093  -1.475   0.884  0.00  0.00    +0.065 A 
ATOM     23  C   UNL     1      -5.645  -0.817   2.046  0.00  0.00    +0.022 A 
ATOM     24  C   UNL     1      -4.757  -0.207   2.853  0.00  0.00    +0.048 A 
ATOM     25  S   UNL     1      -3.197  -0.523   2.058  0.00  0.00    -0.081 S 
BRANCH  22  26
ATOM     26  C   UNL     1      -5.944  -2.179  -0.080  0.00  0.00    +0.244 C 
ATOM     27  O   UNL     1      -5.445  -2.722  -1.049  0.00  0.00    -0.270 OA
ATOM     28  N   UNL     1      -7.278  -2.224   0.105  0.00  0.00    -0.325 N 
ATOM     29  H   UNL     1      -7.675  -1.792   0.877  0.00  0.00    +0.145 HD
ATOM     30  H   UNL     1      -7.841  -2.690  -0.533  0.00  0.00    +0.145 HD
ENDBRANCH  22  26
ENDBRANCH  19  21
ENDBRANCH  16  17
ENDBRANCH   1  16
TORSDOF 8
