REMARK  Name = ZINC44737213
REMARK  7 active torsions:
REMARK  status: ('A' for Active; 'I' for Inactive)
REMARK    1  A    between atoms: C_1  and  C_2
REMARK    2  A    between atoms: C_2  and  C_3
REMARK    3  A    between atoms: C_7  and  C_16
REMARK    4  A    between atoms: N_18  and  C_19
REMARK    5  A    between atoms: C_19  and  C_21
REMARK    6  A    between atoms: C_19  and  C_22
REMARK    7  A    between atoms: C_27  and  C_31
REMARK                            x       y       z     vdW  Elec       q    Type
REMARK                         _______ _______ _______ _____ _____    ______ ____
ROOT
ATOM      1  C   UNL     1      -1.624  -3.852  -1.815  0.00  0.00    +0.219 C 
ATOM      2  O   UNL     1      -2.165  -2.784  -1.621  0.00  0.00    -0.275 OA
ATOM      3  N   UNL     1      -2.353  -4.914  -2.211  0.00  0.00    -0.305 N 
ATOM      4  H   UNL     1      -1.920  -5.769  -2.366  0.00  0.00    +0.149 HD
ENDROOT
BRANCH   1   9
ATOM      5  C   UNL     1       0.659  -0.530  -0.907  0.00  0.00    +0.215 C 
ATOM      6  O   UNL     1       1.097   0.345  -1.623  0.00  0.00    -0.276 OA
ATOM      7  N   UNL     1       0.817  -1.824  -1.249  0.00  0.00    -0.300 N 
ATOM      8  C   UNL     1       0.349  -3.022  -0.512  0.00  0.00    +0.121 C 
ATOM      9  C   UNL     1      -0.137  -3.992  -1.612  0.00  0.00    +0.100 C 
ATOM     10  C   UNL     1       0.621  -3.560  -2.879  0.00  0.00    -0.004 C 
ATOM     11  C   UNL     1       1.492  -2.370  -2.450  0.00  0.00    +0.115 C 
ATOM     12  C   UNL     1      -0.362  -3.124  -3.961  0.00  0.00    -0.010 C 
ATOM     13  C   UNL     1       0.412  -2.754  -5.229  0.00  0.00    -0.082 C 
ATOM     14  N   UNL     1       1.190  -3.913  -5.685  0.00  0.00    +0.379 N 
ATOM     15  C   UNL     1       2.196  -4.268  -4.677  0.00  0.00    -0.082 C 
ATOM     16  C   UNL     1       1.497  -4.702  -3.385  0.00  0.00    -0.010 C 
ATOM     17  H   UNL     1       0.570  -4.696  -5.830  0.00  0.00    -0.086 HD
ATOM     18  H   UNL     1       1.651  -3.686  -6.553  0.00  0.00    -0.086 HD
BRANCH   5  20
ATOM     19  C   UNL     1      -0.104   1.352   0.516  0.00  0.00    +0.013 C 
ATOM     20  C   UNL     1      -0.063  -0.170   0.366  0.00  0.00    +0.092 C 
ENDBRANCH   5  20
ENDBRANCH   1   9
BRANCH   3  21
ATOM     21  C   UNL     1      -3.798  -4.779  -2.408  0.00  0.00    +0.136 C 
ATOM     22  C   UNL     1      -4.073  -4.249  -3.817  0.00  0.00    +0.036 C 
BRANCH  21  23
ATOM     23  C   UNL     1      -4.456  -6.124  -2.240  0.00  0.00    +0.128 A 
ATOM     24  N   UNL     1      -3.866  -7.270  -2.415  0.00  0.00    -0.231 NA
ATOM     25  C   UNL     1      -4.746  -8.277  -2.181  0.00  0.00    +0.089 A 
ATOM     26  C   UNL     1      -4.649  -9.670  -2.223  0.00  0.00    +0.030 A 
ATOM     27  C   UNL     1      -5.740 -10.438  -1.928  0.00  0.00    +0.005 A 
ATOM     28  C   UNL     1      -6.949  -9.848  -1.588  0.00  0.00    -0.048 A 
ATOM     29  C   UNL     1      -7.068  -8.475  -1.540  0.00  0.00    +0.031 A 
ATOM     30  C   UNL     1      -5.970  -7.679  -1.836  0.00  0.00    +0.067 A 
ATOM     31  N   UNL     1      -5.753  -6.316  -1.876  0.00  0.00    -0.340 N 
ATOM     32  C   UNL     1      -8.141 -10.714  -1.268  0.00  0.00    +0.044 C 
ATOM     33  H   UNL     1      -6.405  -5.625  -1.683  0.00  0.00    +0.167 HD
ENDBRANCH  21  23
ENDBRANCH   3  21
TORSDOF 4
