REMARK  Name = ZINC31004138
REMARK  12 active torsions:
REMARK  status: ('A' for Active; 'I' for Inactive)
REMARK    1  A    between atoms: C_1  and  C_2
REMARK    2  A    between atoms: C_2  and  C_3
REMARK    3  A    between atoms: C_3  and  N_4
REMARK    4  A    between atoms: N_4  and  C_5
REMARK    5  A    between atoms: N_4  and  C_23
REMARK    6  A    between atoms: C_5  and  C_6
REMARK    7  A    between atoms: N_8  and  C_9
REMARK    8  A    between atoms: C_13  and  N_15
REMARK    9  A    between atoms: C_16  and  C_18
REMARK   10  A    between atoms: C_23  and  C_24
REMARK   11  A    between atoms: N_26  and  C_27
REMARK   12  A    between atoms: C_32  and  C_33
REMARK                            x       y       z     vdW  Elec       q    Type
REMARK                         _______ _______ _______ _____ _____    ______ ____
ROOT
ATOM      1  C   UNL     1       3.685   0.137  -1.198  0.00  0.00    +0.201 C 
ATOM      2  O   UNL     1       2.899  -0.780  -1.314  0.00  0.00    -0.278 OA
ATOM      3  N   UNL     1       5.011  -0.103  -1.232  0.00  0.00    -0.287 N 
ATOM      4  H   UNL     1       5.723   0.715  -1.051  0.00  0.00    +0.155 HD
ENDROOT
BRANCH   3   5
ATOM      5  C   UNL     1       5.481  -1.394  -1.498  0.00  0.00    +0.035 A 
ATOM      6  C   UNL     1       6.624  -1.573  -2.267  0.00  0.00    +0.023 A 
ATOM      7  C   UNL     1       7.089  -2.847  -2.530  0.00  0.00    +0.004 A 
ATOM      8  C   UNL     1       6.420  -3.947  -2.029  0.00  0.00    +0.023 A 
ATOM      9  C   UNL     1       5.276  -3.775  -1.260  0.00  0.00    +0.036 A 
ATOM     10  C   UNL     1       4.810  -2.496  -0.988  0.00  0.00    +0.046 A 
BRANCH   9  11
ATOM     11  N   UNL     1       4.599  -4.889  -0.754  0.00  0.00    -0.279 N 
ATOM     12  C   UNL     1       5.286  -5.994  -0.405  0.00  0.00    +0.284 C 
ATOM     13  O   UNL     1       6.503  -5.992  -0.443  0.00  0.00    -0.266 OA
ATOM     14  H   UNL     1       3.505  -4.863  -0.640  0.00  0.00    +0.155 HD
BRANCH  12  15
ATOM     15  C   UNL     1       4.569  -7.200   0.020  0.00  0.00    +0.189 A 
ATOM     16  C   UNL     1       5.139  -8.382   0.398  0.00  0.00    +0.054 A 
ATOM     17  C   UNL     1       4.087  -9.253   0.722  0.00  0.00    +0.042 A 
ATOM     18  C   UNL     1       2.935  -8.573   0.530  0.00  0.00    +0.196 A 
ATOM     19  O   UNL     1       3.230  -7.335   0.112  0.00  0.00    -0.458 OA
ENDBRANCH  12  15
ENDBRANCH   9  11
ENDBRANCH   3   5
BRANCH   1  20
ATOM     20  C   UNL     1       3.179   1.545  -1.016  0.00  0.00    +0.020 C 
BRANCH  20  21
ATOM     21  N   UNL     1       1.710   1.540  -1.013  0.00  0.00    +0.391 N 
ATOM     22  H   UNL     1       1.372   1.005  -1.913  0.00  0.00    -0.080 HD
BRANCH  21  23
ATOM     23  C   UNL     1       1.188   0.827   0.160  0.00  0.00    -0.078 C 
BRANCH  23  25
ATOM     24  C   UNL     1      -0.841  -0.227   1.168  0.00  0.00    +0.002 C 
ATOM     25  C   UNL     1      -0.274   0.447  -0.084  0.00  0.00    -0.022 C 
ENDBRANCH  23  25
ENDBRANCH  21  23
BRANCH  21  26
ATOM     26  C   UNL     1       1.179   2.909  -1.076  0.00  0.00    +0.020 C 
BRANCH  26  27
ATOM     27  C   UNL     1       1.347   3.449  -2.473  0.00  0.00    +0.201 C 
ATOM     28  O   UNL     1       1.911   2.784  -3.316  0.00  0.00    -0.278 OA
ATOM     29  N   UNL     1       0.876   4.673  -2.783  0.00  0.00    -0.287 N 
ATOM     30  H   UNL     1       0.433   5.306  -2.000  0.00  0.00    +0.155 HD
BRANCH  29  31
ATOM     31  C   UNL     1       0.951   5.139  -4.100  0.00  0.00    +0.036 A 
ATOM     32  C   UNL     1       1.965   4.693  -4.939  0.00  0.00    +0.023 A 
ATOM     33  C   UNL     1       2.033   5.151  -6.240  0.00  0.00    +0.002 A 
ATOM     34  C   UNL     1       1.100   6.060  -6.705  0.00  0.00    +0.000 A 
ATOM     35  C   UNL     1       0.093   6.509  -5.871  0.00  0.00    +0.005 A 
ATOM     36  C   UNL     1       0.016   6.051  -4.570  0.00  0.00    -0.029 A 
ATOM     37  C   UNL     1      -1.081   6.542  -3.661  0.00  0.00    +0.045 C 
ENDBRANCH  29  31
ENDBRANCH  26  27
ENDBRANCH  21  26
ENDBRANCH  20  21
ENDBRANCH   1  20
TORSDOF 10
