REMARK  Name = ZINC34992513
REMARK  10 active torsions:
REMARK  status: ('A' for Active; 'I' for Inactive)
REMARK    1  A    between atoms: C_1  and  C_2
REMARK    2  A    between atoms: C_2  and  C_3
REMARK    3  A    between atoms: C_3  and  N_4
REMARK    4  A    between atoms: C_5  and  C_7
REMARK    5  A    between atoms: C_7  and  N_8
REMARK    6  A    between atoms: N_8  and  C_9
REMARK    7  A    between atoms: C_9  and  C_10
REMARK    8  A    between atoms: C_15  and  O_16
REMARK    9  A    between atoms: O_16  and  C_17
REMARK   10  A    between atoms: C_17  and  C_18
REMARK                            x       y       z     vdW  Elec       q    Type
REMARK                         _______ _______ _______ _____ _____    ______ ____
ROOT
ATOM      1  C   UNL     1       2.049  -6.072  -3.510  0.00  0.00    -0.042 C 
ENDROOT
BRANCH   1   2
ATOM      2  C   UNL     1       2.754  -6.558  -4.750  0.00  0.00    -0.021 A 
ATOM      3  C   UNL     1       2.021  -6.983  -5.841  0.00  0.00    +0.020 A 
ATOM      4  C   UNL     1       2.667  -7.429  -6.979  0.00  0.00    +0.019 A 
ATOM      5  C   UNL     1       4.050  -7.452  -7.029  0.00  0.00    +0.034 A 
ATOM      6  C   UNL     1       4.787  -7.028  -5.939  0.00  0.00    +0.061 A 
ATOM      7  C   UNL     1       4.140  -6.574  -4.798  0.00  0.00    +0.136 A 
ATOM      8 BR   UNL     1       6.677  -7.059  -6.007  0.00  0.00    -0.046 Br
ATOM      9 BR   UNL     1       1.660  -8.011  -8.470  0.00  0.00    -0.050 Br
BRANCH   7  10
ATOM     10  O   UNL     1       4.864  -6.150  -3.728  0.00  0.00    -0.491 OA
BRANCH  10  11
ATOM     11  C   UNL     1       5.212  -7.133  -2.751  0.00  0.00    +0.226 C 
ATOM     12  C   UNL     1       6.019  -6.474  -1.630  0.00  0.00    +0.048 C 
ENDBRANCH  10  11
ENDBRANCH   7  10
ENDBRANCH   1   2
BRANCH   1  13
ATOM     13  N   UNL     1       2.029  -4.603  -3.502  0.00  0.00    +0.387 N 
ATOM     14  H   UNL     1       1.541  -4.269  -4.319  0.00  0.00    -0.085 HD
ATOM     15  H   UNL     1       2.976  -4.254  -3.509  0.00  0.00    -0.085 HD
BRANCH  13  16
ATOM     16  C   UNL     1       1.341  -4.130  -2.293  0.00  0.00    +0.015 C 
BRANCH  16  18
ATOM     17  N   UNL     1       0.738  -1.962  -1.265  0.00  0.00    -0.317 N 
ATOM     18  C   UNL     1       1.321  -2.623  -2.285  0.00  0.00    +0.196 C 
ATOM     19  O   UNL     1       1.829  -2.004  -3.196  0.00  0.00    -0.278 OA
ATOM     20  H   UNL     1       0.332  -2.457  -0.536  0.00  0.00    +0.149 HD
BRANCH  17  21
ATOM     21  C   UNL     1       0.718  -0.497  -1.257  0.00  0.00    +0.104 C 
BRANCH  21  23
ATOM     22  C   UNL     1      -0.019   1.526   0.010  0.00  0.00    +0.005 C 
ATOM     23  C   UNL     1       0.002  -0.004   0.002  0.00  0.00    +0.015 C 
ENDBRANCH  21  23
ENDBRANCH  17  21
ENDBRANCH  16  18
ENDBRANCH  13  16
ENDBRANCH   1  13
TORSDOF 8
