REMARK  Name = ZINC25221644
REMARK  7 active torsions:
REMARK  status: ('A' for Active; 'I' for Inactive)
REMARK    1  A    between atoms: C_1  and  N_2
REMARK    2  A    between atoms: N_2  and  C_3
REMARK    3  A    between atoms: N_2  and  C_11
REMARK    4  A    between atoms: C_3  and  C_4
REMARK    5  A    between atoms: C_11  and  C_12
REMARK    6  A    between atoms: N_14  and  C_15
REMARK    7  A    between atoms: C_16  and  C_20
REMARK                            x       y       z     vdW  Elec       q    Type
REMARK                         _______ _______ _______ _____ _____    ______ ____
ROOT
ATOM      1  C   UNL     1      -1.114   1.262  -3.560  0.00  0.00    +0.201 C 
ATOM      2  O   UNL     1      -2.089   1.963  -3.389  0.00  0.00    -0.278 OA
ATOM      3  N   UNL     1      -0.839   0.778  -4.788  0.00  0.00    -0.281 N 
ATOM      4  H   UNL     1       0.044   0.141  -4.943  0.00  0.00    +0.155 HD
ENDROOT
BRANCH   3   5
ATOM      5  C   UNL     1      -1.671   1.082  -5.855  0.00  0.00    +0.084 A 
ATOM      6  C   UNL     1      -1.551   0.687  -7.182  0.00  0.00    +0.065 A 
ATOM      7  C   UNL     1      -2.571   1.152  -8.092  0.00  0.00    +0.022 A 
ATOM      8  C   UNL     1      -3.540   1.933  -7.581  0.00  0.00    +0.048 A 
ATOM      9  S   UNL     1      -3.104   2.054  -5.859  0.00  0.00    -0.081 S 
BRANCH   6  10
ATOM     10  C   UNL     1      -0.446  -0.163  -7.635  0.00  0.00    +0.244 C 
ATOM     11  O   UNL     1       0.396  -0.540  -6.842  0.00  0.00    -0.270 OA
ATOM     12  N   UNL     1      -0.362  -0.527  -8.930  0.00  0.00    -0.325 N 
ATOM     13  H   UNL     1       0.467  -1.164  -9.270  0.00  0.00    +0.145 HD
ATOM     14  H   UNL     1      -1.124  -0.186  -9.647  0.00  0.00    +0.145 HD
ENDBRANCH   6  10
ENDBRANCH   3   5
BRANCH   1  15
ATOM     15  C   UNL     1      -0.211   0.930  -2.400  0.00  0.00    +0.019 C 
BRANCH  15  17
ATOM     16  C   UNL     1      -0.640   3.036  -1.283  0.00  0.00    -0.095 C 
ATOM     17  N   UNL     1      -0.723   1.572  -1.182  0.00  0.00    +0.386 N 
ATOM     18  H   UNL     1      -1.784   1.301  -1.077  0.00  0.00    -0.081 HD
BRANCH  17  19
ATOM     19  C   UNL     1      -0.013   1.086   0.008  0.00  0.00    -0.043 C 
BRANCH  19  20
ATOM     20  C   UNL     1      -0.718   1.572   1.248  0.00  0.00    -0.064 A 
ATOM     21  C   UNL     1      -0.360   2.779   1.819  0.00  0.00    +0.003 A 
ATOM     22  C   UNL     1      -1.010   3.227   2.953  0.00  0.00    +0.015 A 
ATOM     23  C   UNL     1      -2.012   2.463   3.523  0.00  0.00    +0.018 A 
ATOM     24  C   UNL     1      -2.366   1.253   2.955  0.00  0.00    +0.015 A 
ATOM     25  C   UNL     1      -1.719   0.808   1.818  0.00  0.00    +0.003 A 
ATOM     26 BR   UNL     1      -2.897   3.073   5.079  0.00  0.00    -0.050 Br
ENDBRANCH  19  20
ENDBRANCH  17  19
ENDBRANCH  15  17
ENDBRANCH   1  15
TORSDOF 6
