REMARK  Name = ZINC63804922
REMARK  8 active torsions:
REMARK  status: ('A' for Active; 'I' for Inactive)
REMARK    1  A    between atoms: C_1  and  C_2
REMARK    2  A    between atoms: C_7  and  C_8
REMARK    3  A    between atoms: C_8  and  S_9
REMARK    4  A    between atoms: S_9  and  C_10
REMARK    5  A    between atoms: C_14  and  C_17
REMARK    6  A    between atoms: C_17  and  C_19
REMARK    7  A    between atoms: C_17  and  N_29
REMARK    8  A    between atoms: C_19  and  C_20
REMARK                            x       y       z     vdW  Elec       q    Type
REMARK                         _______ _______ _______ _____ _____    ______ ____
ROOT
ATOM      1  C   UNL     1       1.411   0.940   6.596  0.00  0.00    -0.017 C 
ENDROOT
BRANCH   1   5
ATOM      2  C   UNL     1      -1.508   1.218   4.613  0.00  0.00    +0.319 C 
ATOM      3  N   UNL     1      -0.736   2.451   4.410  0.00  0.00    -0.146 NA
ATOM      4  N   UNL     1       0.102   2.581   5.313  0.00  0.00    -0.159 NA
ATOM      5  C   UNL     1       0.012   1.454   6.250  0.00  0.00    +0.246 C 
ATOM      6  O   UNL     1      -0.740   0.438   5.552  0.00  0.00    -0.320 OA
BRANCH   2   7
ATOM      7  S   UNL     1      -1.684   0.321   3.046  0.00  0.00    -0.100 S 
BRANCH   7   8
ATOM      8  C   UNL     1       0.025   0.045   2.504  0.00  0.00    +0.109 C 
BRANCH   8  15
ATOM      9  C   UNL     1      -0.018   1.503   0.010  0.00  0.00    +0.044 C 
ATOM     10  C   UNL     1       0.002  -0.004   0.002  0.00  0.00    -0.046 A 
ATOM     11  C   UNL     1       0.006  -0.689  -1.199  0.00  0.00    +0.003 A 
ATOM     12  C   UNL     1       0.025  -2.071  -1.207  0.00  0.00    +0.000 A 
ATOM     13  C   UNL     1       0.040  -2.768  -0.013  0.00  0.00    +0.000 A 
ATOM     14  C   UNL     1       0.037  -2.084   1.188  0.00  0.00    +0.005 A 
ATOM     15  C   UNL     1       0.023  -0.702   1.195  0.00  0.00    -0.035 A 
ENDBRANCH   8  15
ENDBRANCH   7   8
ENDBRANCH   2   7
ENDBRANCH   1   5
BRANCH   1  16
ATOM     16  N   UNL     1       2.098   0.524   5.366  0.00  0.00    +0.383 N 
ATOM     17  H   UNL     1       3.020   0.184   5.594  0.00  0.00    -0.089 HD
ATOM     18  H   UNL     1       1.571  -0.211   4.918  0.00  0.00    -0.089 HD
ATOM     19  H   UNL     1       2.175   1.312   4.741  0.00  0.00    -0.089 HD
ENDBRANCH   1  16
BRANCH   1  20
ATOM     20  C   UNL     1       2.211   2.053   7.275  0.00  0.00    +0.021 C 
BRANCH  20  21
ATOM     21  C   UNL     1       3.543   1.512   7.726  0.00  0.00    -0.043 C 
ATOM     22  C   UNL     1       4.716   1.579   7.057  0.00  0.00    -0.001 A 
ATOM     23  C   UNL     1       5.089   2.153   5.758  0.00  0.00    +0.010 A 
ATOM     24  C   UNL     1       6.374   2.062   5.346  0.00  0.00    +0.001 A 
ATOM     25  C   UNL     1       7.356   1.435   6.125  0.00  0.00    +0.002 A 
ATOM     26  C   UNL     1       7.090   0.885   7.329  0.00  0.00    +0.026 A 
ATOM     27  C   UNL     1       5.772   0.923   7.861  0.00  0.00    +0.043 A 
ATOM     28  N   UNL     1       5.271   0.468   8.984  0.00  0.00    -0.380 N 
ATOM     29  C   UNL     1       3.840   0.790   9.021  0.00  0.00    +0.144 C 
ATOM     30  H   UNL     1       5.764   0.001   9.676  0.00  0.00    +0.160 HD
ENDBRANCH  20  21
ENDBRANCH   1  20
TORSDOF 7
