REMARK  Name = ZINC34757524
REMARK  8 active torsions:
REMARK  status: ('A' for Active; 'I' for Inactive)
REMARK    1  A    between atoms: C_1  and  C_2
REMARK    2  A    between atoms: C_2  and  C_3
REMARK    3  A    between atoms: C_2  and  C_4
REMARK    4  A    between atoms: C_4  and  N_5
REMARK    5  A    between atoms: C_18  and  S_20
REMARK    6  A    between atoms: S_20  and  C_21
REMARK    7  A    between atoms: C_21  and  C_22
REMARK    8  A    between atoms: C_25  and  N_28
REMARK                            x       y       z     vdW  Elec       q    Type
REMARK                         _______ _______ _______ _____ _____    ______ ____
ROOT
ATOM      1  N   UNL     1      -0.166  -2.602  -0.472  0.00  0.00    +0.382 N 
ATOM      2  C   UNL     1       0.148  -4.010  -0.749  0.00  0.00    -0.060 C 
ATOM      3  C   UNL     1      -1.153  -4.790  -0.965  0.00  0.00    +0.088 C 
ATOM      4  N   UNL     1      -2.022  -4.580   0.203  0.00  0.00    -0.318 N 
ATOM      5  C   UNL     1      -2.260  -3.199   0.652  0.00  0.00    +0.088 C 
ATOM      6  C   UNL     1      -0.906  -2.494   0.791  0.00  0.00    -0.060 C 
ATOM      7  C   UNL     1      -2.600  -5.650   0.862  0.00  0.00    +0.134 A 
ATOM      8  C   UNL     1      -3.900  -6.101   0.500  0.00  0.00    +0.051 A 
ATOM      9  C   UNL     1      -4.795  -5.570  -0.542  0.00  0.00    -0.025 A 
ATOM     10  C   UNL     1      -5.983  -6.177  -0.689  0.00  0.00    -0.004 A 
ATOM     11  S   UNL     1      -5.992  -7.476   0.525  0.00  0.00    -0.073 S 
ATOM     12  C   UNL     1      -4.392  -7.197   1.232  0.00  0.00    +0.115 A 
ATOM     13  N   UNL     1      -3.683  -7.761   2.192  0.00  0.00    -0.215 NA
ATOM     14  C   UNL     1      -2.475  -7.298   2.488  0.00  0.00    +0.191 A 
ATOM     15  N   UNL     1      -1.950  -6.270   1.832  0.00  0.00    -0.206 NA
ATOM     16  C   UNL     1      -6.813  -5.547  -1.776  0.00  0.00    +0.043 C 
ATOM     17  C   UNL     1      -6.155  -4.171  -2.017  0.00  0.00    +0.010 C 
ATOM     18  C   UNL     1      -4.706  -4.433  -1.564  0.00  0.00    +0.037 C 
ATOM     19  H   UNL     1      -0.729  -2.232  -1.223  0.00  0.00    -0.082 HD
ENDROOT
BRANCH   1  20
ATOM     20  C   UNL     1       1.082  -1.834  -0.374  0.00  0.00    -0.076 C 
BRANCH  20  22
ATOM     21  C   UNL     1       2.046   0.440   0.000  0.00  0.00    +0.005 C 
ATOM     22  C   UNL     1       0.755  -0.345  -0.241  0.00  0.00    -0.034 C 
ATOM     23  C   UNL     1       0.091   0.148  -1.528  0.00  0.00    +0.005 C 
ENDBRANCH  20  22
ENDBRANCH   1  20
BRANCH  14  24
ATOM     24  S   UNL     1      -1.548  -8.067   3.774  0.00  0.00    -0.081 S 
BRANCH  24  25
ATOM     25  C   UNL     1      -2.634  -9.394   4.366  0.00  0.00    +0.112 C 
BRANCH  25  26
ATOM     26  C   UNL     1      -1.952 -10.141   5.482  0.00  0.00    -0.037 A 
ATOM     27  C   UNL     1      -1.152 -11.232   5.197  0.00  0.00    +0.007 A 
ATOM     28  C   UNL     1      -0.526 -11.917   6.221  0.00  0.00    +0.033 A 
ATOM     29  C   UNL     1      -0.700 -11.512   7.531  0.00  0.00    +0.126 A 
ATOM     30  C   UNL     1      -1.499 -10.421   7.817  0.00  0.00    +0.033 A 
ATOM     31  C   UNL     1      -2.122  -9.733   6.792  0.00  0.00    +0.007 A 
BRANCH  29  32
ATOM     32  N   UNL     1      -0.031 -12.247   8.628  0.00  0.00    +0.056 N 
ATOM     33  O   UNL     1       0.668 -13.201   8.378  0.00  0.00    -0.126 OA
ATOM     34  O   UNL     1      -0.183 -11.892   9.774  0.00  0.00    -0.126 OA
ENDBRANCH  29  32
ENDBRANCH  25  26
ENDBRANCH  24  25
ENDBRANCH  14  24
TORSDOF 6
