REMARK  Name = ZINC09167777
REMARK  6 active torsions:
REMARK  status: ('A' for Active; 'I' for Inactive)
REMARK    1  A    between atoms: C_1  and  C_2
REMARK    2  A    between atoms: C_9  and  N_14
REMARK    3  A    between atoms: C_10  and  C_11
REMARK    4  A    between atoms: C_15  and  C_17
REMARK    5  A    between atoms: C_17  and  N_56
REMARK    6  A    between atoms: C_23  and  C_25
REMARK                            x       y       z     vdW  Elec       q    Type
REMARK                         _______ _______ _______ _____ _____    ______ ____
ROOT
ATOM      1  N   UNL     1      -2.241  -6.115   0.942  0.00  0.00    -0.281 N 
ATOM      2  C   UNL     1      -3.508  -6.356   0.550  0.00  0.00    +0.201 C 
ATOM      3  O   UNL     1      -4.209  -5.443   0.167  0.00  0.00    -0.278 OA
ATOM      4  H   UNL     1      -1.681  -6.845   1.249  0.00  0.00    +0.155 HD
ENDROOT
BRANCH   1  12
ATOM      5  C   UNL     1       0.242   1.289   0.492  0.00  0.00    +0.008 C 
ATOM      6  C   UNL     1       0.224  -0.239   0.427  0.00  0.00    -0.009 C 
ATOM      7  C   UNL     1       0.936  -0.814   1.655  0.00  0.00    +0.008 C 
ATOM      8  C   UNL     1       1.141  -2.320   1.480  0.00  0.00    +0.037 C 
ATOM      9  C   UNL     1      -0.197  -2.959   1.129  0.00  0.00    -0.023 A 
ATOM     10  C   UNL     1      -1.222  -2.215   0.661  0.00  0.00    -0.004 A 
ATOM     11  S   UNL     1      -2.538  -3.370   0.401  0.00  0.00    -0.077 S 
ATOM     12  C   UNL     1      -1.739  -4.823   0.905  0.00  0.00    +0.084 A 
ATOM     13  C   UNL     1      -0.473  -4.379   1.263  0.00  0.00    +0.068 A 
ATOM     14  C   UNL     1      -1.229  -0.737   0.420  0.00  0.00    +0.046 C 
BRANCH  13  15
ATOM     15  C   UNL     1       0.546  -5.309   1.759  0.00  0.00    +0.244 C 
ATOM     16  O   UNL     1       0.634  -5.537   2.951  0.00  0.00    -0.270 OA
ATOM     17  N   UNL     1       1.386  -5.912   0.894  0.00  0.00    -0.325 N 
ATOM     18  H   UNL     1       1.316  -5.731  -0.056  0.00  0.00    +0.145 HD
ATOM     19  H   UNL     1       2.060  -6.527   1.222  0.00  0.00    +0.145 HD
ENDBRANCH  13  15
ENDBRANCH   1  12
BRANCH   2  20
ATOM     20  C   UNL     1      -4.054  -7.760   0.590  0.00  0.00    +0.019 C 
BRANCH  20  28
ATOM     21  C   UNL     1      -6.313  -7.012   1.039  0.00  0.00    -0.059 C 
ATOM     22  C   UNL     1      -7.710  -6.878   0.424  0.00  0.00    +0.089 C 
ATOM     23  N   UNL     1      -8.193  -8.220   0.065  0.00  0.00    -0.299 N 
ATOM     24  C   UNL     1      -7.317  -9.081  -0.745  0.00  0.00    +0.089 C 
ATOM     25  C   UNL     1      -5.935  -9.128  -0.084  0.00  0.00    -0.059 C 
ATOM     26  C   UNL     1      -9.406  -8.649   0.466  0.00  0.00    +0.282 C 
ATOM     27  O   UNL     1      -9.818  -9.735   0.102  0.00  0.00    -0.267 OA
ATOM     28  N   UNL     1      -5.445  -7.744   0.091  0.00  0.00    +0.387 N 
ATOM     29  H   UNL     1      -5.467  -7.266  -0.818  0.00  0.00    -0.081 HD
BRANCH  26  30
ATOM     30  C   UNL     1     -10.229  -7.808   1.341  0.00  0.00    +0.189 A 
ATOM     31  C   UNL     1     -11.409  -8.170   1.924  0.00  0.00    +0.054 A 
ATOM     32  C   UNL     1     -11.846  -7.065   2.671  0.00  0.00    +0.042 A 
ATOM     33  C   UNL     1     -10.926  -6.089   2.512  0.00  0.00    +0.196 A 
ATOM     34  O   UNL     1      -9.950  -6.542   1.714  0.00  0.00    -0.458 OA
ENDBRANCH  26  30
ENDBRANCH  20  28
ENDBRANCH   2  20
TORSDOF 5
