REMARK  Name = ZINC39656791
REMARK  9 active torsions:
REMARK  status: ('A' for Active; 'I' for Inactive)
REMARK    1  A    between atoms: C_1  and  C_2
REMARK    2  A    between atoms: C_2  and  C_4
REMARK    3  A    between atoms: C_2  and  N_11
REMARK    4  A    between atoms: C_12  and  C_14
REMARK    5  A    between atoms: C_25  and  C_27
REMARK    6  A    between atoms: C_29  and  O_35
REMARK    7  A    between atoms: C_31  and  O_33
REMARK    8  A    between atoms: O_33  and  C_34
REMARK    9  A    between atoms: O_35  and  C_36
REMARK                            x       y       z     vdW  Elec       q    Type
REMARK                         _______ _______ _______ _____ _____    ______ ____
ROOT
ATOM      1  C   UNL     1       2.675  -1.465  -1.945  0.00  0.00    +0.100 C 
ATOM      2  C   UNL     1       2.333  -2.852  -2.535  0.00  0.00    +0.121 C 
ATOM      3  N   UNL     1       3.620  -3.361  -3.063  0.00  0.00    -0.296 N 
ATOM      4  C   UNL     1       4.624  -2.943  -2.056  0.00  0.00    +0.115 C 
ATOM      5  C   UNL     1       4.179  -1.530  -1.631  0.00  0.00    -0.004 C 
ATOM      6  C   UNL     1       4.932  -0.475  -2.436  0.00  0.00    -0.010 C 
ATOM      7  C   UNL     1       6.417  -0.521  -2.065  0.00  0.00    -0.082 C 
ATOM      8  N   UNL     1       6.572  -0.270  -0.627  0.00  0.00    +0.379 N 
ATOM      9  C   UNL     1       5.922  -1.340   0.141  0.00  0.00    -0.082 C 
ATOM     10  C   UNL     1       4.417  -1.329  -0.138  0.00  0.00    -0.010 C 
ATOM     11  C   UNL     1       3.830  -4.050  -4.203  0.00  0.00    +0.247 C 
ATOM     12  O   UNL     1       2.917  -4.223  -4.986  0.00  0.00    -0.270 OA
ATOM     13  H   UNL     1       7.553  -0.240  -0.396  0.00  0.00    -0.086 HD
ATOM     14  H   UNL     1       6.147   0.615  -0.394  0.00  0.00    -0.086 HD
ENDROOT
BRANCH  11  15
ATOM     15  C   UNL     1       5.173  -4.594  -4.501  0.00  0.00    +0.044 A 
ATOM     16  C   UNL     1       6.086  -4.807  -3.468  0.00  0.00    +0.059 A 
ATOM     17  C   UNL     1       7.342  -5.317  -3.751  0.00  0.00    +0.124 A 
ATOM     18  C   UNL     1       7.693  -5.616  -5.059  0.00  0.00    +0.091 A 
ATOM     19  C   UNL     1       6.788  -5.406  -6.089  0.00  0.00    +0.124 A 
ATOM     20  C   UNL     1       5.527  -4.902  -5.814  0.00  0.00    +0.059 A 
BRANCH  19  21
ATOM     21  O   UNL     1       7.136  -5.701  -7.370  0.00  0.00    -0.495 OA
ATOM     22  C   UNL     1       8.449  -6.223  -7.581  0.00  0.00    +0.277 C 
ENDBRANCH  19  21
BRANCH  17  23
ATOM     23  O   UNL     1       8.233  -5.525  -2.745  0.00  0.00    -0.495 OA
ATOM     24  C   UNL     1       9.510  -6.053  -3.108  0.00  0.00    +0.277 C 
ENDBRANCH  17  23
ENDBRANCH  11  15
BRANCH   1  26
ATOM     25  N   UNL     1       1.563   0.035  -0.322  0.00  0.00    -0.308 N 
ATOM     26  C   UNL     1       1.885  -1.223  -0.684  0.00  0.00    +0.219 C 
ATOM     27  O   UNL     1       1.541  -2.159   0.005  0.00  0.00    -0.275 OA
ATOM     28  H   UNL     1       1.839   0.784  -0.874  0.00  0.00    +0.149 HD
BRANCH  25  30
ATOM     29  C   UNL     1       1.749   0.328   2.099  0.00  0.00    +0.033 C 
ATOM     30  C   UNL     1       0.796   0.271   0.903  0.00  0.00    +0.100 C 
BRANCH  30  31
ATOM     31  C   UNL     1       0.055   1.578   0.788  0.00  0.00    -0.027 A 
ATOM     32  C   UNL     1       0.665   2.669   0.198  0.00  0.00    +0.006 A 
ATOM     33  C   UNL     1      -0.014   3.868   0.092  0.00  0.00    +0.015 A 
ATOM     34  C   UNL     1      -1.305   3.976   0.577  0.00  0.00    +0.018 A 
ATOM     35  C   UNL     1      -1.915   2.884   1.167  0.00  0.00    +0.015 A 
ATOM     36  C   UNL     1      -1.237   1.684   1.268  0.00  0.00    +0.006 A 
ATOM     37 BR   UNL     1      -2.235   5.616   0.433  0.00  0.00    -0.050 Br
ENDBRANCH  30  31
ENDBRANCH  25  30
ENDBRANCH   1  26
TORSDOF 6
