REMARK  Name = ZINC07127202
REMARK  10 active torsions:
REMARK  status: ('A' for Active; 'I' for Inactive)
REMARK    1  A    between atoms: C_1  and  C_2
REMARK    2  A    between atoms: C_2  and  O_3
REMARK    3  A    between atoms: O_3  and  C_4
REMARK    4  A    between atoms: C_6  and  C_19
REMARK    5  A    between atoms: C_9  and  O_10
REMARK    6  A    between atoms: O_10  and  C_11
REMARK    7  A    between atoms: C_11  and  C_13
REMARK    8  A    between atoms: C_11  and  C_14
REMARK    9  A    between atoms: N_16  and  C_17
REMARK   10  A    between atoms: N_16  and  C_18
REMARK                            x       y       z     vdW  Elec       q    Type
REMARK                         _______ _______ _______ _____ _____    ______ ____
ROOT
ATOM      1  C   UNL     1      -0.248  -4.460   0.756  0.00  0.00    +0.209 C 
ATOM      2  N   UNL     1       0.530  -5.697   0.953  0.00  0.00    -0.294 N 
ATOM      3  C   UNL     1       0.307  -6.750   0.078  0.00  0.00    +0.159 C 
ATOM      4  N   UNL     1      -1.021  -7.144  -0.093  0.00  0.00    -0.259 N 
ATOM      5  C   UNL     1      -1.956  -6.114  -0.031  0.00  0.00    +0.205 A 
ATOM      6  N   UNL     1      -1.613  -4.843   0.375  0.00  0.00    -0.288 N 
ATOM      7  C   UNL     1      -2.748  -4.085   0.337  0.00  0.00    +0.072 A 
ATOM      8  C   UNL     1      -3.006  -2.754   0.640  0.00  0.00    +0.028 A 
ATOM      9  C   UNL     1      -4.310  -2.312   0.481  0.00  0.00    +0.002 A 
ATOM     10  C   UNL     1      -5.320  -3.148   0.039  0.00  0.00    +0.002 A 
ATOM     11  C   UNL     1      -5.089  -4.477  -0.269  0.00  0.00    +0.030 A 
ATOM     12  C   UNL     1      -3.780  -4.946  -0.115  0.00  0.00    +0.091 A 
ATOM     13  N   UNL     1      -3.227  -6.162  -0.322  0.00  0.00    -0.214 NA
ATOM     14  N   UNL     1       1.285  -7.339  -0.550  0.00  0.00    -0.375 N 
ATOM     15  H   UNL     1       1.178  -5.771   1.672  0.00  0.00    +0.151 HD
ATOM     16  H   UNL     1       2.198  -7.044  -0.412  0.00  0.00    +0.158 HD
ATOM     17  H   UNL     1      -1.274  -8.068  -0.245  0.00  0.00    +0.158 HD
ATOM     18  H   UNL     1       1.099  -8.073  -1.156  0.00  0.00    +0.158 HD
ENDROOT
BRANCH   1  21
ATOM     19  C   UNL     1       1.006  -1.498  -1.226  0.00  0.00    +0.162 A 
ATOM     20  C   UNL     1       0.433  -2.259  -0.219  0.00  0.00    +0.056 A 
ATOM     21  C   UNL     1       0.375  -3.635  -0.340  0.00  0.00    -0.003 A 
ATOM     22  C   UNL     1       0.888  -4.255  -1.464  0.00  0.00    +0.011 A 
ATOM     23  C   UNL     1       1.461  -3.502  -2.472  0.00  0.00    +0.050 A 
ATOM     24  C   UNL     1       1.517  -2.122  -2.360  0.00  0.00    +0.163 A 
BRANCH  19  25
ATOM     25  O   UNL     1       1.064  -0.144  -1.108  0.00  0.00    -0.489 OA
BRANCH  25  27
ATOM     26  C   UNL     1       0.674   1.948   0.036  0.00  0.00    +0.048 C 
ATOM     27  C   UNL     1       0.520   0.427   0.084  0.00  0.00    +0.226 C 
ENDBRANCH  25  27
ENDBRANCH  19  25
BRANCH  24  28
ATOM     28  O   UNL     1       2.075  -1.379  -3.353  0.00  0.00    -0.476 OA
BRANCH  28  29
ATOM     29  C   UNL     1       2.631  -2.091  -4.461  0.00  0.00    +0.256 C 
ATOM     30  C   UNL     1       4.054  -2.536  -4.118  0.00  0.00    +0.062 C 
BRANCH  29  31
ATOM     31  C   UNL     1       2.664  -1.192  -5.670  0.00  0.00    +0.256 C 
ATOM     32  O   UNL     1       2.499   0.003  -5.542  0.00  0.00    -0.272 OA
ATOM     33  N   UNL     1       2.876  -1.715  -6.893  0.00  0.00    -0.305 N 
ATOM     34  C   UNL     1       3.023  -0.832  -8.053  0.00  0.00    +0.131 C 
ATOM     35  C   UNL     1       2.960  -3.168  -7.064  0.00  0.00    +0.131 C 
ENDBRANCH  29  31
ENDBRANCH  28  29
ENDBRANCH  24  28
ENDBRANCH   1  21
TORSDOF 6
