REMARK  Name = ZINC36813156
REMARK  5 active torsions:
REMARK  status: ('A' for Active; 'I' for Inactive)
REMARK    1  A    between atoms: C_1  and  C_2
REMARK    2  A    between atoms: C_2  and  C_4
REMARK    3  A    between atoms: C_2  and  N_10
REMARK    4  A    between atoms: N_10  and  C_11
REMARK    5  A    between atoms: C_20  and  N_21
REMARK                            x       y       z     vdW  Elec       q    Type
REMARK                         _______ _______ _______ _____ _____    ______ ____
ROOT
ATOM      1  C   UNL     1      -2.013  -0.974  -1.069  0.00  0.00    +0.059 A 
ATOM      2  C   UNL     1      -3.256  -1.639  -0.982  0.00  0.00    +0.022 A 
ATOM      3  C   UNL     1      -3.641  -2.315   0.186  0.00  0.00    +0.027 A 
ATOM      4  C   UNL     1      -4.849  -2.945   0.232  0.00  0.00    +0.019 A 
ATOM      5  C   UNL     1      -5.707  -2.926  -0.866  0.00  0.00    +0.017 A 
ATOM      6  C   UNL     1      -5.364  -2.280  -2.014  0.00  0.00    +0.027 A 
ATOM      7  C   UNL     1      -4.126  -1.618  -2.099  0.00  0.00    +0.048 A 
ATOM      8  N   UNL     1      -3.767  -0.975  -3.216  0.00  0.00    -0.359 N 
ATOM      9  C   UNL     1      -2.615  -0.352  -3.313  0.00  0.00    +0.107 A 
ATOM     10  C   UNL     1      -1.706  -0.321  -2.258  0.00  0.00    +0.062 A 
ATOM     11 BR   UNL     1      -5.367  -3.856   1.806  0.00  0.00    -0.050 Br
ATOM     12  H   UNL     1      -4.372  -0.970  -3.973  0.00  0.00    +0.165 HD
ENDROOT
BRANCH  10  13
ATOM     13  N   UNL     1      -0.488   0.360  -2.395  0.00  0.00    -0.355 N 
ATOM     14  H   UNL     1       0.025   0.599  -1.607  0.00  0.00    +0.142 HD
ATOM     15  H   UNL     1      -0.159   0.592  -3.277  0.00  0.00    +0.142 HD
ENDBRANCH  10  13
BRANCH   1  16
ATOM     16  N   UNL     1      -1.126  -0.967   0.003  0.00  0.00    -0.337 N 
ATOM     17  H   UNL     1      -1.435  -0.715   0.887  0.00  0.00    +0.147 HD
BRANCH  16  19
ATOM     18  C   UNL     1       1.147  -0.652   0.848  0.00  0.00    +0.030 C 
ATOM     19  C   UNL     1       0.275  -1.341  -0.203  0.00  0.00    +0.096 C 
BRANCH  19  20
ATOM     20  C   UNL     1       0.422  -2.859  -0.072  0.00  0.00    +0.138 C 
ATOM     21  C   UNL     1      -0.458  -3.563  -1.126  0.00  0.00    +0.035 C 
ATOM     22  C   UNL     1      -1.013  -4.778  -0.334  0.00  0.00    +0.031 C 
ATOM     23  C   UNL     1      -1.151  -4.167   1.083  0.00  0.00    +0.160 C 
ATOM     24  O   UNL     1      -0.026  -3.280   1.221  0.00  0.00    -0.375 OA
ENDBRANCH  19  20
ENDBRANCH  16  19
ENDBRANCH   1  16
TORSDOF 4
