REMARK  Name = ZINC03999445
REMARK  7 active torsions:
REMARK  status: ('A' for Active; 'I' for Inactive)
REMARK    1  A    between atoms: C_3  and  N_8
REMARK    2  A    between atoms: C_5  and  O_7
REMARK    3  A    between atoms: N_8  and  C_9
REMARK    4  A    between atoms: C_9  and  C_10
REMARK    5  A    between atoms: C_10  and  C_12
REMARK    6  A    between atoms: C_10  and  O_28
REMARK    7  A    between atoms: C_12  and  N_51
REMARK                            x       y       z     vdW  Elec       q    Type
REMARK                         _______ _______ _______ _____ _____    ______ ____
ROOT
ATOM      1  C   UNL     1       2.217   8.269   0.020  0.00  0.00    -0.046 C 
ENDROOT
BRANCH   1  15
ATOM      2  C   UNL     1       1.149  10.260  -0.844  0.00  0.00    -0.074 C 
ATOM      3  C   UNL     1       1.028  11.772  -0.723  0.00  0.00    -0.007 C 
ATOM      4  C   UNL     1       0.587  12.169   0.689  0.00  0.00    +0.011 C 
ATOM      5  C   UNL     1       1.608  11.588   1.673  0.00  0.00    +0.020 C 
ATOM      6  C   UNL     1       1.590  10.057   1.530  0.00  0.00    -0.069 C 
ATOM      7  C   UNL     1       2.991  12.065   1.293  0.00  0.00    +0.023 A 
ATOM      8  C   UNL     1       3.909  12.190   2.288  0.00  0.00    +0.022 A 
ATOM      9  C   UNL     1       5.226  12.563   1.998  0.00  0.00    +0.007 A 
ATOM     10  C   UNL     1       5.580  12.772   0.697  0.00  0.00    +0.070 A 
ATOM     11  C   UNL     1       4.610  12.631  -0.305  0.00  0.00    +0.251 A 
ATOM     12  O   UNL     1       4.929  12.750  -1.477  0.00  0.00    -0.268 OA
ATOM     13  N   UNL     1       3.320  12.362   0.014  0.00  0.00    -0.312 N 
ATOM     14  C   UNL     1       2.333  12.472  -1.061  0.00  0.00    +0.126 C 
ATOM     15  N   UNL     1       2.081   9.733   0.171  0.00  0.00    +0.382 N 
ATOM     16  H   UNL     1       3.001  10.169   0.037  0.00  0.00    -0.082 HD
ENDBRANCH   1  15
BRANCH   1  17
ATOM     17  C   UNL     1       2.607   7.952  -1.426  0.00  0.00    +0.115 C 
BRANCH  17  18
ATOM     18  O   UNL     1       3.826   8.623  -1.749  0.00  0.00    -0.392 OA
ATOM     19  H   UNL     1       4.574   8.370  -1.190  0.00  0.00    +0.210 HD
ENDBRANCH  17  18
BRANCH  17  20
ATOM     20  C   UNL     1       2.799   6.442  -1.582  0.00  0.00    +0.131 C 
BRANCH  20  21
ATOM     21  N   UNL     1       3.172   6.138  -2.966  0.00  0.00    -0.341 N 
ATOM     22  H   UNL     1       3.259   6.855  -3.613  0.00  0.00    +0.146 HD
BRANCH  21  25
ATOM     23  C   UNL     1       3.505   2.480  -2.809  0.00  0.00    +0.005 A 
ATOM     24  C   UNL     1       3.276   3.788  -2.426  0.00  0.00    +0.023 A 
ATOM     25  C   UNL     1       3.401   4.816  -3.353  0.00  0.00    +0.031 A 
ATOM     26  C   UNL     1       3.755   4.526  -4.664  0.00  0.00    +0.068 A 
ATOM     27  C   UNL     1       3.989   3.214  -5.042  0.00  0.00    +0.119 A 
ATOM     28  C   UNL     1       3.857   2.191  -4.113  0.00  0.00    +0.045 A 
BRANCH  27  29
ATOM     29  O   UNL     1       4.341   2.928  -6.323  0.00  0.00    -0.507 OA
ATOM     30  H   UNL     1       3.591   2.759  -6.909  0.00  0.00    +0.292 HD
ENDBRANCH  27  29
ENDBRANCH  21  25
ENDBRANCH  20  21
ENDBRANCH  17  20
ENDBRANCH   1  17
TORSDOF 7
