REMARK  Name = ZINC28059070
REMARK  6 active torsions:
REMARK  status: ('A' for Active; 'I' for Inactive)
REMARK    1  A    between atoms: C_1  and  O_2
REMARK    2  A    between atoms: O_2  and  C_3
REMARK    3  A    between atoms: C_6  and  O_35
REMARK    4  A    between atoms: C_7  and  C_9
REMARK    5  A    between atoms: C_20  and  C_22
REMARK    6  A    between atoms: O_35  and  C_36
REMARK                            x       y       z     vdW  Elec       q    Type
REMARK                         _______ _______ _______ _____ _____    ______ ____
ROOT
ATOM      1  C   UNL     1       1.504   3.056  -0.008  0.00  0.00    +0.178 C 
ATOM      2  C   UNL     1       0.377   4.019  -0.287  0.00  0.00    +0.026 C 
ATOM      3  C   UNL     1      -0.904   3.648  -0.256  0.00  0.00    +0.050 C 
ATOM      4  C   UNL     1      -1.943   4.672  -0.522  0.00  0.00    +0.038 A 
ATOM      5  C   UNL     1      -3.250   4.316  -0.833  0.00  0.00    +0.013 A 
ATOM      6  C   UNL     1      -4.186   5.305  -1.070  0.00  0.00    +0.001 A 
ATOM      7  C   UNL     1      -3.826   6.639  -1.000  0.00  0.00    +0.004 A 
ATOM      8  C   UNL     1      -2.526   7.001  -0.693  0.00  0.00    +0.046 A 
ATOM      9  C   UNL     1      -1.579   6.023  -0.454  0.00  0.00    +0.131 A 
ATOM     10  O   UNL     1      -0.294   6.337  -0.151  0.00  0.00    -0.479 OA
ATOM     11  C   UNL     1       0.720   5.452  -0.626  0.00  0.00    +0.234 C 
ATOM     12  N   UNL     1      -1.295   2.331   0.013  0.00  0.00    -0.282 N 
ATOM     13  C   UNL     1      -0.309   1.358  -0.009  0.00  0.00    +0.240 A 
ATOM     14  N   UNL     1       1.009   1.687  -0.026  0.00  0.00    -0.201 N 
ATOM     15  N   UNL     1       1.694   0.473  -0.057  0.00  0.00    -0.042 NA
ATOM     16  N   UNL     1       0.795  -0.458  -0.053  0.00  0.00    -0.021 NA
ATOM     17  N   UNL     1      -0.386   0.058  -0.024  0.00  0.00    -0.092 NA
ATOM     18  H   UNL     1      -2.349   2.103   0.230  0.00  0.00    +0.155 HD
ENDROOT
BRANCH  11  19
ATOM     19  C   UNL     1       0.843   5.594  -2.121  0.00  0.00    -0.003 A 
ATOM     20  C   UNL     1       2.091   5.694  -2.706  0.00  0.00    +0.008 A 
ATOM     21  C   UNL     1       2.204   5.819  -4.077  0.00  0.00    +0.015 A 
ATOM     22  C   UNL     1       1.067   5.854  -4.864  0.00  0.00    +0.018 A 
ATOM     23  C   UNL     1      -0.182   5.759  -4.279  0.00  0.00    +0.015 A 
ATOM     24  C   UNL     1      -0.294   5.629  -2.907  0.00  0.00    +0.008 A 
ATOM     25 BR   UNL     1       1.221   6.033  -6.741  0.00  0.00    -0.050 Br
ENDBRANCH  11  19
BRANCH   1  30
ATOM     26  C   UNL     1       1.850   3.547   3.723  0.00  0.00    +0.121 A 
ATOM     27  C   UNL     1       3.184   3.910   3.832  0.00  0.00    +0.049 A 
ATOM     28  C   UNL     1       3.972   3.995   2.701  0.00  0.00    +0.049 A 
ATOM     29  C   UNL     1       3.429   3.719   1.455  0.00  0.00    +0.126 A 
ATOM     30  C   UNL     1       2.095   3.356   1.345  0.00  0.00    +0.026 A 
ATOM     31  C   UNL     1       1.306   3.275   2.477  0.00  0.00    +0.055 A 
BRANCH  26  33
ATOM     32  C   UNL     1       1.700   3.762   6.086  0.00  0.00    +0.277 C 
ATOM     33  O   UNL     1       1.075   3.463   4.837  0.00  0.00    -0.495 OA
ENDBRANCH  26  33
BRANCH  29  34
ATOM     34  O   UNL     1       4.204   3.803   0.341  0.00  0.00    -0.495 OA
ATOM     35  C   UNL     1       5.569   4.182   0.528  0.00  0.00    +0.277 C 
ENDBRANCH  29  34
ENDBRANCH   1  30
TORSDOF 4
