REMARK  Name = ZINC58231126
REMARK  6 active torsions:
REMARK  status: ('A' for Active; 'I' for Inactive)
REMARK    1  A    between atoms: C_3  and  O_10
REMARK    2  A    between atoms: C_6  and  N_7
REMARK    3  A    between atoms: O_10  and  C_11
REMARK    4  A    between atoms: C_11  and  C_12
REMARK    5  A    between atoms: C_18  and  C_20
REMARK    6  A    between atoms: C_20  and  N_21
REMARK                            x       y       z     vdW  Elec       q    Type
REMARK                         _______ _______ _______ _____ _____    ______ ____
ROOT
ATOM      1  C   UNL     1       5.940   2.274  -0.043  0.00  0.00    +0.256 C 
ATOM      2  O   UNL     1       5.766   3.474  -0.036  0.00  0.00    -0.272 OA
ATOM      3  N   UNL     1       7.192   1.774  -0.058  0.00  0.00    -0.260 N 
ATOM      4  C   UNL     1       8.284   2.635  -0.065  0.00  0.00    +0.188 A 
ATOM      5  N   UNL     1       8.303   3.954  -0.052  0.00  0.00    -0.126 NA
ATOM      6  N   UNL     1       9.386   4.605  -0.060  0.00  0.00    -0.147 NA
ATOM      7  C   UNL     1      10.529   3.950  -0.082  0.00  0.00    +0.086 A 
ATOM      8  S   UNL     1       9.929   2.266  -0.082  0.00  0.00    -0.037 S 
ATOM      9  H   UNL     1       7.331   0.814  -0.064  0.00  0.00    +0.157 HD
ENDROOT
BRANCH   1  10
ATOM     10  C   UNL     1       4.756   1.341  -0.037  0.00  0.00    +0.324 C 
BRANCH  10  11
ATOM     11  O   UNL     1       3.548   2.104  -0.021  0.00  0.00    -0.483 OA
BRANCH  11  14
ATOM     12  C   UNL     1      -0.017   1.378   0.010  0.00  0.00    +0.036 A 
ATOM     13  C   UNL     1       1.169   2.087   0.002  0.00  0.00    +0.048 A 
ATOM     14  C   UNL     1       2.380   1.409  -0.013  0.00  0.00    +0.121 A 
ATOM     15  C   UNL     1       2.396   0.022  -0.021  0.00  0.00    +0.048 A 
ATOM     16  C   UNL     1       1.207  -0.681  -0.013  0.00  0.00    +0.036 A 
ATOM     17  C   UNL     1       0.002  -0.004   0.002  0.00  0.00    +0.126 A 
BRANCH  17  18
ATOM     18  N   UNL     1      -1.270  -0.760   0.011  0.00  0.00    +0.056 N 
ATOM     19  O   UNL     1      -2.325  -0.169   0.024  0.00  0.00    -0.126 OA
ATOM     20  O   UNL     1      -1.255  -1.969   0.004  0.00  0.00    -0.126 OA
ENDBRANCH  17  18
ENDBRANCH  11  14
ENDBRANCH  10  11
ENDBRANCH   1  10
BRANCH   7  21
ATOM     21  C   UNL     1      11.943   4.472  -0.096  0.00  0.00    -0.020 C 
BRANCH  21  22
ATOM     22  N   UNL     1      12.421   4.628   1.285  0.00  0.00    +0.382 N 
ATOM     23  H   UNL     1      11.826   5.279   1.775  0.00  0.00    -0.090 HD
ATOM     24  H   UNL     1      12.397   3.734   1.752  0.00  0.00    -0.090 HD
ATOM     25  H   UNL     1      13.367   4.977   1.276  0.00  0.00    -0.090 HD
ENDBRANCH  21  22
ENDBRANCH   7  21
TORSDOF 6
