REMARK  Name = ZINC35358596
REMARK  4 active torsions:
REMARK  status: ('A' for Active; 'I' for Inactive)
REMARK    1  A    between atoms: C_3  and  S_9
REMARK    2  A    between atoms: N_7  and  N_8
REMARK    3  A    between atoms: S_9  and  N_12
REMARK    4  A    between atoms: N_12  and  C_13
REMARK                            x       y       z     vdW  Elec       q    Type
REMARK                         _______ _______ _______ _____ _____    ______ ____
ROOT
ATOM      1  S   UNL     1       3.845   2.267  -0.182  0.00  0.00    +0.076 S 
ATOM      2  O   UNL     1       4.705   1.440  -0.953  0.00  0.00    -0.150 OA
ATOM      3  O   UNL     1       3.520   3.596  -0.565  0.00  0.00    -0.150 OA
ENDROOT
BRANCH   1   6
ATOM      4  C   UNL     1      -0.059   1.319  -0.149  0.00  0.00    +0.022 A 
ATOM      5  C   UNL     1       1.120   2.041  -0.282  0.00  0.00    +0.034 A 
ATOM      6  C   UNL     1       2.319   1.400  -0.027  0.00  0.00    +0.149 A 
ATOM      7  C   UNL     1       2.303   0.062   0.353  0.00  0.00    +0.159 A 
ATOM      8  N   UNL     1       1.158  -0.592   0.469  0.00  0.00    -0.237 NA
ATOM      9  C   UNL     1      -0.001  -0.006   0.232  0.00  0.00    +0.113 A 
ATOM     10  N   UNL     1       3.500  -0.595   0.612  0.00  0.00    -0.266 N 
ATOM     11  H   UNL     1       4.334  -0.099   0.617  0.00  0.00    +0.167 HD
BRANCH  10  12
ATOM     12  N   UNL     1       3.503  -1.938   0.860  0.00  0.00    -0.255 NA
ATOM     13  H   UNL     1       3.149  -2.453   0.067  0.00  0.00    +0.140 HD
ATOM     14  H   UNL     1       4.426  -2.257   1.115  0.00  0.00    +0.140 HD
ENDBRANCH  10  12
ENDBRANCH   1   6
BRANCH   1  15
ATOM     15  N   UNL     1       4.510   2.360   1.332  0.00  0.00    -0.216 N 
ATOM     16  H   UNL     1       5.362   1.934   1.514  0.00  0.00    +0.174 HD
BRANCH  15  17
ATOM     17  C   UNL     1       3.845   3.054   2.346  0.00  0.00    +0.048 A 
ATOM     18  C   UNL     1       3.288   4.300   2.087  0.00  0.00    +0.025 A 
ATOM     19  C   UNL     1       2.631   4.982   3.092  0.00  0.00    +0.016 A 
ATOM     20  C   UNL     1       2.527   4.427   4.355  0.00  0.00    +0.013 A 
ATOM     21  C   UNL     1       3.080   3.186   4.615  0.00  0.00    +0.016 A 
ATOM     22  C   UNL     1       3.733   2.496   3.613  0.00  0.00    +0.025 A 
ATOM     23  I   UNL     1       1.530   5.467   5.876  0.00  0.00    -0.044 I 
ENDBRANCH  15  17
ENDBRANCH   1  15
TORSDOF 4
