REMARK  Name = ZINC39708722
REMARK  8 active torsions:
REMARK  status: ('A' for Active; 'I' for Inactive)
REMARK    1  A    between atoms: C_1  and  C_2
REMARK    2  A    between atoms: C_2  and  C_3
REMARK    3  A    between atoms: C_3  and  C_5
REMARK    4  A    between atoms: C_3  and  S_18
REMARK    5  A    between atoms: N_7  and  C_8
REMARK    6  A    between atoms: C_11  and  S_14
REMARK    7  A    between atoms: S_14  and  N_17
REMARK    8  A    between atoms: S_18  and  C_19
REMARK                            x       y       z     vdW  Elec       q    Type
REMARK                         _______ _______ _______ _____ _____    ______ ____
ROOT
ATOM      1  C   UNL     1       0.553  -0.268  -1.347  0.00  0.00    +0.140 C 
ENDROOT
BRANCH   1   2
ATOM      2  C   UNL     1       0.335  -1.755  -1.455  0.00  0.00    +0.231 C 
ATOM      3  O   UNL     1       1.226  -2.522  -1.158  0.00  0.00    -0.274 OA
ATOM      4  N   UNL     1      -0.851  -2.233  -1.881  0.00  0.00    -0.285 N 
ATOM      5  H   UNL     1      -1.587  -1.624  -2.051  0.00  0.00    +0.155 HD
BRANCH   4   6
ATOM      6  C   UNL     1      -1.022  -3.608  -2.077  0.00  0.00    +0.034 A 
ATOM      7  C   UNL     1      -0.390  -4.514  -1.235  0.00  0.00    +0.025 A 
ATOM      8  C   UNL     1      -0.561  -5.871  -1.431  0.00  0.00    +0.030 A 
ATOM      9  C   UNL     1      -1.359  -6.327  -2.464  0.00  0.00    +0.105 A 
ATOM     10  C   UNL     1      -1.989  -5.426  -3.304  0.00  0.00    +0.030 A 
ATOM     11  C   UNL     1      -1.828  -4.069  -3.110  0.00  0.00    +0.025 A 
BRANCH   9  12
ATOM     12  S   UNL     1      -1.574  -8.058  -2.711  0.00  0.00    +0.056 S 
ATOM     13  O   UNL     1      -1.929  -8.233  -4.076  0.00  0.00    -0.153 OA
ATOM     14  O   UNL     1      -0.444  -8.694  -2.130  0.00  0.00    -0.153 OA
BRANCH  12  15
ATOM     15  N   UNL     1      -2.889  -8.520  -1.817  0.00  0.00    -0.204 NA
ATOM     16  H   UNL     1      -3.438  -9.264  -2.112  0.00  0.00    +0.144 HD
ATOM     17  H   UNL     1      -3.110  -8.048  -0.999  0.00  0.00    +0.144 HD
ENDBRANCH  12  15
ENDBRANCH   9  12
ENDBRANCH   4   6
ENDBRANCH   1   2
BRANCH   1  19
ATOM     18  C   UNL     1       0.127   1.754   0.058  0.00  0.00    +0.005 C 
ATOM     19  C   UNL     1       0.034   0.227   0.004  0.00  0.00    +0.020 C 
ENDBRANCH   1  19
BRANCH   1  20
ATOM     20  S   UNL     1       2.325   0.095  -1.484  0.00  0.00    -0.072 S 
BRANCH  20  21
ATOM     21  C   UNL     1       2.706  -0.272  -3.165  0.00  0.00    +0.208 C 
ATOM     22  N   UNL     1       1.720  -0.599  -3.965  0.00  0.00    -0.227 NA
ATOM     23  C   UNL     1       2.034  -0.824  -5.374  0.00  0.00    +0.252 C 
ATOM     24  C   UNL     1       3.478  -1.304  -5.420  0.00  0.00    +0.117 C 
ATOM     25  C   UNL     1       3.469  -2.415  -6.208  0.00  0.00    +0.025 A 
ATOM     26  C   UNL     1       4.510  -3.235  -6.709  0.00  0.00    +0.012 A 
ATOM     27  C   UNL     1       4.154  -4.301  -7.474  0.00  0.00    +0.001 A 
ATOM     28  C   UNL     1       2.833  -4.634  -7.793  0.00  0.00    +0.002 A 
ATOM     29  C   UNL     1       1.757  -3.916  -7.374  0.00  0.00    +0.026 A 
ATOM     30  C   UNL     1       2.047  -2.736  -6.543  0.00  0.00    +0.046 A 
ATOM     31  N   UNL     1       1.242  -1.861  -6.021  0.00  0.00    -0.358 N 
ATOM     32  N   UNL     1       4.421  -0.736  -4.662  0.00  0.00    -0.147 NA
ATOM     33  N   UNL     1       4.002  -0.195  -3.558  0.00  0.00    -0.122 NA
ATOM     34  H   UNL     1       0.274  -1.893  -6.055  0.00  0.00    +0.162 HD
ENDBRANCH  20  21
ENDBRANCH   1  20
TORSDOF 7
