REMARK  Name = ZINC13020126
REMARK  11 active torsions:
REMARK  status: ('A' for Active; 'I' for Inactive)
REMARK    1  A    between atoms: C_1  and  C_2
REMARK    2  A    between atoms: C_2  and  N_3
REMARK    3  A    between atoms: N_3  and  C_4
REMARK    4  A    between atoms: C_12  and  C_14
REMARK    5  A    between atoms: C_14  and  C_16
REMARK    6  A    between atoms: C_14  and  S_17
REMARK    7  A    between atoms: S_17  and  C_18
REMARK    8  A    between atoms: C_21  and  C_26
REMARK    9  A    between atoms: N_22  and  C_23
REMARK   10  A    between atoms: C_23  and  C_24
REMARK   11  A    between atoms: C_30  and  C_32
REMARK                            x       y       z     vdW  Elec       q    Type
REMARK                         _______ _______ _______ _____ _____    ______ ____
ROOT
ATOM      1  C   UNL     1       0.051   0.595   0.262  0.00  0.00    +0.193 A 
ATOM      2  N   UNL     1      -0.316   1.825  -0.022  0.00  0.00    -0.122 NA
ATOM      3  N   UNL     1       0.718   2.578  -0.138  0.00  0.00    -0.128 NA
ATOM      4  C   UNL     1       1.809   1.877   0.065  0.00  0.00    +0.165 A 
ATOM      5  N   UNL     1       1.415   0.585   0.328  0.00  0.00    -0.291 N 
ENDROOT
BRANCH   4   6
ATOM      6  C   UNL     1       3.198   2.380   0.021  0.00  0.00    +0.020 A 
ATOM      7  C   UNL     1       4.261   1.490  -0.143  0.00  0.00    +0.011 A 
ATOM      8  C   UNL     1       5.555   1.966  -0.184  0.00  0.00    +0.001 A 
ATOM      9  C   UNL     1       5.801   3.323  -0.063  0.00  0.00    +0.003 A 
ATOM     10  C   UNL     1       4.752   4.210   0.099  0.00  0.00    -0.050 A 
ATOM     11  C   UNL     1       3.452   3.748   0.136  0.00  0.00    +0.015 A 
ATOM     12  C   UNL     1       5.028   5.686   0.228  0.00  0.00    +0.044 C 
ENDBRANCH   4   6
BRANCH   1  13
ATOM     13  S   UNL     1      -1.018  -0.784   0.512  0.00  0.00    -0.073 S 
BRANCH  13  14
ATOM     14  C   UNL     1      -2.623   0.014   0.263  0.00  0.00    +0.137 C 
ATOM     15  C   UNL     1      -2.736   0.493  -1.185  0.00  0.00    +0.029 C 
BRANCH  14  17
ATOM     16  N   UNL     1      -4.926  -0.535   0.979  0.00  0.00    -0.296 N 
ATOM     17  C   UNL     1      -3.725  -0.973   0.553  0.00  0.00    +0.229 C 
ATOM     18  O   UNL     1      -3.530  -2.160   0.404  0.00  0.00    -0.274 OA
BRANCH  16  19
ATOM     19  C   UNL     1      -5.960  -1.498   1.369  0.00  0.00    +0.098 C 
ATOM     20  C   UNL     1      -5.439  -2.386   2.511  0.00  0.00    +0.046 C 
ATOM     21  C   UNL     1      -6.382  -3.596   2.711  0.00  0.00    +0.168 C 
ATOM     22  S   UNL     1      -7.093  -3.836   1.032  0.00  0.00    -0.029 S 
ATOM     23  O   UNL     1      -8.497  -3.621   1.090  0.00  0.00    -0.174 OA
ATOM     24  O   UNL     1      -6.593  -5.048   0.486  0.00  0.00    -0.174 OA
ATOM     25  C   UNL     1      -6.306  -2.416   0.161  0.00  0.00    +0.188 C 
ENDBRANCH  16  19
BRANCH  16  27
ATOM     26  C   UNL     1      -5.910   1.351  -0.228  0.00  0.00    +0.024 C 
ATOM     27  C   UNL     1      -5.199   0.902   1.051  0.00  0.00    +0.105 C 
ENDBRANCH  16  27
ENDBRANCH  14  17
ENDBRANCH  13  14
ENDBRANCH   1  13
BRANCH   5  28
ATOM     28  C   UNL     1       2.279  -0.562   0.617  0.00  0.00    +0.250 C 
BRANCH  28  29
ATOM     29  C   UNL     1       2.593  -1.291  -0.664  0.00  0.00    +0.375 C 
ATOM     30  O   UNL     1       2.141  -0.892  -1.712  0.00  0.00    -0.244 OA
ATOM     31  O   UNL     1       3.374  -2.382  -0.642  0.00  0.00    -0.244 OA
ENDBRANCH  28  29
ENDBRANCH   5  28
TORSDOF 8
