REMARK  Name = ZINC53070503
REMARK  14 active torsions:
REMARK  status: ('A' for Active; 'I' for Inactive)
REMARK    1  A    between atoms: C_1  and  C_2
REMARK    2  A    between atoms: C_2  and  C_3
REMARK    3  A    between atoms: C_3  and  C_4
REMARK    4  A    between atoms: C_3  and  C_6
REMARK    5  A    between atoms: C_3  and  N_8
REMARK    6  A    between atoms: C_4  and  C_5
REMARK    7  A    between atoms: C_6  and  O_7
REMARK    8  A    between atoms: N_8  and  C_9
REMARK    9  A    between atoms: C_9  and  C_10
REMARK   10  A    between atoms: C_10  and  C_12
REMARK   11  A    between atoms: C_10  and  O_22
REMARK   12  A    between atoms: C_12  and  O_13
REMARK   13  A    between atoms: O_13  and  C_14
REMARK   14  A    between atoms: C_17  and  C_21
REMARK                            x       y       z     vdW  Elec       q    Type
REMARK                         _______ _______ _______ _____ _____    ______ ____
ROOT
ATOM      1  C   UNL     1       1.446  -3.970  -2.482  0.00  0.00    +0.135 C 
ENDROOT
BRANCH   1   2
ATOM      2  O   UNL     1       2.138  -4.443  -1.324  0.00  0.00    -0.390 OA
ATOM      3  H   UNL     1       3.056  -4.146  -1.265  0.00  0.00    +0.210 HD
ENDBRANCH   1   2
BRANCH   1   4
ATOM      4  C   UNL     1       1.426  -2.440  -2.474  0.00  0.00    -0.047 C 
BRANCH   4   5
ATOM      5  N   UNL     1       0.738  -1.966  -1.265  0.00  0.00    +0.386 N 
ATOM      6  H   UNL     1       1.226  -2.301  -0.447  0.00  0.00    -0.085 HD
ATOM      7  H   UNL     1      -0.208  -2.316  -1.258  0.00  0.00    -0.085 HD
BRANCH   5   8
ATOM      8  C   UNL     1       0.718  -0.497  -1.257  0.00  0.00    -0.045 C 
BRANCH   8  10
ATOM      9  C   UNL     1      -0.019   1.526   0.010  0.00  0.00    +0.002 C 
ATOM     10  C   UNL     1       0.002  -0.004   0.002  0.00  0.00    -0.014 C 
ENDBRANCH   8  10
BRANCH   8  11
ATOM     11  C   UNL     1      -0.022   0.009  -2.496  0.00  0.00    -0.014 C 
ATOM     12  C   UNL     1      -1.457  -0.520  -2.486  0.00  0.00    +0.002 C 
ENDBRANCH   8  11
BRANCH   8  13
ATOM     13  C   UNL     1       2.154   0.032  -1.268  0.00  0.00    +0.143 C 
BRANCH  13  14
ATOM     14  O   UNL     1       2.878  -0.534  -0.174  0.00  0.00    -0.396 OA
ATOM     15  H   UNL     1       3.799  -0.242  -0.119  0.00  0.00    +0.209 HD
ENDBRANCH  13  14
ENDBRANCH   8  13
ENDBRANCH   5   8
ENDBRANCH   4   5
ENDBRANCH   1   4
BRANCH   1  16
ATOM     16  C   UNL     1       2.163  -4.463  -3.741  0.00  0.00    +0.258 C 
BRANCH  16  17
ATOM     17  O   UNL     1       2.080  -5.888  -3.808  0.00  0.00    -0.488 OA
BRANCH  17  18
ATOM     18  C   UNL     1       2.671  -6.491  -4.873  0.00  0.00    +0.135 A 
ATOM     19  C   UNL     1       3.321  -5.727  -5.832  0.00  0.00    +0.047 A 
ATOM     20  C   UNL     1       3.920  -6.342  -6.914  0.00  0.00    +0.007 A 
ATOM     21  C   UNL     1       3.873  -7.718  -7.043  0.00  0.00    -0.049 A 
ATOM     22  C   UNL     1       3.226  -8.482  -6.090  0.00  0.00    +0.022 A 
ATOM     23  C   UNL     1       2.630  -7.872  -5.002  0.00  0.00    +0.060 A 
ATOM     24 BR   UNL     1       1.752  -8.919  -3.694  0.00  0.00    -0.047 Br
ATOM     25  C   UNL     1       4.527  -8.385  -8.225  0.00  0.00    +0.044 C 
ENDBRANCH  17  18
ENDBRANCH  16  17
ENDBRANCH   1  16
TORSDOF 11
