REMARK  Name = ZINC09047615
REMARK  10 active torsions:
REMARK  status: ('A' for Active; 'I' for Inactive)
REMARK    1  A    between atoms: C_1  and  C_2
REMARK    2  A    between atoms: C_3  and  C_23
REMARK    3  A    between atoms: C_4  and  N_10
REMARK    4  A    between atoms: C_6  and  C_7
REMARK    5  A    between atoms: C_11  and  C_13
REMARK    6  A    between atoms: N_15  and  C_16
REMARK    7  A    between atoms: C_16  and  C_17
REMARK    8  A    between atoms: C_17  and  N_51
REMARK    9  A    between atoms: C_23  and  O_25
REMARK   10  A    between atoms: O_25  and  C_26
REMARK                            x       y       z     vdW  Elec       q    Type
REMARK                         _______ _______ _______ _____ _____    ______ ____
ROOT
ATOM      1  N   UNL     1      -3.645  -4.874   0.667  0.00  0.00    -0.272 N 
ATOM      2  C   UNL     1      -2.507  -4.183   0.457  0.00  0.00    +0.304 C 
ATOM      3  O   UNL     1      -1.466  -4.775   0.261  0.00  0.00    -0.265 OA
ATOM      4  H   UNL     1      -4.478  -4.401   0.823  0.00  0.00    +0.156 HD
ENDROOT
BRANCH   1   8
ATOM      5  C   UNL     1      -5.503  -9.523   0.999  0.00  0.00    +0.046 C 
ATOM      6  C   UNL     1      -4.416  -8.499   0.799  0.00  0.00    -0.015 A 
ATOM      7  C   UNL     1      -4.691  -7.141   0.855  0.00  0.00    +0.091 A 
ATOM      8  C   UNL     1      -3.627  -6.253   0.659  0.00  0.00    +0.087 A 
ATOM      9  S   UNL     1      -2.281  -7.314   0.398  0.00  0.00    -0.068 S 
ATOM     10  C   UNL     1      -3.123  -8.877   0.557  0.00  0.00    +0.079 A 
BRANCH  10  11
ATOM     11  C   UNL     1      -2.571 -10.229   0.449  0.00  0.00    +0.248 C 
ATOM     12  O   UNL     1      -3.298 -11.196   0.581  0.00  0.00    -0.270 OA
ATOM     13  N   UNL     1      -1.257 -10.402   0.203  0.00  0.00    -0.325 N 
ATOM     14  H   UNL     1      -0.677  -9.631   0.098  0.00  0.00    +0.145 HD
ATOM     15  H   UNL     1      -0.891 -11.297   0.132  0.00  0.00    +0.145 HD
ENDBRANCH  10  11
BRANCH   7  16
ATOM     16  C   UNL     1      -6.050  -6.651   1.110  0.00  0.00    +0.342 C 
ATOM     17  O   UNL     1      -6.807  -6.445   0.181  0.00  0.00    -0.245 OA
BRANCH  16  18
ATOM     18  O   UNL     1      -6.460  -6.430   2.375  0.00  0.00    -0.464 OA
ATOM     19  C   UNL     1      -7.818  -5.946   2.553  0.00  0.00    +0.280 C 
ENDBRANCH  16  18
ENDBRANCH   7  16
ENDBRANCH   1   8
BRANCH   2  20
ATOM     20  C   UNL     1      -2.527  -2.690   0.465  0.00  0.00    +0.299 C 
ATOM     21  O   UNL     1      -3.569  -2.098   0.661  0.00  0.00    -0.265 OA
ATOM     22  N   UNL     1      -1.389  -2.000   0.255  0.00  0.00    -0.309 N 
ATOM     23  H   UNL     1      -0.557  -2.472   0.099  0.00  0.00    +0.149 HD
BRANCH  22  24
ATOM     24  C   UNL     1      -1.409  -0.535   0.263  0.00  0.00    +0.086 C 
BRANCH  24  25
ATOM     25  C   UNL     1       0.002  -0.004   0.002  0.00  0.00    -0.060 C 
BRANCH  25  31
ATOM     26  C   UNL     1      -0.806   1.987  -1.113  0.00  0.00    -0.079 C 
ATOM     27  C   UNL     1      -0.927   3.507  -0.991  0.00  0.00    -0.019 C 
ATOM     28  C   UNL     1       0.473   4.127  -0.995  0.00  0.00    -0.004 C 
ATOM     29  C   UNL     1       1.290   3.531   0.155  0.00  0.00    -0.019 C 
ATOM     30  C   UNL     1       1.346   2.010   0.000  0.00  0.00    -0.079 C 
ATOM     31  N   UNL     1      -0.031   1.473   0.036  0.00  0.00    +0.381 N 
ATOM     32  H   UNL     1      -0.485   1.776   0.906  0.00  0.00    -0.082 HD
ENDBRANCH  25  31
ENDBRANCH  24  25
ENDBRANCH  22  24
ENDBRANCH   2  20
TORSDOF 8
