REMARK  Name = ZINC66107971
REMARK  11 active torsions:
REMARK  status: ('A' for Active; 'I' for Inactive)
REMARK    1  A    between atoms: C_1  and  C_2
REMARK    2  A    between atoms: C_2  and  C_4
REMARK    3  A    between atoms: C_2  and  N_10
REMARK    4  A    between atoms: C_11  and  C_13
REMARK    5  A    between atoms: C_16  and  N_19
REMARK    6  A    between atoms: C_20  and  C_22
REMARK    7  A    between atoms: C_22  and  N_23
REMARK    8  A    between atoms: N_23  and  C_24
REMARK    9  A    between atoms: C_27  and  C_30
REMARK   10  A    between atoms: N_32  and  C_33
REMARK   11  A    between atoms: C_33  and  C_34
REMARK                            x       y       z     vdW  Elec       q    Type
REMARK                         _______ _______ _______ _____ _____    ______ ____
ROOT
ATOM      1  N   UNL     1       4.782  -2.469   5.744  0.00  0.00    -0.284 N 
ATOM      2  C   UNL     1       6.114  -2.670   5.699  0.00  0.00    +0.234 C 
ATOM      3  O   UNL     1       6.740  -2.364   4.706  0.00  0.00    -0.274 OA
ATOM      4  H   UNL     1       4.293  -2.641   6.564  0.00  0.00    +0.155 HD
ENDROOT
BRANCH   1   8
ATOM      5  C   UNL     1       2.764  -1.108   2.364  0.00  0.00    +0.037 A 
ATOM      6  C   UNL     1       3.870  -1.951   2.227  0.00  0.00    +0.015 A 
ATOM      7  C   UNL     1       4.535  -2.399   3.346  0.00  0.00    +0.024 A 
ATOM      8  C   UNL     1       4.107  -2.013   4.613  0.00  0.00    +0.033 A 
ATOM      9  C   UNL     1       3.006  -1.173   4.752  0.00  0.00    +0.024 A 
ATOM     10  C   UNL     1       2.340  -0.717   3.637  0.00  0.00    +0.015 A 
BRANCH   5  12
ATOM     11  N   UNL     1       2.459  -1.003  -0.061  0.00  0.00    -0.305 N 
ATOM     12  C   UNL     1       2.049  -0.625   1.166  0.00  0.00    +0.245 C 
ATOM     13  O   UNL     1       1.090   0.112   1.287  0.00  0.00    -0.270 OA
ATOM     14  H   UNL     1       3.224  -1.591  -0.157  0.00  0.00    +0.150 HD
BRANCH  11  16
ATOM     15  C   UNL     1       0.552  -1.435  -1.530  0.00  0.00    +0.033 C 
ATOM     16  C   UNL     1       1.749  -0.524  -1.250  0.00  0.00    +0.100 C 
BRANCH  16  17
ATOM     17  C   UNL     1       2.682  -0.542  -2.433  0.00  0.00    -0.027 A 
ATOM     18  C   UNL     1       3.561  -1.596  -2.605  0.00  0.00    +0.005 A 
ATOM     19  C   UNL     1       4.416  -1.613  -3.690  0.00  0.00    +0.000 A 
ATOM     20  C   UNL     1       4.393  -0.576  -4.604  0.00  0.00    +0.000 A 
ATOM     21  C   UNL     1       3.514   0.477  -4.434  0.00  0.00    +0.000 A 
ATOM     22  C   UNL     1       2.655   0.492  -3.350  0.00  0.00    +0.005 A 
ENDBRANCH  16  17
ENDBRANCH  11  16
ENDBRANCH   5  12
ENDBRANCH   1   8
BRANCH   2  23
ATOM     23  C   UNL     1       6.826  -3.274   6.881  0.00  0.00    +0.198 C 
BRANCH  23  24
ATOM     24  N   UNL     1       8.256  -3.388   6.585  0.00  0.00    -0.335 N 
ATOM     25  H   UNL     1       8.599  -3.092   5.727  0.00  0.00    +0.147 HD
BRANCH  24  26
ATOM     26  C   UNL     1       9.122  -3.922   7.533  0.00  0.00    +0.028 A 
ATOM     27  C   UNL     1       8.628  -4.352   8.761  0.00  0.00    +0.023 A 
ATOM     28  C   UNL     1       9.483  -4.880   9.701  0.00  0.00    +0.015 A 
ATOM     29  C   UNL     1      10.848  -4.985   9.422  0.00  0.00    +0.037 A 
ATOM     30  C   UNL     1      11.342  -4.551   8.188  0.00  0.00    +0.015 A 
ATOM     31  C   UNL     1      10.481  -4.029   7.250  0.00  0.00    +0.023 A 
BRANCH  29  32
ATOM     32  C   UNL     1      11.768  -5.550  10.428  0.00  0.00    +0.244 C 
ATOM     33  O   UNL     1      11.337  -5.926  11.501  0.00  0.00    -0.270 OA
ATOM     34  N   UNL     1      13.084  -5.650  10.157  0.00  0.00    -0.304 N 
ATOM     35  H   UNL     1      13.427  -5.350   9.301  0.00  0.00    +0.149 HD
BRANCH  34  36
ATOM     36  C   UNL     1      13.997  -6.211  11.156  0.00  0.00    +0.179 C 
BRANCH  36  37
ATOM     37  C   UNL     1      15.401  -6.211  10.610  0.00  0.00    +0.122 A 
ATOM     38  C   UNL     1      16.297  -5.216  10.743  0.00  0.00    +0.046 A 
ATOM     39  C   UNL     1      17.475  -5.634  10.082  0.00  0.00    +0.041 A 
ATOM     40  C   UNL     1      17.229  -6.859   9.585  0.00  0.00    +0.195 A 
ATOM     41  O   UNL     1      15.973  -7.206   9.913  0.00  0.00    -0.466 OA
ENDBRANCH  36  37
ENDBRANCH  34  36
ENDBRANCH  29  32
ENDBRANCH  24  26
ENDBRANCH  23  24
ENDBRANCH   2  23
TORSDOF 10
