REMARK  Name = ZINC40978897
REMARK  13 active torsions:
REMARK  status: ('A' for Active; 'I' for Inactive)
REMARK    1  A    between atoms: C_1  and  C_2
REMARK    2  A    between atoms: C_3  and  C_30
REMARK    3  A    between atoms: C_4  and  C_12
REMARK    4  A    between atoms: C_15  and  O_18
REMARK    5  A    between atoms: O_18  and  C_19
REMARK    6  A    between atoms: C_19  and  C_20
REMARK    7  A    between atoms: C_23  and  C_26
REMARK    8  A    between atoms: C_26  and  C_27
REMARK    9  A    between atoms: C_26  and  C_28
REMARK   10  A    between atoms: C_26  and  C_29
REMARK   11  A    between atoms: C_30  and  O_32
REMARK   12  A    between atoms: O_32  and  C_33
REMARK   13  A    between atoms: C_33  and  C_34
REMARK                            x       y       z     vdW  Elec       q    Type
REMARK                         _______ _______ _______ _____ _____    ______ ____
ROOT
ATOM      1  C   UNL     1      -1.723  -2.643   1.360  0.00  0.00    -0.018 A 
ATOM      2  C   UNL     1      -0.983  -2.345   2.489  0.00  0.00    +0.009 A 
ATOM      3  C   UNL     1      -1.410  -2.777   3.730  0.00  0.00    +0.046 A 
ATOM      4  C   UNL     1      -2.582  -3.510   3.843  0.00  0.00    +0.121 A 
ATOM      5  C   UNL     1      -3.324  -3.807   2.709  0.00  0.00    +0.046 A 
ATOM      6  C   UNL     1      -2.895  -3.368   1.471  0.00  0.00    +0.009 A 
ENDROOT
BRANCH   1  10
ATOM      7  C   UNL     1      -0.018   1.503   0.010  0.00  0.00    +0.061 C 
ATOM      8  C   UNL     1       0.002  -0.004   0.002  0.00  0.00    +0.020 C 
ATOM      9  C   UNL     1      -1.165  -0.668   0.004  0.00  0.00    +0.082 C 
ATOM     10  C   UNL     1      -1.255  -2.171   0.008  0.00  0.00    +0.181 C 
ATOM     11  N   UNL     1       0.058  -2.736  -0.277  0.00  0.00    -0.201 N 
ATOM     12  C   UNL     1       1.208  -2.011  -0.275  0.00  0.00    +0.240 A 
ATOM     13  N   UNL     1       2.180  -2.829  -0.561  0.00  0.00    -0.092 NA
ATOM     14  N   UNL     1       1.723  -4.020  -0.747  0.00  0.00    -0.021 NA
ATOM     15  N   UNL     1       0.438  -4.039  -0.592  0.00  0.00    -0.042 NA
ATOM     16  N   UNL     1       1.213  -0.650  -0.013  0.00  0.00    -0.286 N 
ATOM     17  H   UNL     1       2.041  -0.174   0.157  0.00  0.00    +0.155 HD
BRANCH   9  18
ATOM     18  C   UNL     1      -2.364   0.079   0.003  0.00  0.00    +0.339 C 
ATOM     19  O   UNL     1      -2.323   1.295   0.001  0.00  0.00    -0.245 OA
BRANCH  18  20
ATOM     20  O   UNL     1      -3.554  -0.556   0.005  0.00  0.00    -0.457 OA
BRANCH  20  21
ATOM     21  C   UNL     1      -4.726   0.262   0.004  0.00  0.00    +0.259 C 
BRANCH  21  22
ATOM     22  C   UNL     1      -5.951  -0.616   0.007  0.00  0.00    +0.006 C 
ATOM     23  C   UNL     1      -6.950  -0.344   0.809  0.00  0.00    +0.007 C 
ENDBRANCH  21  22
ENDBRANCH  20  21
ENDBRANCH  18  20
ENDBRANCH   9  18
ENDBRANCH   1  10
BRANCH   4  24
ATOM     24  O   UNL     1      -3.004  -3.936   5.062  0.00  0.00    -0.487 OA
BRANCH  24  25
ATOM     25  C   UNL     1      -4.220  -4.686   5.103  0.00  0.00    +0.264 C 
BRANCH  25  26
ATOM     26  C   UNL     1      -4.526  -5.070   6.528  0.00  0.00    -0.010 A 
ATOM     27  C   UNL     1      -4.041  -6.258   7.043  0.00  0.00    +0.007 A 
ATOM     28  C   UNL     1      -4.322  -6.610   8.350  0.00  0.00    +0.004 A 
ATOM     29  C   UNL     1      -5.087  -5.774   9.142  0.00  0.00    -0.042 A 
ATOM     30  C   UNL     1      -5.571  -4.586   8.627  0.00  0.00    +0.004 A 
ATOM     31  C   UNL     1      -5.287  -4.232   7.321  0.00  0.00    +0.007 A 
BRANCH  29  32
ATOM     32  C   UNL     1      -5.394  -6.159  10.566  0.00  0.00    -0.013 C 
ATOM     33  C   UNL     1      -4.087  -6.312  11.346  0.00  0.00    +0.015 C 
ATOM     34  C   UNL     1      -6.250  -5.069  11.215  0.00  0.00    +0.015 C 
ATOM     35  C   UNL     1      -6.157  -7.485  10.583  0.00  0.00    +0.015 C 
ENDBRANCH  29  32
ENDBRANCH  25  26
ENDBRANCH  24  25
ENDBRANCH   4  24
TORSDOF 9
