REMARK  Name = ZINC08868984
REMARK  8 active torsions:
REMARK  status: ('A' for Active; 'I' for Inactive)
REMARK    1  A    between atoms: C_1  and  N_58
REMARK    2  A    between atoms: C_7  and  N_12
REMARK    3  A    between atoms: C_8  and  C_9
REMARK    4  A    between atoms: C_13  and  C_15
REMARK    5  A    between atoms: N_20  and  S_21
REMARK    6  A    between atoms: S_21  and  C_24
REMARK    7  A    between atoms: C_27  and  O_30
REMARK    8  A    between atoms: O_30  and  C_31
REMARK                            x       y       z     vdW  Elec       q    Type
REMARK                         _______ _______ _______ _____ _____    ______ ____
ROOT
ATOM      1  N   UNL     1      -5.734  -6.600   2.401  0.00  0.00    -0.278 N 
ATOM      2  C   UNL     1      -5.913  -5.397   1.821  0.00  0.00    +0.236 C 
ATOM      3  O   UNL     1      -6.576  -5.303   0.809  0.00  0.00    -0.274 OA
ATOM      4  H   UNL     1      -5.204  -6.675   3.209  0.00  0.00    +0.155 HD
ENDROOT
BRANCH   1  11
ATOM      5  C   UNL     1      -8.913 -12.701  -1.145  0.00  0.00    -0.096 C 
ATOM      6  C   UNL     1      -8.131 -12.177   1.087  0.00  0.00    -0.074 C 
ATOM      7  C   UNL     1      -6.969 -11.537   1.853  0.00  0.00    +0.018 C 
ATOM      8  C   UNL     1      -6.935 -10.053   1.511  0.00  0.00    -0.027 A 
ATOM      9  C   UNL     1      -7.587  -9.592   0.419  0.00  0.00    -0.021 A 
ATOM     10  S   UNL     1      -7.292  -7.848   0.419  0.00  0.00    -0.079 S 
ATOM     11  C   UNL     1      -6.308  -7.731   1.841  0.00  0.00    +0.084 A 
ATOM     12  C   UNL     1      -6.238  -9.045   2.287  0.00  0.00    +0.068 A 
ATOM     13  C   UNL     1      -8.380 -10.410  -0.553  0.00  0.00    -0.036 C 
ATOM     14  N   UNL     1      -8.021 -11.834  -0.346  0.00  0.00    +0.381 N 
ATOM     15  H   UNL     1      -7.051 -11.982  -0.651  0.00  0.00    -0.082 HD
BRANCH  12  16
ATOM     16  C   UNL     1      -5.487  -9.399   3.496  0.00  0.00    +0.244 C 
ATOM     17  O   UNL     1      -6.041  -9.395   4.579  0.00  0.00    -0.270 OA
ATOM     18  N   UNL     1      -4.183  -9.729   3.407  0.00  0.00    -0.325 N 
ATOM     19  H   UNL     1      -3.742  -9.733   2.543  0.00  0.00    +0.145 HD
ATOM     20  H   UNL     1      -3.687  -9.964   4.207  0.00  0.00    +0.145 HD
ENDBRANCH  12  16
ENDBRANCH   1  11
BRANCH   2  21
ATOM     21  C   UNL     1      -5.290  -4.167   2.429  0.00  0.00    +0.166 C 
ATOM     22  C   UNL     1      -5.859  -3.932   3.844  0.00  0.00    +0.031 C 
ATOM     23  C   UNL     1      -6.000  -2.388   3.912  0.00  0.00    +0.019 C 
ATOM     24  C   UNL     1      -6.401  -2.048   2.455  0.00  0.00    +0.110 C 
ATOM     25  N   UNL     1      -5.625  -2.985   1.622  0.00  0.00    -0.165 NA
BRANCH  25  26
ATOM     26  S   UNL     1      -5.207  -2.748   0.037  0.00  0.00    +0.062 S 
ATOM     27  O   UNL     1      -6.152  -1.833  -0.500  0.00  0.00    -0.153 OA
ATOM     28  O   UNL     1      -4.991  -4.036  -0.523  0.00  0.00    -0.153 OA
BRANCH  26  29
ATOM     29  C   UNL     1      -3.648  -1.927   0.026  0.00  0.00    +0.106 A 
ATOM     30  C   UNL     1      -2.479  -2.665   0.011  0.00  0.00    +0.032 A 
ATOM     31  C   UNL     1      -1.255  -2.024   0.003  0.00  0.00    +0.047 A 
ATOM     32  C   UNL     1      -1.200  -0.637   0.010  0.00  0.00    +0.120 A 
ATOM     33  C   UNL     1      -2.374   0.101   0.031  0.00  0.00    +0.047 A 
ATOM     34  C   UNL     1      -3.595  -0.545   0.033  0.00  0.00    +0.032 A 
BRANCH  32  35
ATOM     35  O   UNL     1       0.002  -0.004   0.002  0.00  0.00    -0.495 OA
ATOM     36  C   UNL     1      -0.017   1.425   0.010  0.00  0.00    +0.277 C 
ENDBRANCH  32  35
ENDBRANCH  26  29
ENDBRANCH  25  26
ENDBRANCH   2  21
TORSDOF 6
