REMARK  Name = ZINC51347650
REMARK  15 active torsions:
REMARK  status: ('A' for Active; 'I' for Inactive)
REMARK    1  A    between atoms: C_1  and  C_2
REMARK    2  A    between atoms: C_2  and  C_3
REMARK    3  A    between atoms: C_2  and  C_4
REMARK    4  A    between atoms: C_4  and  N_5
REMARK    5  A    between atoms: C_6  and  C_8
REMARK    6  A    between atoms: C_8  and  C_9
REMARK    7  A    between atoms: C_9  and  C_10
REMARK    8  A    between atoms: C_10  and  O_12
REMARK    9  A    between atoms: O_12  and  C_13
REMARK   10  A    between atoms: C_13  and  C_14
REMARK   11  A    between atoms: C_14  and  C_16
REMARK   12  A    between atoms: C_16  and  O_41
REMARK   13  A    between atoms: C_21  and  C_40
REMARK   14  A    between atoms: C_23  and  O_39
REMARK   15  A    between atoms: C_37  and  C_38
REMARK                            x       y       z     vdW  Elec       q    Type
REMARK                         _______ _______ _______ _____ _____    ______ ____
ROOT
ATOM      1  C   UNL     1     -10.345  -0.375  -6.697  0.00  0.00    +0.133 C 
ATOM      2  C   UNL     1     -10.215  -1.506  -7.743  0.00  0.00    +0.043 C 
ATOM      3  C   UNL     1     -11.616  -1.706  -8.351  0.00  0.00    +0.008 C 
ATOM      4  C   UNL     1     -12.536  -0.650  -7.680  0.00  0.00    +0.002 C 
ATOM      5  C   UNL     1     -11.842  -0.396  -6.334  0.00  0.00    +0.009 C 
ATOM      6  C   UNL     1     -12.296   0.881  -5.668  0.00  0.00    +0.041 C 
ATOM      7  C   UNL     1     -12.126   2.067  -6.613  0.00  0.00    +0.119 C 
ATOM      8  C   UNL     1     -12.983   1.835  -7.866  0.00  0.00    +0.031 C 
ATOM      9  C   UNL     1     -12.524   0.579  -8.598  0.00  0.00    -0.001 C 
ATOM     10  C   UNL     1     -13.374   0.237  -9.819  0.00  0.00    +0.008 C 
ATOM     11  C   UNL     1     -13.946   1.471 -10.501  0.00  0.00    +0.032 C 
ATOM     12  C   UNL     1     -13.057   2.656 -10.219  0.00  0.00    -0.060 C 
ATOM     13  C   UNL     1     -12.474   3.317 -11.213  0.00  0.00    +0.046 C 
ATOM     14  C   UNL     1     -11.600   4.459 -10.948  0.00  0.00    +0.156 C 
ATOM     15  O   UNL     1     -11.096   5.065 -11.870  0.00  0.00    -0.293 OA
ATOM     16  C   UNL     1     -11.326   4.884  -9.527  0.00  0.00    +0.080 C 
ATOM     17  C   UNL     1     -11.460   3.663  -8.609  0.00  0.00    +0.019 C 
ATOM     18  C   UNL     1     -12.822   3.075  -8.754  0.00  0.00    -0.005 C 
ATOM     19  C   UNL     1     -13.873   4.118  -8.369  0.00  0.00    +0.016 C 
ATOM     20  C   UNL     1     -12.117  -1.571  -5.394  0.00  0.00    +0.015 C 
ENDROOT
BRANCH   1  21
ATOM     21  C   UNL     1      -9.501  -0.672  -5.485  0.00  0.00    +0.202 C 
ATOM     22  O   UNL     1      -9.203  -1.812  -5.221  0.00  0.00    -0.291 OA
BRANCH  21  23
ATOM     23  C   UNL     1      -9.027   0.454  -4.602  0.00  0.00    +0.309 C 
BRANCH  23  24
ATOM     24  O   UNL     1      -8.250  -0.078  -3.527  0.00  0.00    -0.457 OA
BRANCH  24  25
ATOM     25  C   UNL     1      -7.750   0.801  -2.644  0.00  0.00    +0.308 C 
ATOM     26  O   UNL     1      -7.965   1.982  -2.779  0.00  0.00    -0.251 OA
BRANCH  25  27
ATOM     27  C   UNL     1      -6.920   0.313  -1.484  0.00  0.00    +0.130 C 
BRANCH  27  28
ATOM     28  C   UNL     1      -6.477   1.508  -0.636  0.00  0.00    +0.107 C 
BRANCH  28  30
ATOM     29  N   UNL     1      -5.146   1.902   1.410  0.00  0.00    -0.315 N 
ATOM     30  C   UNL     1      -5.648   1.020   0.523  0.00  0.00    +0.214 C 
ATOM     31  O   UNL     1      -5.432  -0.165   0.659  0.00  0.00    -0.276 OA
ATOM     32  H   UNL     1      -5.318   2.851   1.302  0.00  0.00    +0.149 HD
BRANCH  29  33
ATOM     33  C   UNL     1      -4.339   1.429   2.538  0.00  0.00    +0.107 C 
BRANCH  33  35
ATOM     34  C   UNL     1      -5.124   3.284   4.015  0.00  0.00    +0.009 C 
ATOM     35  C   UNL     1      -3.896   2.623   3.385  0.00  0.00    -0.000 C 
ATOM     36  C   UNL     1      -2.952   2.143   4.490  0.00  0.00    +0.009 C 
ENDBRANCH  33  35
ENDBRANCH  29  33
ENDBRANCH  28  30
ENDBRANCH  27  28
ENDBRANCH  25  27
ENDBRANCH  24  25
ENDBRANCH  23  24
ENDBRANCH  21  23
ENDBRANCH   1  21
BRANCH   7  37
ATOM     37  O   UNL     1     -12.547   3.265  -5.958  0.00  0.00    -0.391 OA
ATOM     38  H   UNL     1     -12.051   3.469  -5.153  0.00  0.00    +0.210 HD
ENDBRANCH   7  37
BRANCH   1  39
ATOM     39  O   UNL     1      -9.983   0.885  -7.265  0.00  0.00    -0.380 OA
ATOM     40  H   UNL     1      -9.058   0.940  -7.543  0.00  0.00    +0.211 HD
ENDBRANCH   1  39
TORSDOF 11
