REMARK  Name = ZINC58299821
REMARK  8 active torsions:
REMARK  status: ('A' for Active; 'I' for Inactive)
REMARK    1  A    between atoms: C_4  and  C_7
REMARK    2  A    between atoms: C_7  and  S_8
REMARK    3  A    between atoms: S_8  and  N_11
REMARK    4  A    between atoms: N_11  and  C_12
REMARK    5  A    between atoms: C_12  and  C_13
REMARK    6  A    between atoms: C_13  and  N_14
REMARK    7  A    between atoms: N_14  and  C_15
REMARK    8  A    between atoms: C_15  and  C_16
REMARK                            x       y       z     vdW  Elec       q    Type
REMARK                         _______ _______ _______ _____ _____    ______ ____
ROOT
ATOM      1  C   UNL     1       8.121  -1.939   1.223  0.00  0.00    -0.066 C 
ENDROOT
BRANCH   1   2
ATOM      2  N   UNL     1       9.279  -1.266   0.620  0.00  0.00    +0.380 N 
ATOM      3  H   UNL     1       9.153  -1.211  -0.380  0.00  0.00    -0.086 HD
ATOM      4  H   UNL     1       9.363  -0.336   1.000  0.00  0.00    -0.086 HD
BRANCH   2   5
ATOM      5  C   UNL     1      10.499  -2.029   0.918  0.00  0.00    -0.076 C 
BRANCH   5   6
ATOM      6  C   UNL     1      11.705  -1.328   0.290  0.00  0.00    +0.010 C 
ATOM      7  C   UNL     1      11.570  -1.353  -1.237  0.00  0.00    +0.106 C 
ATOM      8  N   UNL     1      12.706  -0.612  -1.820  0.00  0.00    -0.329 N 
ATOM      9  C   UNL     1      13.957  -0.860  -1.252  0.00  0.00    +0.117 A 
ATOM     10  C   UNL     1      15.187  -0.523  -1.701  0.00  0.00    +0.064 A 
ATOM     11  C   UNL     1      16.122  -1.002  -0.774  0.00  0.00    +0.136 A 
ATOM     12  N   UNL     1      15.473  -1.604   0.195  0.00  0.00    -0.178 NA
ATOM     13  N   UNL     1      14.108  -1.528  -0.079  0.00  0.00    -0.251 N 
ATOM     14  C   UNL     1      12.990  -2.052   0.709  0.00  0.00    +0.148 C 
ATOM     15  H   UNL     1      12.589   0.011  -2.555  0.00  0.00    +0.147 HD
ENDBRANCH   5   6
ENDBRANCH   2   5
ENDBRANCH   1   2
BRANCH   1  16
ATOM     16  C   UNL     1       6.851  -1.145   0.912  0.00  0.00    +0.086 C 
BRANCH  16  17
ATOM     17  N   UNL     1       5.696  -1.816   1.514  0.00  0.00    -0.196 NA
ATOM     18  H   UNL     1       5.774  -2.732   1.824  0.00  0.00    +0.148 HD
BRANCH  17  19
ATOM     19  S   UNL     1       4.257  -1.011   1.666  0.00  0.00    +0.033 S 
ATOM     20  O   UNL     1       4.593   0.216   2.298  0.00  0.00    -0.158 OA
ATOM     21  O   UNL     1       3.387  -1.939   2.300  0.00  0.00    -0.158 OA
BRANCH  19  22
ATOM     22  C   UNL     1       3.711  -0.707  -0.038  0.00  0.00    +0.220 C 
BRANCH  22  26
ATOM     23  C   UNL     1      -0.017   1.378   0.010  0.00  0.00    +0.000 A 
ATOM     24  C   UNL     1       1.171   2.086   0.002  0.00  0.00    +0.000 A 
ATOM     25  C   UNL     1       2.377   1.411  -0.013  0.00  0.00    +0.005 A 
ATOM     26  C   UNL     1       2.396   0.029  -0.020  0.00  0.00    -0.025 A 
ATOM     27  C   UNL     1       1.208  -0.679  -0.012  0.00  0.00    +0.005 A 
ATOM     28  C   UNL     1       0.002  -0.004   0.002  0.00  0.00    +0.000 A 
ENDBRANCH  22  26
ENDBRANCH  19  22
ENDBRANCH  17  19
ENDBRANCH  16  17
ENDBRANCH   1  16
TORSDOF 8
