REMARK  Name = ZINC67382255
REMARK  13 active torsions:
REMARK  status: ('A' for Active; 'I' for Inactive)
REMARK    1  A    between atoms: C_1  and  C_2
REMARK    2  A    between atoms: C_2  and  C_4
REMARK    3  A    between atoms: C_2  and  N_15
REMARK    4  A    between atoms: C_8  and  S_10
REMARK    5  A    between atoms: S_10  and  N_13
REMARK    6  A    between atoms: N_13  and  C_14
REMARK    7  A    between atoms: N_18  and  C_19
REMARK    8  A    between atoms: C_19  and  C_20
REMARK    9  A    between atoms: C_20  and  C_21
REMARK   10  A    between atoms: C_20  and  C_22
REMARK   11  A    between atoms: C_20  and  N_23
REMARK   12  A    between atoms: N_23  and  C_24
REMARK   13  A    between atoms: N_23  and  C_25
REMARK                            x       y       z     vdW  Elec       q    Type
REMARK                         _______ _______ _______ _____ _____    ______ ____
ROOT
ATOM      1  C   UNL     1       0.186   0.792  -0.238  0.00  0.00    +0.033 C 
ATOM      2  C   UNL     1       0.081  -0.725  -0.070  0.00  0.00    +0.102 C 
ENDROOT
BRANCH   2   3
ATOM      3  C   UNL     1       0.750  -1.407  -1.236  0.00  0.00    -0.026 A 
ATOM      4  C   UNL     1       0.086  -1.524  -2.443  0.00  0.00    +0.005 A 
ATOM      5  C   UNL     1       0.700  -2.149  -3.512  0.00  0.00    +0.002 A 
ATOM      6  C   UNL     1       1.979  -2.657  -3.374  0.00  0.00    +0.028 A 
ATOM      7  C   UNL     1       2.643  -2.540  -2.167  0.00  0.00    +0.106 A 
ATOM      8  C   UNL     1       2.030  -1.910  -1.099  0.00  0.00    +0.034 A 
BRANCH   7   9
ATOM      9  S   UNL     1       4.272  -3.188  -1.992  0.00  0.00    +0.058 S 
ATOM     10  O   UNL     1       4.464  -3.433  -0.605  0.00  0.00    -0.153 OA
ATOM     11  O   UNL     1       4.412  -4.207  -2.972  0.00  0.00    -0.153 OA
BRANCH   9  12
ATOM     12  N   UNL     1       5.327  -1.981  -2.409  0.00  0.00    -0.193 NA
ATOM     13  C   UNL     1       5.404  -0.763  -1.599  0.00  0.00    +0.127 C 
ATOM     14  H   UNL     1       5.893  -2.081  -3.191  0.00  0.00    +0.148 HD
ENDBRANCH   9  12
ENDBRANCH   7   9
ENDBRANCH   2   3
BRANCH   2  15
ATOM     15  N   UNL     1      -1.331  -1.115  -0.022  0.00  0.00    -0.293 N 
ATOM     16  C   UNL     1      -2.003  -1.069   1.145  0.00  0.00    +0.300 C 
ATOM     17  O   UNL     1      -1.437  -0.705   2.159  0.00  0.00    -0.253 OA
ATOM     18  N   UNL     1      -3.301  -1.427   1.190  0.00  0.00    -0.301 N 
ATOM     19  H   UNL     1      -1.782  -1.406  -0.830  0.00  0.00    +0.151 HD
ATOM     20  H   UNL     1      -3.752  -1.718   0.382  0.00  0.00    +0.150 HD
BRANCH  18  21
ATOM     21  C   UNL     1      -4.032  -1.378   2.459  0.00  0.00    +0.093 C 
BRANCH  21  22
ATOM     22  C   UNL     1      -5.506  -1.705   2.212  0.00  0.00    -0.056 C 
ATOM     23  C   UNL     1      -5.634  -3.153   1.737  0.00  0.00    -0.008 C 
ATOM     24  C   UNL     1      -6.293  -1.523   3.511  0.00  0.00    -0.008 C 
BRANCH  22  25
ATOM     25  N   UNL     1      -6.042  -0.803   1.184  0.00  0.00    +0.380 N 
ATOM     26  C   UNL     1      -7.458  -1.114   0.950  0.00  0.00    -0.096 C 
ATOM     27  C   UNL     1      -5.915   0.588   1.639  0.00  0.00    -0.096 C 
ATOM     28  H   UNL     1      -5.524  -0.925   0.327  0.00  0.00    -0.082 HD
ENDBRANCH  22  25
ENDBRANCH  21  22
ENDBRANCH  18  21
ENDBRANCH   2  15
TORSDOF 7
