REMARK  Name = ZINC20823758
REMARK  6 active torsions:
REMARK  status: ('A' for Active; 'I' for Inactive)
REMARK    1  A    between atoms: C_1  and  N_2
REMARK    2  A    between atoms: C_10  and  C_11
REMARK    3  A    between atoms: C_11  and  C_12
REMARK    4  A    between atoms: N_14  and  N_15
REMARK    5  A    between atoms: C_16  and  C_17
REMARK    6  A    between atoms: C_20  and  O_23
REMARK                            x       y       z     vdW  Elec       q    Type
REMARK                         _______ _______ _______ _____ _____    ______ ____
ROOT
ATOM      1  C   UNL     1      -1.156  -0.694   0.009  0.00  0.00    +0.240 C 
ATOM      2  O   UNL     1      -2.215  -0.102   0.023  0.00  0.00    -0.274 OA
ATOM      3  N   UNL     1       0.002  -0.004   0.002  0.00  0.00    -0.207 N 
ATOM      4  H   UNL     1       0.962  -0.541  -0.010  0.00  0.00    +0.177 HD
ENDROOT
BRANCH   3   5
ATOM      5  N   UNL     1      -0.017   1.397   0.010  0.00  0.00    -0.188 NA
ATOM      6  C   UNL     1       1.098   2.061   0.003  0.00  0.00    +0.138 C 
BRANCH   6   7
ATOM      7  C   UNL     1       1.078   3.535   0.011  0.00  0.00    -0.005 A 
ATOM      8  C   UNL     1      -0.140   4.219   0.020  0.00  0.00    +0.013 A 
ATOM      9  C   UNL     1      -0.154   5.597   0.033  0.00  0.00    +0.046 A 
ATOM     10  C   UNL     1       1.040   6.306   0.026  0.00  0.00    +0.117 A 
ATOM     11  C   UNL     1       2.254   5.630   0.011  0.00  0.00    +0.046 A 
ATOM     12  C   UNL     1       2.277   4.252   0.003  0.00  0.00    +0.013 A 
BRANCH  10  13
ATOM     13  O   UNL     1       1.022   7.664   0.034  0.00  0.00    -0.507 OA
ATOM     14  H   UNL     1       1.967   8.227   0.028  0.00  0.00    +0.292 HD
ENDBRANCH  10  13
ENDBRANCH   6   7
ENDBRANCH   3   5
BRANCH   1  15
ATOM     15  C   UNL     1      -1.135  -2.201   0.001  0.00  0.00    +0.171 C 
BRANCH  15  25
ATOM     16  C   UNL     1      -2.864  -2.815  -2.489  0.00  0.00    +0.150 C 
ATOM     17  N   UNL     1      -3.291  -2.986  -1.098  0.00  0.00    -0.330 N 
ATOM     18  C   UNL     1      -4.521  -3.444  -0.670  0.00  0.00    +0.069 A 
ATOM     19  C   UNL     1      -5.675  -3.864  -1.317  0.00  0.00    +0.028 A 
ATOM     20  C   UNL     1      -6.763  -4.274  -0.577  0.00  0.00    +0.002 A 
ATOM     21  C   UNL     1      -6.712  -4.268   0.810  0.00  0.00    +0.002 A 
ATOM     22  C   UNL     1      -5.585  -3.857   1.464  0.00  0.00    +0.030 A 
ATOM     23  C   UNL     1      -4.470  -3.439   0.734  0.00  0.00    +0.089 A 
ATOM     24  N   UNL     1      -3.236  -2.991   1.083  0.00  0.00    -0.232 NA
ATOM     25  C   UNL     1      -2.549  -2.722   0.012  0.00  0.00    +0.119 A 
ENDBRANCH  15  25
ENDBRANCH   1  15
TORSDOF 5
