REMARK  Name = ZINC40826857
REMARK  12 active torsions:
REMARK  status: ('A' for Active; 'I' for Inactive)
REMARK    1  A    between atoms: C_1  and  C_2
REMARK    2  A    between atoms: C_4  and  C_39
REMARK    3  A    between atoms: C_10  and  C_11
REMARK    4  A    between atoms: C_11  and  C_12
REMARK    5  A    between atoms: N_14  and  N_15
REMARK    6  A    between atoms: C_22  and  C_38
REMARK    7  A    between atoms: C_23  and  C_25
REMARK    8  A    between atoms: N_27  and  C_28
REMARK    9  A    between atoms: C_30  and  O_36
REMARK   10  A    between atoms: C_33  and  O_34
REMARK   11  A    between atoms: O_34  and  C_35
REMARK   12  A    between atoms: O_36  and  C_37
REMARK                            x       y       z     vdW  Elec       q    Type
REMARK                         _______ _______ _______ _____ _____    ______ ____
ROOT
ATOM      1  N   UNL     1       3.390  -7.519  -2.026  0.00  0.00    -0.184 NA
ATOM      2  C   UNL     1       3.485  -8.432  -2.943  0.00  0.00    +0.070 C 
ATOM      3  C   UNL     1       2.265  -9.090  -3.570  0.00  0.00    +0.058 C 
ATOM      4  C   UNL     1       2.542 -10.591  -3.697  0.00  0.00    +0.014 C 
ATOM      5  C   UNL     1       3.698 -10.847  -4.668  0.00  0.00    +0.075 C 
ATOM      6  C   UNL     1       4.891 -10.023  -4.255  0.00  0.00    +0.115 A 
ATOM      7  C   UNL     1       4.789  -8.904  -3.459  0.00  0.00    +0.042 A 
ATOM      8  C   UNL     1       6.081  -8.394  -3.282  0.00  0.00    +0.009 A 
ATOM      9  C   UNL     1       6.917  -9.218  -3.983  0.00  0.00    +0.193 A 
ATOM     10  O   UNL     1       6.175 -10.197  -4.557  0.00  0.00    -0.454 OA
ATOM     11  C   UNL     1       6.471  -7.179  -2.480  0.00  0.00    +0.048 C 
ENDROOT
BRANCH   1  14
ATOM     12  C   UNL     1       2.029  -6.162  -0.621  0.00  0.00    +0.237 C 
ATOM     13  O   UNL     1       3.032  -5.662  -0.155  0.00  0.00    -0.274 OA
ATOM     14  N   UNL     1       2.128  -7.110  -1.573  0.00  0.00    -0.206 N 
ATOM     15  H   UNL     1       1.327  -7.508  -1.946  0.00  0.00    +0.177 HD
BRANCH  12  16
ATOM     16  C   UNL     1       0.673  -5.721  -0.134  0.00  0.00    +0.136 C 
BRANCH  16  26
ATOM     17  C   UNL     1       1.940  -4.432   6.513  0.00  0.00    +0.044 C 
ATOM     18  C   UNL     1       1.653  -4.579   5.041  0.00  0.00    -0.047 A 
ATOM     19  C   UNL     1       1.594  -5.845   4.476  0.00  0.00    +0.007 A 
ATOM     20  C   UNL     1       1.335  -5.997   3.142  0.00  0.00    -0.039 A 
ATOM     21  C   UNL     1       1.130  -4.871   2.346  0.00  0.00    +0.027 A 
ATOM     22  C   UNL     1       1.189  -3.587   2.911  0.00  0.00    +0.136 A 
ATOM     23  C   UNL     1       1.448  -3.455   4.270  0.00  0.00    +0.050 A 
ATOM     24  O   UNL     1       0.955  -2.702   1.921  0.00  0.00    -0.463 OA
ATOM     25  C   UNL     1       0.749  -3.334   0.753  0.00  0.00    +0.200 A 
ATOM     26  C   UNL     1       0.838  -4.660   0.923  0.00  0.00    +0.007 A 
ATOM     27  C   UNL     1       1.273  -7.375   2.535  0.00  0.00    +0.044 C 
ENDBRANCH  16  26
ENDBRANCH  12  16
ENDBRANCH   1  14
BRANCH   9  28
ATOM     28  C   UNL     1       8.373  -9.073  -4.088  0.00  0.00    +0.284 C 
ATOM     29  O   UNL     1       8.936  -8.156  -3.519  0.00  0.00    -0.266 OA
ATOM     30  N   UNL     1       9.087  -9.956  -4.813  0.00  0.00    -0.276 N 
ATOM     31  H   UNL     1       8.633 -10.643  -5.325  0.00  0.00    +0.155 HD
BRANCH  30  32
ATOM     32  C   UNL     1      10.486  -9.881  -4.828  0.00  0.00    +0.079 A 
ATOM     33  C   UNL     1      11.156  -9.200  -3.822  0.00  0.00    +0.072 A 
ATOM     34  C   UNL     1      12.540  -9.129  -3.839  0.00  0.00    +0.122 A 
ATOM     35  C   UNL     1      13.255  -9.736  -4.861  0.00  0.00    +0.049 A 
ATOM     36  C   UNL     1      12.589 -10.415  -5.865  0.00  0.00    +0.051 A 
ATOM     37  C   UNL     1      11.206 -10.495  -5.850  0.00  0.00    +0.141 A 
BRANCH  37  38
ATOM     38  O   UNL     1      10.553 -11.168  -6.835  0.00  0.00    -0.493 OA
ATOM     39  C   UNL     1      11.356 -11.773  -7.851  0.00  0.00    +0.277 C 
ENDBRANCH  37  38
BRANCH  34  40
ATOM     40  O   UNL     1      13.198  -8.461  -2.854  0.00  0.00    -0.495 OA
ATOM     41  C   UNL     1      14.624  -8.427  -2.934  0.00  0.00    +0.277 C 
ENDBRANCH  34  40
ENDBRANCH  30  32
ENDBRANCH   9  28
TORSDOF 7
