REMARK  Name = ZINC10048484
REMARK  12 active torsions:
REMARK  status: ('A' for Active; 'I' for Inactive)
REMARK    1  A    between atoms: C_1  and  C_2
REMARK    2  A    between atoms: C_5  and  N_9
REMARK    3  A    between atoms: C_7  and  C_8
REMARK    4  A    between atoms: C_10  and  C_37
REMARK    5  A    between atoms: N_19  and  C_24
REMARK    6  A    between atoms: N_22  and  C_23
REMARK    7  A    between atoms: C_24  and  C_25
REMARK    8  A    between atoms: C_25  and  C_27
REMARK    9  A    between atoms: C_25  and  C_28
REMARK   10  A    between atoms: C_28  and  N_29
REMARK   11  A    between atoms: N_29  and  C_30
REMARK   12  A    between atoms: C_35  and  N_36
REMARK                            x       y       z     vdW  Elec       q    Type
REMARK                         _______ _______ _______ _____ _____    ______ ____
ROOT
ATOM      1  N   UNL     1      -5.070   0.717  -7.604  0.00  0.00    -0.283 N 
ATOM      2  C   UNL     1      -5.426  -0.460  -6.972  0.00  0.00    +0.040 A 
ATOM      3  C   UNL     1      -4.612  -0.638  -5.936  0.00  0.00    +0.116 A 
ATOM      4  N   UNL     1      -3.724   0.422  -5.892  0.00  0.00    -0.277 N 
ATOM      5  C   UNL     1      -4.008   1.255  -6.920  0.00  0.00    +0.223 A 
ATOM      6  N   UNL     1      -3.169   2.280  -6.898  0.00  0.00    -0.193 NA
ATOM      7  C   UNL     1      -2.326   2.154  -5.877  0.00  0.00    +0.170 A 
ATOM      8  C   UNL     1      -2.651   0.974  -5.208  0.00  0.00    +0.157 A 
ATOM      9  C   UNL     1      -1.901   0.596  -4.082  0.00  0.00    +0.283 A 
ATOM     10  O   UNL     1      -2.164  -0.434  -3.485  0.00  0.00    -0.265 OA
ATOM     11  N   UNL     1      -0.891   1.387  -3.665  0.00  0.00    -0.259 N 
ATOM     12  C   UNL     1      -0.586   2.523  -4.315  0.00  0.00    +0.333 A 
ATOM     13  O   UNL     1       0.335   3.207  -3.912  0.00  0.00    -0.246 OA
ATOM     14  N   UNL     1      -1.273   2.921  -5.402  0.00  0.00    -0.279 N 
ATOM     15  C   UNL     1      -0.908   4.166  -6.083  0.00  0.00    +0.155 C 
ATOM     16  C   UNL     1      -6.545  -1.382  -7.385  0.00  0.00    +0.065 C 
ENDROOT
BRANCH   1  21
ATOM     17  C   UNL     1      -7.553   2.929 -12.201  0.00  0.00    +0.044 C 
ATOM     18  C   UNL     1      -6.894   2.341 -10.980  0.00  0.00    -0.047 A 
ATOM     19  C   UNL     1      -5.580   1.913 -11.044  0.00  0.00    +0.005 A 
ATOM     20  C   UNL     1      -4.973   1.375  -9.927  0.00  0.00    +0.026 A 
ATOM     21  C   UNL     1      -5.682   1.263  -8.738  0.00  0.00    +0.050 A 
ATOM     22  C   UNL     1      -7.003   1.690  -8.679  0.00  0.00    +0.030 A 
ATOM     23  C   UNL     1      -7.603   2.232  -9.798  0.00  0.00    -0.046 A 
ATOM     24  C   UNL     1      -9.034   2.699  -9.733  0.00  0.00    +0.044 C 
ENDBRANCH   1  21
BRANCH  11  25
ATOM     25  C   UNL     1      -0.111   0.998  -2.487  0.00  0.00    +0.134 C 
BRANCH  25  26
ATOM     26  C   UNL     1      -0.753   1.593  -1.232  0.00  0.00    +0.023 C 
ATOM     27  C   UNL     1      -0.666   3.119  -1.289  0.00  0.00    +0.011 C 
BRANCH  26  28
ATOM     28  C   UNL     1      -0.013   1.086   0.008  0.00  0.00    +0.106 C 
BRANCH  28  29
ATOM     29  N   UNL     1      -0.698   1.558   1.213  0.00  0.00    -0.342 N 
ATOM     30  H   UNL     1      -1.495   2.106   1.135  0.00  0.00    +0.146 HD
BRANCH  29  31
ATOM     31  C   UNL     1      -0.203   1.220   2.479  0.00  0.00    +0.048 A 
ATOM     32  C   UNL     1       0.932   0.433   2.593  0.00  0.00    +0.025 A 
ATOM     33  C   UNL     1       1.422   0.103   3.844  0.00  0.00    +0.002 A 
ATOM     34  C   UNL     1       0.777   0.548   4.982  0.00  0.00    +0.002 A 
ATOM     35  C   UNL     1      -0.359   1.329   4.877  0.00  0.00    +0.024 A 
ATOM     36  C   UNL     1      -0.855   1.668   3.627  0.00  0.00    +0.046 A 
BRANCH  36  37
ATOM     37  N   UNL     1      -2.005   2.459   3.519  0.00  0.00    -0.357 N 
ATOM     38  H   UNL     1      -2.351   2.695   2.644  0.00  0.00    +0.142 HD
ATOM     39  H   UNL     1      -2.457   2.770   4.319  0.00  0.00    +0.142 HD
ENDBRANCH  36  37
ENDBRANCH  29  31
ENDBRANCH  28  29
ENDBRANCH  26  28
ENDBRANCH  25  26
ENDBRANCH  11  25
TORSDOF 7
