REMARK  Name = ZINC40685588
REMARK  14 active torsions:
REMARK  status: ('A' for Active; 'I' for Inactive)
REMARK    1  A    between atoms: C_1  and  C_2
REMARK    2  A    between atoms: C_2  and  C_4
REMARK    3  A    between atoms: C_4  and  C_6
REMARK    4  A    between atoms: C_4  and  N_22
REMARK    5  A    between atoms: C_8  and  O_21
REMARK    6  A    between atoms: C_10  and  O_20
REMARK    7  A    between atoms: C_12  and  O_19
REMARK    8  A    between atoms: C_14  and  S_17
REMARK    9  A    between atoms: S_17  and  C_18
REMARK   10  A    between atoms: C_23  and  C_25
REMARK   11  A    between atoms: C_27  and  C_31
REMARK   12  A    between atoms: C_31  and  C_32
REMARK   13  A    between atoms: C_31  and  C_33
REMARK   14  A    between atoms: C_31  and  C_34
REMARK                            x       y       z     vdW  Elec       q    Type
REMARK                         _______ _______ _______ _____ _____    ______ ____
ROOT
ATOM      1  C   UNL     1       0.742  -0.511   1.242  0.00  0.00    +0.122 C 
ENDROOT
BRANCH   1   2
ATOM      2  C   UNL     1       0.763  -2.041   1.233  0.00  0.00    +0.172 C 
ATOM      3  C   UNL     1       1.504  -2.548   2.473  0.00  0.00    +0.176 C 
ATOM      4  C   UNL     1       1.573  -4.078   2.427  0.00  0.00    +0.177 C 
ATOM      5  C   UNL     1       2.256  -4.508   1.125  0.00  0.00    +0.184 C 
ATOM      6  C   UNL     1       1.486  -3.925  -0.063  0.00  0.00    +0.207 C 
ATOM      7  O   UNL     1       1.432  -2.502   0.058  0.00  0.00    -0.356 OA
BRANCH   6   8
ATOM      8  S   UNL     1       2.328  -4.370  -1.607  0.00  0.00    -0.131 S 
ATOM      9  C   UNL     1       1.224  -3.745  -2.904  0.00  0.00    +0.087 C 
ENDBRANCH   6   8
BRANCH   5  10
ATOM     10  O   UNL     1       3.600  -4.024   1.108  0.00  0.00    -0.386 OA
ATOM     11  H   UNL     1       4.093  -4.260   0.311  0.00  0.00    +0.210 HD
ENDBRANCH   5  10
BRANCH   4  12
ATOM     12  O   UNL     1       2.325  -4.556   3.544  0.00  0.00    -0.386 OA
ATOM     13  H   UNL     1       2.409  -5.519   3.578  0.00  0.00    +0.210 HD
ENDBRANCH   4  12
BRANCH   3  14
ATOM     14  O   UNL     1       2.827  -2.010   2.492  0.00  0.00    -0.387 OA
ATOM     15  H   UNL     1       3.355  -2.290   3.252  0.00  0.00    +0.210 HD
ENDBRANCH   3  14
ENDBRANCH   1   2
BRANCH   1  16
ATOM     16  N   UNL     1       0.056  -0.038   2.447  0.00  0.00    -0.303 N 
ATOM     17  C   UNL     1       0.330   1.185   2.942  0.00  0.00    +0.263 C 
ATOM     18  O   UNL     1       1.146   1.895   2.389  0.00  0.00    -0.269 OA
ATOM     19  H   UNL     1      -0.595  -0.606   2.888  0.00  0.00    +0.149 HD
BRANCH  17  20
ATOM     20  C   UNL     1      -0.363   1.663   4.161  0.00  0.00    +0.126 A 
ATOM     21  C   UNL     1      -0.080   2.930   4.665  0.00  0.00    +0.037 A 
ATOM     22  C   UNL     1      -0.737   3.363   5.806  0.00  0.00    -0.038 A 
ATOM     23  C   UNL     1      -1.654   2.513   6.404  0.00  0.00    +0.024 A 
ATOM     24  C   UNL     1      -1.887   1.265   5.848  0.00  0.00    +0.112 A 
ATOM     25  N   UNL     1      -1.253   0.882   4.761  0.00  0.00    -0.250 NA
BRANCH  22  26
ATOM     26  C   UNL     1      -0.459   4.727   6.385  0.00  0.00    -0.013 C 
ATOM     27  C   UNL     1      -0.797   5.799   5.347  0.00  0.00    +0.015 C 
ATOM     28  C   UNL     1      -1.319   4.936   7.633  0.00  0.00    +0.015 C 
ATOM     29  C   UNL     1       1.020   4.830   6.761  0.00  0.00    +0.015 C 
ENDBRANCH  22  26
ENDBRANCH  17  20
ENDBRANCH   1  16
BRANCH   1  31
ATOM     30  C   UNL     1      -0.019   1.526   0.010  0.00  0.00    +0.026 C 
ATOM     31  C   UNL     1       0.002  -0.004   0.002  0.00  0.00    +0.100 C 
ATOM     32 CL   UNL     1      -1.689  -0.628   0.015  0.00  0.00    -0.120 Cl
ENDBRANCH   1  31
TORSDOF 9
