REMARK  Name = ZINC20323589
REMARK  7 active torsions:
REMARK  status: ('A' for Active; 'I' for Inactive)
REMARK    1  A    between atoms: C_1  and  C_2
REMARK    2  A    between atoms: C_6  and  N_9
REMARK    3  A    between atoms: C_7  and  C_8
REMARK    4  A    between atoms: C_10  and  C_12
REMARK    5  A    between atoms: N_22  and  N_23
REMARK    6  A    between atoms: N_23  and  S_24
REMARK    7  A    between atoms: S_24  and  C_27
REMARK                            x       y       z     vdW  Elec       q    Type
REMARK                         _______ _______ _______ _____ _____    ______ ____
ROOT
ATOM      1  C   UNL     1       1.206  -4.649  -4.053  0.00  0.00    +0.099 A 
ATOM      2  C   UNL     1       1.224  -6.021  -4.142  0.00  0.00    +0.030 A 
ATOM      3  C   UNL     1       1.371  -6.614  -5.476  0.00  0.00    +0.018 A 
ATOM      4  C   UNL     1       1.130  -7.976  -5.683  0.00  0.00    +0.011 A 
ATOM      5  C   UNL     1       1.272  -8.509  -6.946  0.00  0.00    +0.001 A 
ATOM      6  C   UNL     1       1.649  -7.704  -8.008  0.00  0.00    +0.004 A 
ATOM      7  C   UNL     1       1.891  -6.356  -7.818  0.00  0.00    +0.047 A 
ATOM      8  C   UNL     1       1.757  -5.801  -6.557  0.00  0.00    +0.137 A 
ATOM      9  O   UNL     1       1.996  -4.480  -6.354  0.00  0.00    -0.437 OA
ATOM     10  C   UNL     1       1.332  -3.887  -5.317  0.00  0.00    +0.225 A 
ATOM     11  N   UNL     1       0.829  -2.691  -5.433  0.00  0.00    -0.260 N 
ATOM     12  H   UNL     1       0.380  -2.195  -4.560  0.00  0.00    +0.189 HD
ENDROOT
BRANCH   1  14
ATOM     13  N   UNL     1       0.796  -4.680  -1.645  0.00  0.00    -0.281 N 
ATOM     14  C   UNL     1       1.062  -3.966  -2.757  0.00  0.00    +0.253 C 
ATOM     15  O   UNL     1       1.184  -2.758  -2.689  0.00  0.00    -0.270 OA
ATOM     16  H   UNL     1       0.766  -5.779  -1.691  0.00  0.00    +0.155 HD
BRANCH  13  22
ATOM     17  C   UNL     1       0.644  -4.789   3.267  0.00  0.00    +0.044 C 
ATOM     18  C   UNL     1       0.476  -4.053   1.963  0.00  0.00    -0.046 A 
ATOM     19  C   UNL     1       0.086  -2.725   1.964  0.00  0.00    +0.004 A 
ATOM     20  C   UNL     1      -0.068  -2.046   0.770  0.00  0.00    +0.002 A 
ATOM     21  C   UNL     1       0.166  -2.691  -0.429  0.00  0.00    +0.023 A 
ATOM     22  C   UNL     1       0.557  -4.024  -0.433  0.00  0.00    +0.037 A 
ATOM     23  C   UNL     1       0.717  -4.702   0.768  0.00  0.00    -0.026 A 
ATOM     24  C   UNL     1       1.148  -6.146   0.768  0.00  0.00    +0.046 C 
ENDBRANCH  13  22
ENDBRANCH   1  14
BRANCH  11  25
ATOM     25  N   UNL     1       0.859  -2.035  -6.671  0.00  0.00    -0.157 N 
ATOM     26  H   UNL     1       1.186  -2.499  -7.458  0.00  0.00    +0.194 HD
BRANCH  25  27
ATOM     27  S   UNL     1       0.336  -0.468  -6.792  0.00  0.00    +0.085 S 
ATOM     28  O   UNL     1       0.575  -0.062  -8.132  0.00  0.00    -0.149 OA
ATOM     29  O   UNL     1      -0.956  -0.425  -6.201  0.00  0.00    -0.149 OA
BRANCH  27  30
ATOM     30  C   UNL     1       1.388   0.512  -5.774  0.00  0.00    +0.110 A 
ATOM     31  C   UNL     1       1.111   0.653  -4.427  0.00  0.00    +0.029 A 
ATOM     32  C   UNL     1       1.939   1.419  -3.627  0.00  0.00    +0.002 A 
ATOM     33  C   UNL     1       3.039   2.050  -4.176  0.00  0.00    +0.000 A 
ATOM     34  C   UNL     1       3.314   1.913  -5.524  0.00  0.00    +0.002 A 
ATOM     35  C   UNL     1       2.488   1.144  -6.323  0.00  0.00    +0.029 A 
ENDBRANCH  27  30
ENDBRANCH  25  27
ENDBRANCH  11  25
TORSDOF 5
