REMARK  Name = ZINC13137484
REMARK  8 active torsions:
REMARK  status: ('A' for Active; 'I' for Inactive)
REMARK    1  A    between atoms: C_3  and  N_9
REMARK    2  A    between atoms: N_9  and  C_10
REMARK    3  A    between atoms: C_10  and  N_12
REMARK    4  A    between atoms: N_12  and  N_13
REMARK    5  A    between atoms: C_14  and  C_16
REMARK    6  A    between atoms: C_19  and  O_36
REMARK    7  A    between atoms: N_22  and  S_23
REMARK    8  A    between atoms: S_23  and  C_26
REMARK                            x       y       z     vdW  Elec       q    Type
REMARK                         _______ _______ _______ _____ _____    ______ ____
ROOT
ATOM      1  C   UNL     1      -0.060  -6.909  -0.341  0.00  0.00    +0.169 C 
ATOM      2  C   UNL     1      -0.930  -6.486  -1.544  0.00  0.00    +0.062 C 
ATOM      3  C   UNL     1      -0.625  -7.592  -2.595  0.00  0.00    +0.132 C 
ATOM      4  C   UNL     1      -0.464  -8.842  -1.693  0.00  0.00    +0.141 C 
ATOM      5  N   UNL     1       0.212  -8.348  -0.480  0.00  0.00    -0.162 NA
ENDROOT
BRANCH   1   7
ATOM      6  N   UNL     1       1.221  -4.796  -0.240  0.00  0.00    -0.234 N 
ATOM      7  C   UNL     1       1.235  -6.139  -0.349  0.00  0.00    +0.248 C 
ATOM      8  O   UNL     1       2.290  -6.728  -0.454  0.00  0.00    -0.273 OA
ATOM      9  H   UNL     1       0.377  -4.325  -0.156  0.00  0.00    +0.173 HD
BRANCH   6  10
ATOM     10  N   UNL     1       2.425  -4.080  -0.247  0.00  0.00    -0.246 N 
ATOM     11  H   UNL     1       3.269  -4.551  -0.331  0.00  0.00    +0.172 HD
BRANCH  10  12
ATOM     12  C   UNL     1       2.412  -2.737  -0.138  0.00  0.00    +0.151 C 
ATOM     13  S   UNL     1       3.883  -1.862  -0.147  0.00  0.00    -0.017 S 
BRANCH  12  14
ATOM     14  N   UNL     1       1.239  -2.082  -0.021  0.00  0.00    -0.294 N 
ATOM     15  H   UNL     1       0.412  -2.581   0.064  0.00  0.00    +0.154 HD
BRANCH  14  18
ATOM     16  C   UNL     1       1.951   1.407  -0.945  0.00  0.00    +0.040 A 
ATOM     17  C   UNL     1       1.976   0.025  -0.945  0.00  0.00    +0.029 A 
ATOM     18  C   UNL     1       1.216  -0.681  -0.023  0.00  0.00    +0.068 A 
ATOM     19  C   UNL     1       0.431   0.004   0.898  0.00  0.00    +0.147 A 
ATOM     20  C   UNL     1       0.409   1.386   0.893  0.00  0.00    +0.078 A 
ATOM     21  C   UNL     1       1.169   2.088  -0.028  0.00  0.00    +0.126 A 
ATOM     22  F   UNL     1       1.147   3.438  -0.032  0.00  0.00    -0.205 F 
ATOM     23  F   UNL     1      -0.311  -0.681   1.796  0.00  0.00    -0.203 F 
ENDBRANCH  14  18
ENDBRANCH  12  14
ENDBRANCH  10  12
ENDBRANCH   6  10
ENDBRANCH   1   7
BRANCH   5  24
ATOM     24  S   UNL     1       1.127  -9.261   0.555  0.00  0.00    +0.062 S 
ATOM     25  O   UNL     1       1.591 -10.377  -0.191  0.00  0.00    -0.153 OA
ATOM     26  O   UNL     1       2.010  -8.364   1.215  0.00  0.00    -0.153 OA
BRANCH  24  27
ATOM     27  C   UNL     1       0.040  -9.896   1.789  0.00  0.00    +0.109 A 
ATOM     28  C   UNL     1      -0.587 -11.113   1.596  0.00  0.00    +0.032 A 
ATOM     29  C   UNL     1      -1.440 -11.614   2.560  0.00  0.00    +0.051 A 
ATOM     30  C   UNL     1      -1.670 -10.896   3.725  0.00  0.00    +0.162 A 
ATOM     31  C   UNL     1      -1.038  -9.674   3.920  0.00  0.00    +0.164 A 
ATOM     32  C   UNL     1      -0.179  -9.179   2.950  0.00  0.00    +0.078 A 
ATOM     33  O   UNL     1      -1.245  -8.957   5.058  0.00  0.00    -0.485 OA
ATOM     34  C   UNL     1      -2.393  -9.306   5.838  0.00  0.00    +0.270 C 
ATOM     35  C   UNL     1      -2.433 -10.834   5.976  0.00  0.00    +0.270 C 
ATOM     36  O   UNL     1      -2.517 -11.400   4.664  0.00  0.00    -0.485 OA
ENDBRANCH  24  27
ENDBRANCH   5  24
BRANCH   3  37
ATOM     37  O   UNL     1      -1.717  -7.752  -3.502  0.00  0.00    -0.390 OA
ATOM     38  H   UNL     1      -1.615  -8.494  -4.114  0.00  0.00    +0.210 HD
ENDBRANCH   3  37
TORSDOF 8
