REMARK  Name = ZINC41589313
REMARK  4 active torsions:
REMARK  status: ('A' for Active; 'I' for Inactive)
REMARK    1  A    between atoms: C_1  and  C_2
REMARK    2  A    between atoms: C_10  and  C_11
REMARK    3  A    between atoms: N_20  and  C_23
REMARK    4  A    between atoms: C_23  and  C_24
REMARK                            x       y       z     vdW  Elec       q    Type
REMARK                         _______ _______ _______ _____ _____    ______ ____
ROOT
ATOM      1  C   UNL     1      -0.018   1.503   0.010  0.00  0.00    +0.051 C 
ATOM      2  C   UNL     1       0.002  -0.004   0.002  0.00  0.00    +0.034 A 
ATOM      3  C   UNL     1       0.006  -0.689  -1.206  0.00  0.00    +0.133 A 
ATOM      4  C   UNL     1       0.026  -2.080  -1.226  0.00  0.00    +0.010 A 
ATOM      5  C   UNL     1       0.040  -2.783  -0.051  0.00  0.00    +0.024 A 
ATOM      6  C   UNL     1       0.036  -2.106   1.168  0.00  0.00    +0.068 A 
ATOM      7  C   UNL     1       0.023  -0.702   1.201  0.00  0.00    +0.146 A 
ATOM      8  O   UNL     1       0.030  -0.275   2.483  0.00  0.00    -0.451 OA
ATOM      9  C   UNL     1       0.051  -1.308   3.358  0.00  0.00    +0.178 C 
ATOM     10  C   UNL     1       0.061  -1.212   4.709  0.00  0.00    +0.078 C 
ATOM     11  C   UNL     1       0.047  -2.555   2.572  0.00  0.00    +0.232 C 
ATOM     12  O   UNL     1       0.062  -3.700   2.989  0.00  0.00    -0.283 OA
ATOM     13  C   UNL     1       0.038  -2.832  -2.532  0.00  0.00    +0.127 C 
ATOM     14  N   UNL     1      -0.391  -1.940  -3.618  0.00  0.00    -0.259 NA
ATOM     15  C   UNL     1       0.357  -0.673  -3.559  0.00  0.00    +0.319 C 
ATOM     16  O   UNL     1      -0.013   0.020  -2.365  0.00  0.00    -0.476 OA
ENDROOT
BRANCH  10  17
ATOM     17  C   UNL     1       0.051   0.110   5.354  0.00  0.00    +0.067 A 
ATOM     18  C   UNL     1       0.067   0.203   6.748  0.00  0.00    +0.028 A 
ATOM     19  C   UNL     1       0.057   1.454   7.338  0.00  0.00    +0.004 A 
ATOM     20  C   UNL     1       0.031   2.574   6.518  0.00  0.00    +0.020 A 
ATOM     21  C   UNL     1       0.016   2.410   5.143  0.00  0.00    +0.111 A 
ATOM     22  N   UNL     1       0.031   1.210   4.605  0.00  0.00    -0.255 NA
ENDBRANCH  10  17
BRANCH  14  23
ATOM     23  C   UNL     1      -0.227  -2.587  -4.927  0.00  0.00    +0.162 C 
BRANCH  23  24
ATOM     24  C   UNL     1      -0.897  -1.751  -5.987  0.00  0.00    +0.119 A 
ATOM     25  C   UNL     1      -0.315  -0.770  -6.700  0.00  0.00    +0.046 A 
ATOM     26  C   UNL     1      -1.301  -0.258  -7.574  0.00  0.00    +0.041 A 
ATOM     27  C   UNL     1      -2.427  -0.957  -7.343  0.00  0.00    +0.195 A 
ATOM     28  O   UNL     1      -2.174  -1.864  -6.386  0.00  0.00    -0.467 OA
ENDBRANCH  23  24
ENDBRANCH  14  23
TORSDOF 3
