REMARK  Name = ZINC37663870
REMARK  8 active torsions:
REMARK  status: ('A' for Active; 'I' for Inactive)
REMARK    1  A    between atoms: C_1  and  C_2
REMARK    2  A    between atoms: C_2  and  C_4
REMARK    3  A    between atoms: C_2  and  N_15
REMARK    4  A    between atoms: N_6  and  C_7
REMARK    5  A    between atoms: C_10  and  N_14
REMARK    6  A    between atoms: N_15  and  C_16
REMARK    7  A    between atoms: N_15  and  C_17
REMARK    8  A    between atoms: C_17  and  C_18
REMARK                            x       y       z     vdW  Elec       q    Type
REMARK                         _______ _______ _______ _____ _____    ______ ____
ROOT
ATOM      1  C   UNL     1      -1.325  -0.235   1.037  0.00  0.00    +0.203 C 
ATOM      2  O   UNL     1      -1.638  -0.939   1.974  0.00  0.00    -0.277 OA
ATOM      3  N   UNL     1      -2.273   0.236   0.202  0.00  0.00    -0.286 N 
ATOM      4  H   UNL     1      -2.018   0.732  -0.592  0.00  0.00    +0.155 HD
ENDROOT
BRANCH   3   5
ATOM      5  C   UNL     1      -3.628   0.008   0.481  0.00  0.00    +0.052 A 
ATOM      6  C   UNL     1      -4.026  -0.328   1.768  0.00  0.00    +0.026 A 
ATOM      7  C   UNL     1      -5.360  -0.552   2.042  0.00  0.00    +0.024 A 
ATOM      8  C   UNL     1      -6.306  -0.441   1.031  0.00  0.00    +0.026 A 
ATOM      9  C   UNL     1      -5.909  -0.105  -0.256  0.00  0.00    +0.044 A 
ATOM     10  C   UNL     1      -4.574   0.125  -0.530  0.00  0.00    +0.064 A 
ATOM     11 CL   UNL     1      -4.079   0.552  -2.138  0.00  0.00    -0.082 Cl
BRANCH   8  12
ATOM     12  N   UNL     1      -7.657  -0.669   1.310  0.00  0.00    -0.358 N 
ATOM     13  H   UNL     1      -7.934  -0.905   2.209  0.00  0.00    +0.142 HD
ATOM     14  H   UNL     1      -8.318  -0.592   0.604  0.00  0.00    +0.142 HD
ENDBRANCH   8  12
ENDBRANCH   3   5
BRANCH   1  16
ATOM     15  C   UNL     1       0.428   1.470   1.446  0.00  0.00    -0.004 C 
ATOM     16  C   UNL     1       0.122   0.114   0.806  0.00  0.00    +0.016 C 
BRANCH  16  17
ATOM     17  N   UNL     1       0.977  -0.916   1.411  0.00  0.00    +0.391 N 
ATOM     18  C   UNL     1       0.726  -2.207   0.757  0.00  0.00    -0.095 C 
ATOM     19  H   UNL     1       0.767  -0.992   2.395  0.00  0.00    -0.081 HD
BRANCH  17  20
ATOM     20  C   UNL     1       2.388  -0.546   1.238  0.00  0.00    +0.037 C 
BRANCH  20  21
ATOM     21  C   UNL     1       3.275  -1.565   1.956  0.00  0.00    +0.376 C 
ATOM     22  F   UNL     1       3.176  -2.804   1.313  0.00  0.00    -0.173 F 
ATOM     23  F   UNL     1       4.604  -1.129   1.928  0.00  0.00    -0.173 F 
ATOM     24  F   UNL     1       2.854  -1.694   3.284  0.00  0.00    -0.173 F 
ENDBRANCH  20  21
ENDBRANCH  17  20
ENDBRANCH  16  17
ENDBRANCH   1  16
TORSDOF 6
