REMARK  Name = ZINC40545208
REMARK  5 active torsions:
REMARK  status: ('A' for Active; 'I' for Inactive)
REMARK    1  A    between atoms: C_1  and  C_2
REMARK    2  A    between atoms: C_7  and  C_8
REMARK    3  A    between atoms: C_13  and  C_21
REMARK    4  A    between atoms: C_15  and  N_20
REMARK    5  A    between atoms: C_16  and  C_17
REMARK                            x       y       z     vdW  Elec       q    Type
REMARK                         _______ _______ _______ _____ _____    ______ ____
ROOT
ATOM      1  C   UNL     1       0.337   0.995  -1.009  0.00  0.00    +0.044 C 
ATOM      2  C   UNL     1       0.259  -0.494  -0.786  0.00  0.00    -0.044 A 
ATOM      3  C   UNL     1       0.176  -1.349  -1.869  0.00  0.00    +0.005 A 
ATOM      4  C   UNL     1       0.104  -2.714  -1.668  0.00  0.00    +0.027 A 
ATOM      5  C   UNL     1       0.115  -3.228  -0.379  0.00  0.00    +0.073 A 
ATOM      6  C   UNL     1       0.199  -2.370   0.712  0.00  0.00    +0.148 A 
ATOM      7  C   UNL     1       0.276  -0.999   0.500  0.00  0.00    -0.004 A 
ATOM      8  C   UNL     1       0.373  -0.061   1.675  0.00  0.00    +0.048 C 
ATOM      9  O   UNL     1       0.195  -3.083   1.871  0.00  0.00    -0.458 OA
ATOM     10  C   UNL     1       0.111  -4.472   1.551  0.00  0.00    +0.235 C 
ATOM     11  N   UNL     1       0.055  -4.550   0.086  0.00  0.00    -0.297 N 
ATOM     12  C   UNL     1       1.326  -5.197   2.057  0.00  0.00    +0.087 C 
ATOM     13  C   UNL     1       1.267  -5.976   3.109  0.00  0.00    +0.106 C 
ATOM     14  O   UNL     1       0.123  -6.174   3.797  0.00  0.00    -0.446 OA
ATOM     15  C   UNL     1      -1.061  -5.881   3.230  0.00  0.00    +0.198 C 
ATOM     16  C   UNL     1      -1.137  -5.066   2.144  0.00  0.00    +0.137 C 
ATOM     17  C   UNL     1       2.521  -6.677   3.566  0.00  0.00    +0.086 C 
ATOM     18  H   UNL     1      -0.011  -5.354  -0.452  0.00  0.00    +0.151 HD
ENDROOT
BRANCH  16  19
ATOM     19  C   UNL     1      -2.388  -4.778   1.574  0.00  0.00    +0.248 C 
ATOM     20  O   UNL     1      -2.937  -3.716   1.813  0.00  0.00    -0.270 OA
ATOM     21  N   UNL     1      -2.982  -5.675   0.762  0.00  0.00    -0.325 N 
ATOM     22  H   UNL     1      -2.581  -6.548   0.629  0.00  0.00    +0.145 HD
ATOM     23  H   UNL     1      -3.810  -5.448   0.311  0.00  0.00    +0.145 HD
ENDBRANCH  16  19
BRANCH  15  24
ATOM     24  N   UNL     1      -2.209  -6.413   3.755  0.00  0.00    -0.329 N 
ATOM     25  H   UNL     1      -2.159  -7.058   4.478  0.00  0.00    +0.145 HD
ATOM     26  H   UNL     1      -3.072  -6.145   3.404  0.00  0.00    +0.145 HD
ENDBRANCH  15  24
TORSDOF 2
