REMARK  Name = ZINC20990336
REMARK  9 active torsions:
REMARK  status: ('A' for Active; 'I' for Inactive)
REMARK    1  A    between atoms: C_1  and  C_2
REMARK    2  A    between atoms: C_7  and  S_8
REMARK    3  A    between atoms: S_8  and  N_11
REMARK    4  A    between atoms: N_11  and  C_12
REMARK    5  A    between atoms: C_12  and  C_13
REMARK    6  A    between atoms: C_13  and  N_14
REMARK    7  A    between atoms: N_14  and  C_15
REMARK    8  A    between atoms: N_14  and  C_21
REMARK    9  A    between atoms: C_15  and  C_16
REMARK                            x       y       z     vdW  Elec       q    Type
REMARK                         _______ _______ _______ _____ _____    ______ ____
ROOT
ATOM      1  S   UNL     1       0.627   0.840   3.502  0.00  0.00    +0.059 S 
ATOM      2  O   UNL     1       1.855   0.471   4.115  0.00  0.00    -0.153 OA
ATOM      3  O   UNL     1       0.087   2.150   3.607  0.00  0.00    -0.153 OA
ENDROOT
BRANCH   1  10
ATOM      4  C   UNL     1       0.925  -2.163   3.547  0.00  0.00    +0.046 C 
ATOM      5  C   UNL     1      -0.369  -1.629   4.104  0.00  0.00    -0.023 A 
ATOM      6  C   UNL     1      -1.319  -2.501   4.589  0.00  0.00    +0.016 A 
ATOM      7  C   UNL     1      -2.515  -2.007   5.104  0.00  0.00    +0.011 A 
ATOM      8  C   UNL     1      -2.749  -0.619   5.125  0.00  0.00    +0.049 A 
ATOM      9  C   UNL     1      -1.775   0.244   4.635  0.00  0.00    +0.055 A 
ATOM     10  C   UNL     1      -0.599  -0.261   4.125  0.00  0.00    +0.110 A 
ATOM     11  N   UNL     1      -3.997  -0.409   5.682  0.00  0.00    -0.357 N 
ATOM     12  H   UNL     1      -4.385   0.615   5.793  0.00  0.00    +0.166 HD
ATOM     13  C   UNL     1      -4.567  -1.573   6.019  0.00  0.00    +0.028 A 
ATOM     14  C   UNL     1      -3.713  -2.614   5.687  0.00  0.00    +0.046 A 
ATOM     15  C   UNL     1      -4.040  -3.973   5.915  0.00  0.00    +0.165 C 
ATOM     16  O   UNL     1      -3.257  -4.861   5.647  0.00  0.00    -0.292 OA
ATOM     17  C   UNL     1      -5.400  -4.278   6.505  0.00  0.00    +0.080 C 
ATOM     18  C   UNL     1      -5.834  -3.143   7.433  0.00  0.00    +0.014 C 
ATOM     19  C   UNL     1      -5.912  -1.819   6.663  0.00  0.00    +0.054 C 
ENDBRANCH   1  10
BRANCH   1  20
ATOM     20  N   UNL     1       0.793   0.524   1.885  0.00  0.00    -0.192 NA
ATOM     21  H   UNL     1       1.693   0.003   1.528  0.00  0.00    +0.148 HD
BRANCH  20  22
ATOM     22  C   UNL     1      -0.338   0.737   0.978  0.00  0.00    +0.087 C 
BRANCH  22  23
ATOM     23  C   UNL     1       0.169   0.791  -0.465  0.00  0.00    -0.061 C 
BRANCH  23  24
ATOM     24  N   UNL     1      -0.975   0.847  -1.385  0.00  0.00    +0.387 N 
ATOM     25  H   UNL     1      -1.632  -0.006  -1.159  0.00  0.00    -0.081 HD
BRANCH  24  26
ATOM     26  C   UNL     1      -1.750   2.079  -1.186  0.00  0.00    -0.068 C 
ATOM     27  C   UNL     1      -0.860   3.167  -0.551  0.00  0.00    -0.015 C 
ATOM     28  C   UNL     1      -1.806   3.911   0.424  0.00  0.00    -0.002 C 
ATOM     29  C   UNL     1      -2.672   2.764   1.001  0.00  0.00    -0.002 C 
ATOM     30  C   UNL     1      -2.903   1.823  -0.199  0.00  0.00    -0.015 C 
ENDBRANCH  24  26
BRANCH  24  31
ATOM     31  C   UNL     1      -0.535   0.721  -2.780  0.00  0.00    -0.003 C 
BRANCH  31  32
ATOM     32  C   UNL     1      -1.718   0.380  -3.651  0.00  0.00    +0.089 A 
ATOM     33  C   UNL     1      -2.459   1.258  -4.350  0.00  0.00    +0.042 A 
ATOM     34  C   UNL     1      -3.454   0.511  -5.021  0.00  0.00    +0.041 A 
ATOM     35  C   UNL     1      -3.267  -0.778  -4.685  0.00  0.00    +0.195 A 
ATOM     36  O   UNL     1      -2.213  -0.852  -3.855  0.00  0.00    -0.470 OA
ENDBRANCH  31  32
ENDBRANCH  24  31
ENDBRANCH  23  24
ENDBRANCH  22  23
ENDBRANCH  20  22
ENDBRANCH   1  20
TORSDOF 8
