REMARK  Name = ZINC63151098
REMARK  6 active torsions:
REMARK  status: ('A' for Active; 'I' for Inactive)
REMARK    1  A    between atoms: C_4  and  C_7
REMARK    2  A    between atoms: C_7  and  N_8
REMARK    3  A    between atoms: C_17  and  C_19
REMARK    4  A    between atoms: N_21  and  N_22
REMARK    5  A    between atoms: C_23  and  C_25
REMARK    6  A    between atoms: C_25  and  C_26
REMARK                            x       y       z     vdW  Elec       q    Type
REMARK                         _______ _______ _______ _____ _____    ______ ____
ROOT
ATOM      1  C   UNL     1       6.173   0.909   3.705  0.00  0.00    +0.281 C 
ATOM      2  O   UNL     1       6.594   0.810   4.841  0.00  0.00    -0.267 OA
ATOM      3  N   UNL     1       6.467   1.999   2.969  0.00  0.00    -0.229 N 
ATOM      4  H   UNL     1       6.131   2.077   2.062  0.00  0.00    +0.173 HD
ENDROOT
BRANCH   1  14
ATOM      5  N   UNL     1       4.152  -0.952   1.338  0.00  0.00    -0.224 N 
ATOM      6  C   UNL     1       3.768  -2.099   1.936  0.00  0.00    +0.275 A 
ATOM      7  O   UNL     1       3.074  -2.907   1.347  0.00  0.00    -0.266 OA
ATOM      8  C   UNL     1       4.207  -2.349   3.316  0.00  0.00    +0.050 A 
ATOM      9  C   UNL     1       3.866  -3.499   4.021  0.00  0.00    +0.014 A 
ATOM     10  C   UNL     1       4.319  -3.659   5.313  0.00  0.00    +0.001 A 
ATOM     11  C   UNL     1       5.108  -2.687   5.914  0.00  0.00    +0.001 A 
ATOM     12  C   UNL     1       5.457  -1.540   5.232  0.00  0.00    +0.011 A 
ATOM     13  C   UNL     1       5.011  -1.360   3.927  0.00  0.00    +0.020 A 
ATOM     14  C   UNL     1       5.338  -0.166   3.131  0.00  0.00    +0.155 A 
ATOM     15  N   UNL     1       4.884  -0.070   1.905  0.00  0.00    -0.163 NA
BRANCH   5  16
ATOM     16  C   UNL     1       3.711  -0.707  -0.038  0.00  0.00    +0.182 C 
BRANCH  16  20
ATOM     17  C   UNL     1      -0.017   1.378   0.010  0.00  0.00    +0.000 A 
ATOM     18  C   UNL     1       1.171   2.086   0.002  0.00  0.00    +0.000 A 
ATOM     19  C   UNL     1       2.377   1.411  -0.013  0.00  0.00    +0.005 A 
ATOM     20  C   UNL     1       2.396   0.029  -0.020  0.00  0.00    -0.026 A 
ATOM     21  C   UNL     1       1.208  -0.679  -0.012  0.00  0.00    +0.005 A 
ATOM     22  C   UNL     1       0.002  -0.004   0.002  0.00  0.00    +0.000 A 
ENDBRANCH  16  20
ENDBRANCH   5  16
ENDBRANCH   1  14
BRANCH   3  23
ATOM     23  N   UNL     1       7.259   3.018   3.513  0.00  0.00    -0.234 N 
ATOM     24  C   UNL     1       7.554   4.108   2.777  0.00  0.00    +0.233 C 
ATOM     25  O   UNL     1       7.133   4.206   1.643  0.00  0.00    -0.274 OA
ATOM     26  H   UNL     1       7.595   2.940   4.419  0.00  0.00    +0.173 HD
BRANCH  24  27
ATOM     27  C   UNL     1       8.405   5.205   3.362  0.00  0.00    +0.130 C 
BRANCH  27  28
ATOM     28  C   UNL     1       8.584   6.300   2.342  0.00  0.00    -0.033 C 
ATOM     29  C   UNL     1       7.852   7.432   2.227  0.00  0.00    -0.001 A 
ATOM     30  C   UNL     1       6.713   7.960   2.987  0.00  0.00    +0.010 A 
ATOM     31  C   UNL     1       6.178   9.149   2.626  0.00  0.00    +0.001 A 
ATOM     32  C   UNL     1       6.683   9.886   1.546  0.00  0.00    +0.002 A 
ATOM     33  C   UNL     1       7.727   9.466   0.800  0.00  0.00    +0.026 A 
ATOM     34  C   UNL     1       8.367   8.230   1.092  0.00  0.00    +0.043 A 
ATOM     35  N   UNL     1       9.378   7.616   0.527  0.00  0.00    -0.380 N 
ATOM     36  C   UNL     1       9.623   6.360   1.245  0.00  0.00    +0.145 C 
ATOM     37  H   UNL     1       9.883   7.940  -0.236  0.00  0.00    +0.160 HD
ENDBRANCH  27  28
ENDBRANCH  24  27
ENDBRANCH   3  23
TORSDOF 6
