REMARK  Name = ZINC67414080
REMARK  8 active torsions:
REMARK  status: ('A' for Active; 'I' for Inactive)
REMARK    1  A    between atoms: C_1  and  N_2
REMARK    2  A    between atoms: N_2  and  C_3
REMARK    3  A    between atoms: N_2  and  C_19
REMARK    4  A    between atoms: C_3  and  C_4
REMARK    5  A    between atoms: C_4  and  N_5
REMARK    6  A    between atoms: N_8  and  N_9
REMARK    7  A    between atoms: C_10  and  C_12
REMARK    8  A    between atoms: C_12  and  C_13
REMARK                            x       y       z     vdW  Elec       q    Type
REMARK                         _______ _______ _______ _____ _____    ______ ____
ROOT
ATOM      1  N   UNL     1       0.637  -0.589   3.635  0.00  0.00    -0.300 N 
ATOM      2  C   UNL     1       0.130  -0.362   4.862  0.00  0.00    +0.316 C 
ATOM      3  O   UNL     1      -0.916   0.245   4.985  0.00  0.00    -0.251 OA
ATOM      4  N   UNL     1       0.781  -0.808   5.954  0.00  0.00    -0.218 N 
ATOM      5  H   UNL     1       1.472  -1.073   3.537  0.00  0.00    +0.150 HD
ATOM      6  H   UNL     1       0.416  -0.645   6.838  0.00  0.00    +0.174 HD
ENDROOT
BRANCH   4   7
ATOM      7  N   UNL     1       1.987  -1.508   5.813  0.00  0.00    -0.233 N 
ATOM      8  C   UNL     1       2.639  -1.955   6.905  0.00  0.00    +0.229 C 
ATOM      9  O   UNL     1       2.182  -1.751   8.010  0.00  0.00    -0.274 OA
ATOM     10  H   UNL     1       2.352  -1.671   4.929  0.00  0.00    +0.173 HD
BRANCH   8  11
ATOM     11  C   UNL     1       3.935  -2.708   6.753  0.00  0.00    +0.101 C 
BRANCH  11  12
ATOM     12  C   UNL     1       4.463  -3.098   8.135  0.00  0.00    -0.002 C 
ATOM     13  C   UNL     1       4.819  -1.834   8.921  0.00  0.00    +0.004 C 
ATOM     14  C   UNL     1       5.346  -2.225  10.303  0.00  0.00    +0.000 C 
ATOM     15  C   UNL     1       6.595  -3.095  10.145  0.00  0.00    +0.000 C 
ATOM     16  C   UNL     1       6.240  -4.359   9.359  0.00  0.00    +0.000 C 
ATOM     17  C   UNL     1       5.712  -3.968   7.977  0.00  0.00    +0.004 C 
ENDBRANCH  11  12
ENDBRANCH   8  11
ENDBRANCH   4   7
BRANCH   1  18
ATOM     18  C   UNL     1      -0.071  -0.103   2.448  0.00  0.00    +0.087 C 
BRANCH  18  19
ATOM     19  C   UNL     1       0.713  -0.491   1.192  0.00  0.00    -0.060 C 
BRANCH  19  21
ATOM     20  C   UNL     1      -0.018   1.465   0.010  0.00  0.00    -0.096 C 
ATOM     21  N   UNL     1       0.002  -0.004   0.002  0.00  0.00    +0.381 N 
ATOM     22  H   UNL     1      -0.945  -0.353   0.009  0.00  0.00    -0.082 HD
BRANCH  21  23
ATOM     23  C   UNL     1       0.690  -0.478  -1.207  0.00  0.00    -0.069 C 
ATOM     24  C   UNL     1       0.710  -2.008  -1.215  0.00  0.00    -0.015 C 
ATOM     25  C   UNL     1       1.427  -2.501  -2.474  0.00  0.00    -0.002 C 
ATOM     26  C   UNL     1       0.687  -1.994  -3.713  0.00  0.00    -0.000 C 
ATOM     27  C   UNL     1       0.666  -0.464  -3.705  0.00  0.00    -0.002 C 
ATOM     28  C   UNL     1      -0.050   0.029  -2.446  0.00  0.00    -0.015 C 
ENDBRANCH  21  23
ENDBRANCH  19  21
ENDBRANCH  18  19
ENDBRANCH   1  18
TORSDOF 7
