REMARK  Name = ZINC06282221
REMARK  10 active torsions:
REMARK  status: ('A' for Active; 'I' for Inactive)
REMARK    1  A    between atoms: C_1  and  C_2
REMARK    2  A    between atoms: C_7  and  C_14
REMARK    3  A    between atoms: C_14  and  C_16
REMARK    4  A    between atoms: C_14  and  N_68
REMARK    5  A    between atoms: N_20  and  C_21
REMARK    6  A    between atoms: C_21  and  C_22
REMARK    7  A    between atoms: C_21  and  C_23
REMARK    8  A    between atoms: C_21  and  C_24
REMARK    9  A    between atoms: N_27  and  C_30
REMARK   10  A    between atoms: C_34  and  C_36
REMARK                            x       y       z     vdW  Elec       q    Type
REMARK                         _______ _______ _______ _____ _____    ______ ____
ROOT
ATOM      1  C   UNL     1       3.637   2.293   1.189  0.00  0.00    +0.039 C 
ENDROOT
BRANCH   1   8
ATOM      2  C   UNL     1       4.649  10.199   0.887  0.00  0.00    +0.044 C 
ATOM      3  C   UNL     1       4.599   8.713   1.130  0.00  0.00    -0.048 A 
ATOM      4  C   UNL     1       5.313   8.165   2.187  0.00  0.00    +0.004 A 
ATOM      5  C   UNL     1       5.282   6.820   2.425  0.00  0.00    +0.010 A 
ATOM      6  C   UNL     1       4.523   5.987   1.595  0.00  0.00    -0.001 A 
ATOM      7  C   UNL     1       4.463   4.542   1.824  0.00  0.00    +0.017 A 
ATOM      8  C   UNL     1       3.716   3.784   0.985  0.00  0.00    +0.011 A 
ATOM      9  C   UNL     1       3.007   4.387  -0.077  0.00  0.00    +0.251 A 
ATOM     10  O   UNL     1       2.338   3.687  -0.817  0.00  0.00    -0.268 OA
ATOM     11  N   UNL     1       3.052   5.713  -0.291  0.00  0.00    -0.322 N 
ATOM     12  H   UNL     1       2.553   6.095  -1.030  0.00  0.00    +0.169 HD
ATOM     13  C   UNL     1       3.798   6.539   0.523  0.00  0.00    +0.049 A 
ATOM     14  C   UNL     1       3.845   7.911   0.300  0.00  0.00    +0.029 A 
ENDBRANCH   1   8
BRANCH   1  20
ATOM     15  C   UNL     1       2.104   0.424   1.339  0.00  0.00    -0.058 C 
ATOM     16  C   UNL     1       0.622   0.043   1.377  0.00  0.00    +0.086 C 
ATOM     17  N   UNL     1      -0.007   0.652   2.557  0.00  0.00    -0.333 N 
ATOM     18  C   UNL     1       0.118   2.116   2.521  0.00  0.00    +0.086 C 
ATOM     19  C   UNL     1       1.600   2.497   2.482  0.00  0.00    -0.058 C 
ATOM     20  N   UNL     1       2.216   1.897   1.280  0.00  0.00    +0.391 N 
ATOM     21  H   UNL     1       1.721   2.236   0.447  0.00  0.00    -0.080 HD
BRANCH  17  22
ATOM     22  C   UNL     1      -1.346   0.268   2.665  0.00  0.00    +0.030 A 
ATOM     23  C   UNL     1      -1.905  -0.581   1.717  0.00  0.00    +0.023 A 
ATOM     24  C   UNL     1      -3.227  -0.963   1.829  0.00  0.00    +0.002 A 
ATOM     25  C   UNL     1      -3.998  -0.494   2.878  0.00  0.00    +0.012 A 
ATOM     26  C   UNL     1      -3.446   0.354   3.820  0.00  0.00    +0.057 A 
ATOM     27  C   UNL     1      -2.122   0.737   3.717  0.00  0.00    +0.035 A 
BRANCH  26  28
ATOM     28  C   UNL     1      -4.289   0.863   4.961  0.00  0.00    +0.417 C 
ATOM     29  F   UNL     1      -4.907   2.060   4.586  0.00  0.00    -0.166 F 
ATOM     30  F   UNL     1      -5.266  -0.087   5.278  0.00  0.00    -0.166 F 
ATOM     31  F   UNL     1      -3.476   1.087   6.078  0.00  0.00    -0.166 F 
ENDBRANCH  26  28
ENDBRANCH  17  22
ENDBRANCH   1  20
BRANCH   1  32
ATOM     32  C   UNL     1       4.269   1.591   0.014  0.00  0.00    +0.143 A 
ATOM     33  N   UNL     1       3.805   1.543  -1.211  0.00  0.00    -0.115 NA
ATOM     34  N   UNL     1       4.627   0.850  -1.921  0.00  0.00    -0.023 NA
ATOM     35  N   UNL     1       5.603   0.455  -1.181  0.00  0.00    -0.043 NA
ATOM     36  N   UNL     1       5.421   0.896   0.018  0.00  0.00    -0.225 N 
BRANCH  36  37
ATOM     37  C   UNL     1       6.302   0.678   1.169  0.00  0.00    +0.059 C 
ATOM     38  C   UNL     1       5.552  -0.112   2.243  0.00  0.00    +0.036 C 
ATOM     39  C   UNL     1       7.536  -0.109   0.724  0.00  0.00    +0.036 C 
ATOM     40  C   UNL     1       6.738   2.029   1.740  0.00  0.00    +0.036 C 
ENDBRANCH  36  37
ENDBRANCH   1  32
TORSDOF 6
