REMARK  Name = ZINC12572103
REMARK  11 active torsions:
REMARK  status: ('A' for Active; 'I' for Inactive)
REMARK    1  A    between atoms: C_1  and  C_2
REMARK    2  A    between atoms: C_5  and  N_9
REMARK    3  A    between atoms: C_6  and  C_8
REMARK    4  A    between atoms: C_15  and  C_17
REMARK    5  A    between atoms: C_17  and  O_18
REMARK    6  A    between atoms: O_18  and  C_19
REMARK    7  A    between atoms: C_22  and  C_28
REMARK    8  A    between atoms: C_24  and  C_25
REMARK    9  A    between atoms: C_25  and  N_71
REMARK   10  A    between atoms: C_26  and  N_71
REMARK   11  A    between atoms: C_27  and  N_71
REMARK                            x       y       z     vdW  Elec       q    Type
REMARK                         _______ _______ _______ _____ _____    ______ ____
ROOT
ATOM      1  C   UNL     1       4.057  -3.789  -0.059  0.00  0.00    +0.123 A 
ATOM      2  C   UNL     1       2.669  -3.850  -0.045  0.00  0.00    +0.046 A 
ATOM      3  C   UNL     1       1.927  -2.690  -0.032  0.00  0.00    +0.014 A 
ATOM      4  C   UNL     1       2.571  -1.451  -0.031  0.00  0.00    +0.008 A 
ATOM      5  C   UNL     1       3.966  -1.393  -0.049  0.00  0.00    +0.016 A 
ATOM      6  C   UNL     1       4.702  -2.559  -0.058  0.00  0.00    -0.022 A 
ENDROOT
BRANCH   4   7
ATOM      7  C   UNL     1       1.778  -0.204  -0.016  0.00  0.00    +0.109 A 
ATOM      8  N   UNL     1       2.200   1.042  -0.013  0.00  0.00    -0.239 NA
ATOM      9  C   UNL     1       1.356   2.093   0.000  0.00  0.00    +0.079 A 
ATOM     10  C   UNL     1       1.676   3.471   0.005  0.00  0.00    +0.029 A 
ATOM     11  C   UNL     1       0.696   4.414   0.020  0.00  0.00    +0.002 A 
ATOM     12  C   UNL     1      -0.648   4.068   0.032  0.00  0.00    +0.001 A 
ATOM     13  C   UNL     1      -1.004   2.732   0.031  0.00  0.00    +0.017 A 
ATOM     14  C   UNL     1      -0.022   1.772   0.012  0.00  0.00    +0.040 A 
ATOM     15  S   UNL     1       0.002  -0.004   0.002  0.00  0.00    -0.067 S 
ENDBRANCH   4   7
BRANCH   1  16
ATOM     16  O   UNL     1       4.786  -4.935  -0.073  0.00  0.00    -0.483 OA
BRANCH  16  17
ATOM     17  C   UNL     1       4.059  -6.166  -0.073  0.00  0.00    +0.324 C 
BRANCH  17  24
ATOM     18  N   UNL     1       3.664 -11.027  -1.093  0.00  0.00    -0.327 N 
ATOM     19  C   UNL     1       5.082 -10.673  -1.244  0.00  0.00    +0.124 C 
ATOM     20  C   UNL     1       5.493  -9.728  -0.110  0.00  0.00    +0.127 C 
ATOM     21  N   UNL     1       4.565  -8.587  -0.094  0.00  0.00    -0.296 N 
ATOM     22  C   UNL     1       3.121  -8.864  -0.075  0.00  0.00    +0.127 C 
ATOM     23  C   UNL     1       2.803  -9.843  -1.216  0.00  0.00    +0.124 C 
ATOM     24  C   UNL     1       5.027  -7.321  -0.090  0.00  0.00    +0.253 C 
ATOM     25  O   UNL     1       6.221  -7.111  -0.101  0.00  0.00    -0.272 OA
BRANCH  18  30
ATOM     26  C   UNL     1       2.162 -15.031  -4.817  0.00  0.00    +0.044 C 
ATOM     27  C   UNL     1       2.561 -13.967  -3.827  0.00  0.00    -0.050 A 
ATOM     28  C   UNL     1       3.045 -12.752  -4.278  0.00  0.00    +0.005 A 
ATOM     29  C   UNL     1       3.412 -11.775  -3.374  0.00  0.00    +0.023 A 
ATOM     30  C   UNL     1       3.293 -12.013  -2.010  0.00  0.00    +0.033 A 
ATOM     31  C   UNL     1       2.811 -13.236  -1.561  0.00  0.00    -0.029 A 
ATOM     32  C   UNL     1       2.442 -14.207  -2.471  0.00  0.00    +0.008 A 
ATOM     33  C   UNL     1       2.687 -13.500  -0.083  0.00  0.00    +0.045 C 
ENDBRANCH  18  30
ENDBRANCH  17  24
ENDBRANCH  16  17
ENDBRANCH   1  16
BRANCH   6  34
ATOM     34  C   UNL     1       6.207  -2.498  -0.072  0.00  0.00    -0.040 C 
BRANCH  34  37
ATOM     35  C   UNL     1       8.130  -2.425  -1.541  0.00  0.00    -0.096 C 
ATOM     36  C   UNL     1       6.394  -4.073  -1.901  0.00  0.00    -0.096 C 
ATOM     37  N   UNL     1       6.679  -2.692  -1.459  0.00  0.00    +0.379 N 
ATOM     38  H   UNL     1       6.184  -2.036  -2.075  0.00  0.00    -0.082 HD
ENDBRANCH  34  37
ENDBRANCH   6  34
TORSDOF 7
