REMARK  Name = ZINC63905996
REMARK  9 active torsions:
REMARK  status: ('A' for Active; 'I' for Inactive)
REMARK    1  A    between atoms: C_1  and  C_2
REMARK    2  A    between atoms: C_4  and  C_19
REMARK    3  A    between atoms: C_5  and  C_18
REMARK    4  A    between atoms: N_7  and  C_8
REMARK    5  A    between atoms: C_12  and  C_14
REMARK    6  A    between atoms: C_19  and  C_21
REMARK    7  A    between atoms: N_23  and  N_24
REMARK    8  A    between atoms: C_25  and  C_27
REMARK    9  A    between atoms: C_27  and  C_28
REMARK                            x       y       z     vdW  Elec       q    Type
REMARK                         _______ _______ _______ _____ _____    ______ ____
ROOT
ATOM      1  C   UNL     1       0.242  -0.303  -2.578  0.00  0.00    +0.248 C 
ATOM      2  O   UNL     1       0.684  -1.012  -3.463  0.00  0.00    -0.282 OA
ENDROOT
BRANCH   1   5
ATOM      3  C   UNL     1       0.769   2.034  -0.487  0.00  0.00    +0.035 C 
ATOM      4  C   UNL     1       0.483   0.573  -0.133  0.00  0.00    +0.126 C 
ATOM      5  C   UNL     1       0.823  -0.331  -1.299  0.00  0.00    +0.044 C 
ATOM      6  C   UNL     1       1.797  -1.173  -0.870  0.00  0.00    +0.028 C 
ATOM      7  N   UNL     1       2.131  -0.933   0.417  0.00  0.00    -0.267 N 
ATOM      8  N   UNL     1       1.373   0.121   0.950  0.00  0.00    -0.246 N 
ATOM      9  C   UNL     1       2.427  -2.244  -1.723  0.00  0.00    +0.062 C 
ATOM     10  H   UNL     1       2.805  -1.427   0.910  0.00  0.00    +0.170 HD
BRANCH   8  11
ATOM     11  C   UNL     1       1.448   0.640   2.244  0.00  0.00    +0.049 A 
ATOM     12  C   UNL     1       0.621   1.691   2.622  0.00  0.00    +0.025 A 
ATOM     13  C   UNL     1       0.697   2.201   3.903  0.00  0.00    +0.002 A 
ATOM     14  C   UNL     1       1.595   1.668   4.809  0.00  0.00    +0.012 A 
ATOM     15  C   UNL     1       2.420   0.623   4.437  0.00  0.00    +0.057 A 
ATOM     16  C   UNL     1       2.344   0.103   3.159  0.00  0.00    +0.037 A 
BRANCH  15  17
ATOM     17  C   UNL     1       3.397   0.045   5.428  0.00  0.00    +0.417 C 
ATOM     18  F   UNL     1       3.285   0.726   6.644  0.00  0.00    -0.166 F 
ATOM     19  F   UNL     1       3.115  -1.311   5.625  0.00  0.00    -0.166 F 
ATOM     20  F   UNL     1       4.699   0.183   4.934  0.00  0.00    -0.166 F 
ENDBRANCH  15  17
ENDBRANCH   8  11
ENDBRANCH   1   5
BRANCH   1  21
ATOM     21  C   UNL     1      -0.918   0.594  -2.851  0.00  0.00    +0.300 C 
ATOM     22  O   UNL     1      -1.436   1.210  -1.942  0.00  0.00    -0.265 OA
ATOM     23  N   UNL     1      -1.391   0.722  -4.107  0.00  0.00    -0.228 N 
ATOM     24  H   UNL     1      -0.977   0.229  -4.833  0.00  0.00    +0.173 HD
BRANCH  23  25
ATOM     25  N   UNL     1      -2.480   1.565  -4.363  0.00  0.00    -0.234 N 
ATOM     26  C   UNL     1      -2.952   1.692  -5.619  0.00  0.00    +0.233 C 
ATOM     27  O   UNL     1      -2.435   1.077  -6.527  0.00  0.00    -0.274 OA
ATOM     28  H   UNL     1      -2.893   2.057  -3.637  0.00  0.00    +0.173 HD
BRANCH  26  29
ATOM     29  C   UNL     1      -4.124   2.599  -5.895  0.00  0.00    +0.130 C 
BRANCH  29  30
ATOM     30  C   UNL     1      -4.452   2.563  -7.365  0.00  0.00    -0.033 C 
ATOM     31  C   UNL     1      -5.379   1.787  -7.973  0.00  0.00    -0.001 A 
ATOM     32  C   UNL     1      -6.322   0.783  -7.466  0.00  0.00    +0.010 A 
ATOM     33  C   UNL     1      -7.145   0.157  -8.337  0.00  0.00    +0.001 A 
ATOM     34  C   UNL     1      -7.120   0.442  -9.709  0.00  0.00    +0.002 A 
ATOM     35  C   UNL     1      -6.281   1.351 -10.250  0.00  0.00    +0.026 A 
ATOM     36  C   UNL     1      -5.372   2.070  -9.426  0.00  0.00    +0.043 A 
ATOM     37  N   UNL     1      -4.476   2.985  -9.706  0.00  0.00    -0.380 N 
ATOM     38  C   UNL     1      -3.816   3.390  -8.460  0.00  0.00    +0.145 C 
ATOM     39  H   UNL     1      -4.284   3.337 -10.589  0.00  0.00    +0.160 HD
ENDBRANCH  29  30
ENDBRANCH  26  29
ENDBRANCH  23  25
ENDBRANCH   1  21
TORSDOF 7
