REMARK  Name = ZINC40378842
REMARK  5 active torsions:
REMARK  status: ('A' for Active; 'I' for Inactive)
REMARK    1  A    between atoms: C_1  and  N_2
REMARK    2  A    between atoms: C_6  and  C_7
REMARK    3  A    between atoms: N_9  and  C_10
REMARK    4  A    between atoms: C_12  and  S_17
REMARK    5  A    between atoms: S_17  and  N_20
REMARK                            x       y       z     vdW  Elec       q    Type
REMARK                         _______ _______ _______ _____ _____    ______ ____
ROOT
ATOM      1  C   UNL     1      -0.399   1.368   4.113  0.00  0.00    +0.054 A 
ATOM      2  C   UNL     1      -0.292   0.450   5.149  0.00  0.00    +0.053 A 
ATOM      3  C   UNL     1      -0.298   0.887   6.460  0.00  0.00    +0.107 A 
ATOM      4  C   UNL     1      -0.410   2.236   6.740  0.00  0.00    +0.030 A 
ATOM      5  C   UNL     1      -0.517   3.153   5.711  0.00  0.00    +0.024 A 
ATOM      6  C   UNL     1      -0.506   2.724   4.397  0.00  0.00    +0.062 A 
ATOM      7 CL   UNL     1      -0.633   3.876   3.105  0.00  0.00    -0.082 Cl
ENDROOT
BRANCH   1  10
ATOM      8  C   UNL     1      -0.434  -0.390   2.511  0.00  0.00    +0.265 C 
ATOM      9  O   UNL     1      -0.519  -1.198   3.417  0.00  0.00    -0.268 OA
ATOM     10  N   UNL     1      -0.394   0.929   2.784  0.00  0.00    -0.279 N 
ATOM     11  H   UNL     1      -0.361   1.574   2.061  0.00  0.00    +0.155 HD
BRANCH   8  17
ATOM     12  C   UNL     1      -0.716  -3.321   1.549  0.00  0.00    +0.149 C 
ATOM     13  N   UNL     1      -0.500  -2.154   0.690  0.00  0.00    -0.345 N 
ATOM     14  C   UNL     1      -0.395  -2.175  -0.662  0.00  0.00    +0.106 A 
ATOM     15  C   UNL     1      -0.200  -0.910  -1.107  0.00  0.00    +0.059 A 
ATOM     16  C   UNL     1      -0.182  -0.063   0.006  0.00  0.00    +0.052 A 
ATOM     17  C   UNL     1      -0.375  -0.853   1.120  0.00  0.00    +0.106 A 
ATOM     18 CL   UNL     1      -0.007  -0.426  -2.763  0.00  0.00    -0.082 Cl
ENDBRANCH   8  17
ENDBRANCH   1  10
BRANCH   3  19
ATOM     19  S   UNL     1      -0.163  -0.277   7.776  0.00  0.00    +0.056 S 
ATOM     20  O   UNL     1      -0.741   0.335   8.920  0.00  0.00    -0.153 OA
ATOM     21  O   UNL     1      -0.619  -1.522   7.265  0.00  0.00    -0.153 OA
BRANCH  19  22
ATOM     22  N   UNL     1       1.450  -0.462   8.102  0.00  0.00    -0.204 NA
ATOM     23  H   UNL     1       1.741  -0.681   9.001  0.00  0.00    +0.144 HD
ATOM     24  H   UNL     1       2.104  -0.351   7.394  0.00  0.00    +0.144 HD
ENDBRANCH  19  22
ENDBRANCH   3  19
TORSDOF 4
