REMARK  Name = ZINC40086166
REMARK  6 active torsions:
REMARK  status: ('A' for Active; 'I' for Inactive)
REMARK    1  A    between atoms: C_1  and  C_2
REMARK    2  A    between atoms: N_10  and  N_14
REMARK    3  A    between atoms: C_15  and  C_17
REMARK    4  A    between atoms: C_17  and  N_18
REMARK    5  A    between atoms: C_22  and  C_24
REMARK    6  A    between atoms: N_26  and  C_27
REMARK                            x       y       z     vdW  Elec       q    Type
REMARK                         _______ _______ _______ _____ _____    ______ ____
ROOT
ATOM      1  C   UNL     1       4.486  -7.717  -0.833  0.00  0.00    +0.021 C 
ENDROOT
BRANCH   1   2
ATOM      2  N   UNL     1       4.961  -7.877  -2.214  0.00  0.00    +0.393 N 
ATOM      3  C   UNL     1       3.829  -7.712  -3.151  0.00  0.00    -0.077 C 
ATOM      4  C   UNL     1       4.110  -8.722  -4.292  0.00  0.00    -0.020 C 
ATOM      5  C   UNL     1       4.714  -9.917  -3.509  0.00  0.00    -0.008 C 
ATOM      6  C   UNL     1       5.524  -9.228  -2.391  0.00  0.00    +0.020 C 
ATOM      7  H   UNL     1       5.668  -7.185  -2.413  0.00  0.00    -0.080 HD
BRANCH   6   8
ATOM      8  C   UNL     1       6.973  -9.130  -2.793  0.00  0.00    +0.204 C 
ATOM      9  O   UNL     1       7.495  -8.043  -2.921  0.00  0.00    -0.277 OA
ATOM     10  N   UNL     1       7.689 -10.251  -3.009  0.00  0.00    -0.287 N 
ATOM     11  H   UNL     1       7.295 -11.120  -2.833  0.00  0.00    +0.155 HD
BRANCH  10  12
ATOM     12  C   UNL     1       9.001 -10.162  -3.489  0.00  0.00    +0.036 A 
ATOM     13  C   UNL     1       9.949 -11.099  -3.099  0.00  0.00    +0.043 A 
ATOM     14  C   UNL     1      11.244 -11.009  -3.575  0.00  0.00    +0.044 A 
ATOM     15  C   UNL     1      11.595  -9.986  -4.438  0.00  0.00    +0.040 A 
ATOM     16  C   UNL     1      10.653  -9.051  -4.827  0.00  0.00    +0.044 A 
ATOM     17  C   UNL     1       9.355  -9.140  -4.359  0.00  0.00    +0.043 A 
ATOM     18 CL   UNL     1      11.098  -7.769  -5.910  0.00  0.00    -0.083 Cl
ATOM     19 CL   UNL     1      12.430 -12.179  -3.088  0.00  0.00    -0.083 Cl
ENDBRANCH  10  12
ENDBRANCH   6   8
ENDBRANCH   1   2
BRANCH   1  21
ATOM     20  N   UNL     1       3.543  -5.917   0.579  0.00  0.00    -0.225 N 
ATOM     21  C   UNL     1       4.024  -6.298  -0.622  0.00  0.00    +0.213 C 
ATOM     22  O   UNL     1       4.085  -5.499  -1.532  0.00  0.00    -0.276 OA
ATOM     23  H   UNL     1       3.495  -6.556   1.306  0.00  0.00    +0.173 HD
BRANCH  20  33
ATOM     24  C   UNL     1       0.589   1.363   1.672  0.00  0.00    +0.007 C 
ATOM     25  C   UNL     1       0.533  -0.150   1.453  0.00  0.00    -0.014 C 
ATOM     26  C   UNL     1       1.219  -0.499   0.131  0.00  0.00    +0.006 C 
ATOM     27  C   UNL     1       1.153  -2.012  -0.093  0.00  0.00    +0.035 C 
ATOM     28  C   UNL     1       1.843  -2.729   1.062  0.00  0.00    +0.114 C 
ATOM     29  C   UNL     1       1.183  -2.373   2.389  0.00  0.00    +0.035 C 
ATOM     30  C   UNL     1       1.248  -0.859   2.604  0.00  0.00    +0.006 C 
ATOM     31  C   UNL     1       1.820  -4.224   0.845  0.00  0.00    +0.263 C 
ATOM     32  O   UNL     1       0.844  -4.937   0.752  0.00  0.00    -0.271 OA
ATOM     33  N   UNL     1       3.115  -4.598   0.775  0.00  0.00    -0.137 N 
ATOM     34  C   UNL     1       3.938  -3.552   0.917  0.00  0.00    +0.326 C 
ATOM     35  O   UNL     1       5.150  -3.638   0.891  0.00  0.00    -0.251 OA
ATOM     36  N   UNL     1       3.273  -2.395   1.093  0.00  0.00    -0.284 N 
ATOM     37  H   UNL     1       3.661  -1.514   1.217  0.00  0.00    +0.151 HD
ENDBRANCH  20  33
ENDBRANCH   1  21
TORSDOF 5
