REMARK  Name = ZINC04554393
REMARK  11 active torsions:
REMARK  status: ('A' for Active; 'I' for Inactive)
REMARK    1  A    between atoms: C_1  and  C_2
REMARK    2  A    between atoms: C_2  and  C_3
REMARK    3  A    between atoms: C_2  and  C_4
REMARK    4  A    between atoms: C_4  and  N_57
REMARK    5  A    between atoms: C_5  and  C_6
REMARK    6  A    between atoms: C_5  and  N_57
REMARK    7  A    between atoms: N_8  and  C_9
REMARK    8  A    between atoms: C_10  and  C_18
REMARK    9  A    between atoms: N_20  and  C_21
REMARK   10  A    between atoms: C_26  and  O_27
REMARK   11  A    between atoms: O_27  and  C_28
REMARK                            x       y       z     vdW  Elec       q    Type
REMARK                         _______ _______ _______ _____ _____    ______ ____
ROOT
ATOM      1  C   UNL     1      -5.566   0.333   0.975  0.00  0.00    +0.084 A 
ATOM      2  C   UNL     1      -4.848  -0.010  -0.162  0.00  0.00    +0.069 A 
ATOM      3  C   UNL     1      -5.405   0.372  -1.448  0.00  0.00    -0.023 A 
ATOM      4  C   UNL     1      -6.588   1.023  -1.393  0.00  0.00    -0.004 A 
ATOM      5  S   UNL     1      -6.957   1.143   0.335  0.00  0.00    -0.077 S 
ATOM      6  C   UNL     1      -7.394   1.532  -2.548  0.00  0.00    +0.043 C 
ATOM      7  C   UNL     1      -6.502   1.530  -3.798  0.00  0.00    +0.005 C 
ATOM      8  C   UNL     1      -5.790   0.177  -3.894  0.00  0.00    +0.005 C 
ATOM      9  C   UNL     1      -4.743   0.061  -2.785  0.00  0.00    +0.037 C 
ENDROOT
BRANCH   1  12
ATOM     10  C   UNL     1      -6.074   0.502   3.282  0.00  0.00    +0.201 C 
ATOM     11  O   UNL     1      -7.099   1.088   3.003  0.00  0.00    -0.278 OA
ATOM     12  N   UNL     1      -5.246   0.089   2.302  0.00  0.00    -0.281 N 
ATOM     13  H   UNL     1      -4.427  -0.380   2.525  0.00  0.00    +0.155 HD
BRANCH  10  14
ATOM     14  C   UNL     1      -5.727   0.236   4.724  0.00  0.00    +0.015 C 
BRANCH  14  15
ATOM     15  N   UNL     1      -6.790   0.786   5.587  0.00  0.00    +0.385 N 
ATOM     16  H   UNL     1      -6.866   1.798   5.427  0.00  0.00    -0.085 HD
ATOM     17  H   UNL     1      -7.682   0.335   5.354  0.00  0.00    -0.085 HD
BRANCH  15  18
ATOM     18  C   UNL     1      -6.476   0.540   7.007  0.00  0.00    -0.079 C 
BRANCH  18  20
ATOM     19  C   UNL     1      -7.339   0.761   9.341  0.00  0.00    +0.005 C 
ATOM     20  C   UNL     1      -7.593   1.120   7.875  0.00  0.00    -0.034 C 
ATOM     21  C   UNL     1      -7.621   2.642   7.721  0.00  0.00    +0.005 C 
ENDBRANCH  18  20
ENDBRANCH  15  18
ENDBRANCH  14  15
ENDBRANCH  10  14
ENDBRANCH   1  12
BRANCH   2  22
ATOM     22  C   UNL     1      -3.573  -0.727  -0.069  0.00  0.00    +0.251 C 
ATOM     23  O   UNL     1      -3.557  -1.944  -0.076  0.00  0.00    -0.270 OA
ATOM     24  N   UNL     1      -2.418  -0.038   0.026  0.00  0.00    -0.278 N 
ATOM     25  H   UNL     1      -2.435   0.929   0.097  0.00  0.00    +0.155 HD
BRANCH  24  26
ATOM     26  C   UNL     1      -1.194  -0.720   0.021  0.00  0.00    +0.076 A 
ATOM     27  C   UNL     1      -1.090  -1.968   0.617  0.00  0.00    +0.027 A 
ATOM     28  C   UNL     1       0.118  -2.638   0.611  0.00  0.00    +0.002 A 
ATOM     29  C   UNL     1       1.226  -2.067   0.012  0.00  0.00    +0.004 A 
ATOM     30  C   UNL     1       1.129  -0.825  -0.588  0.00  0.00    +0.047 A 
ATOM     31  C   UNL     1      -0.078  -0.145  -0.582  0.00  0.00    +0.141 A 
BRANCH  31  32
ATOM     32  O   UNL     1      -0.173   1.079  -1.168  0.00  0.00    -0.493 OA
ATOM     33  C   UNL     1       1.012   1.606  -1.767  0.00  0.00    +0.277 C 
ENDBRANCH  31  32
ENDBRANCH  24  26
ENDBRANCH   2  22
TORSDOF 8
