REMARK  Name = ZINC20465948
REMARK  10 active torsions:
REMARK  status: ('A' for Active; 'I' for Inactive)
REMARK    1  A    between atoms: C_1  and  N_2
REMARK    2  A    between atoms: N_2  and  C_3
REMARK    3  A    between atoms: N_2  and  C_10
REMARK    4  A    between atoms: C_3  and  C_4
REMARK    5  A    between atoms: C_12  and  C_22
REMARK    6  A    between atoms: C_15  and  C_20
REMARK    7  A    between atoms: C_17  and  O_19
REMARK    8  A    between atoms: C_20  and  O_21
REMARK    9  A    between atoms: C_22  and  N_23
REMARK   10  A    between atoms: N_26  and  C_27
REMARK                            x       y       z     vdW  Elec       q    Type
REMARK                         _______ _______ _______ _____ _____    ______ ____
ROOT
ATOM      1  C   UNL     1      -0.084   1.038  -2.540  0.00  0.00    -0.006 C 
ATOM      2  C   UNL     1      -1.080   1.308  -3.685  0.00  0.00    +0.125 C 
ATOM      3  O   UNL     1      -0.353   1.959  -4.739  0.00  0.00    -0.369 OA
ATOM      4  C   UNL     1       1.026   1.550  -4.616  0.00  0.00    +0.171 C 
ATOM      5  C   UNL     1       1.269   1.555  -3.085  0.00  0.00    +0.134 C 
ENDROOT
BRANCH   1   7
ATOM      6  C   UNL     1       0.673   1.954  -0.430  0.00  0.00    -0.095 C 
ATOM      7  N   UNL     1      -0.472   1.784  -1.335  0.00  0.00    +0.386 N 
ATOM      8  H   UNL     1      -0.806   2.784  -1.649  0.00  0.00    -0.081 HD
BRANCH   7   9
ATOM      9  C   UNL     1      -1.593   1.129  -0.648  0.00  0.00    -0.043 C 
BRANCH   9  10
ATOM     10  C   UNL     1      -2.122   2.038   0.431  0.00  0.00    -0.064 A 
ATOM     11  C   UNL     1      -1.604   1.965   1.711  0.00  0.00    +0.002 A 
ATOM     12  C   UNL     1      -2.086   2.802   2.700  0.00  0.00    +0.000 A 
ATOM     13  C   UNL     1      -3.091   3.706   2.412  0.00  0.00    +0.000 A 
ATOM     14  C   UNL     1      -3.612   3.776   1.133  0.00  0.00    +0.000 A 
ATOM     15  C   UNL     1      -3.128   2.942   0.143  0.00  0.00    +0.002 A 
ENDBRANCH   9  10
ENDBRANCH   7   9
ENDBRANCH   1   7
BRANCH   5  16
ATOM     16  O   UNL     1       1.536   2.878  -2.616  0.00  0.00    -0.391 OA
ATOM     17  H   UNL     1       2.463   3.391  -2.914  0.00  0.00    +0.210 HD
ENDBRANCH   5  16
BRANCH   4  18
ATOM     18  C   UNL     1       1.950   2.551  -5.312  0.00  0.00    +0.190 C 
BRANCH  18  19
ATOM     19  O   UNL     1       1.714   2.517  -6.721  0.00  0.00    -0.392 OA
ATOM     20  H   UNL     1       2.289   3.174  -7.390  0.00  0.00    +0.210 HD
ENDBRANCH  18  19
ENDBRANCH   4  18
BRANCH   2  21
ATOM     21  C   UNL     1      -2.207   2.217  -3.191  0.00  0.00    +0.135 C 
BRANCH  21  22
ATOM     22  N   UNL     1      -3.018   2.652  -4.330  0.00  0.00    -0.297 N 
ATOM     23  C   UNL     1      -4.075   3.466  -4.134  0.00  0.00    +0.304 C 
ATOM     24  O   UNL     1      -4.354   3.839  -3.011  0.00  0.00    -0.253 OA
ATOM     25  N   UNL     1      -4.821   3.866  -5.182  0.00  0.00    -0.267 N 
ATOM     26  H   UNL     1      -2.765   2.315  -5.346  0.00  0.00    +0.150 HD
ATOM     27  H   UNL     1      -4.508   3.618  -6.207  0.00  0.00    +0.156 HD
BRANCH  25  28
ATOM     28  C   UNL     1      -5.997   4.599  -4.967  0.00  0.00    +0.070 A 
ATOM     29  C   UNL     1      -6.610   4.579  -3.722  0.00  0.00    +0.029 A 
ATOM     30  C   UNL     1      -7.766   5.305  -3.510  0.00  0.00    +0.040 A 
ATOM     31  C   UNL     1      -8.319   6.046  -4.541  0.00  0.00    +0.126 A 
ATOM     32  C   UNL     1      -7.713   6.065  -5.785  0.00  0.00    +0.078 A 
ATOM     33  C   UNL     1      -6.553   5.343  -6.001  0.00  0.00    +0.147 A 
ATOM     34  F   UNL     1      -5.961   5.361  -7.215  0.00  0.00    -0.203 F 
ATOM     35  F   UNL     1      -9.452   6.752  -4.332  0.00  0.00    -0.205 F 
ENDBRANCH  25  28
ENDBRANCH  21  22
ENDBRANCH   2  21
TORSDOF 9
