REMARK  Name = ZINC14930973
REMARK  11 active torsions:
REMARK  status: ('A' for Active; 'I' for Inactive)
REMARK    1  A    between atoms: C_1  and  C_2
REMARK    2  A    between atoms: C_6  and  N_9
REMARK    3  A    between atoms: C_7  and  C_8
REMARK    4  A    between atoms: C_10  and  C_12
REMARK    5  A    between atoms: C_12  and  N_13
REMARK    6  A    between atoms: N_13  and  C_14
REMARK    7  A    between atoms: N_13  and  C_15
REMARK    8  A    between atoms: C_15  and  C_16
REMARK    9  A    between atoms: N_21  and  C_22
REMARK   10  A    between atoms: C_26  and  C_29
REMARK   11  A    between atoms: C_27  and  C_28
REMARK                            x       y       z     vdW  Elec       q    Type
REMARK                         _______ _______ _______ _____ _____    ______ ____
ROOT
ATOM      1  C   UNL     1      -0.438  -7.065   4.665  0.00  0.00    +0.019 C 
ENDROOT
BRANCH   1   2
ATOM      2  C   UNL     1      -0.636  -8.530   4.370  0.00  0.00    +0.204 C 
ATOM      3  O   UNL     1      -0.604  -8.927   3.225  0.00  0.00    -0.277 OA
ATOM      4  N   UNL     1      -0.850  -9.398   5.379  0.00  0.00    -0.241 N 
ATOM      5  C   UNL     1      -1.027 -10.707   5.115  0.00  0.00    +0.310 C 
ATOM      6  O   UNL     1      -0.995 -11.106   3.967  0.00  0.00    -0.252 OA
ATOM      7  N   UNL     1      -1.241 -11.575   6.124  0.00  0.00    -0.269 N 
ATOM      8  H   UNL     1      -0.876  -9.079   6.295  0.00  0.00    +0.159 HD
ATOM      9  H   UNL     1      -1.336 -11.249   7.032  0.00  0.00    +0.156 HD
BRANCH   7  10
ATOM     10  C   UNL     1      -1.326 -12.947   5.861  0.00  0.00    +0.038 A 
ATOM     11  C   UNL     1      -1.900 -13.394   4.678  0.00  0.00    +0.023 A 
ATOM     12  C   UNL     1      -1.982 -14.749   4.421  0.00  0.00    +0.002 A 
ATOM     13  C   UNL     1      -1.494 -15.659   5.341  0.00  0.00    +0.004 A 
ATOM     14  C   UNL     1      -0.922 -15.217   6.519  0.00  0.00    -0.046 A 
ATOM     15  C   UNL     1      -0.831 -13.863   6.779  0.00  0.00    -0.026 A 
ATOM     16  C   UNL     1      -0.201 -13.382   8.061  0.00  0.00    +0.046 C 
ATOM     17  C   UNL     1      -0.392 -16.212   7.519  0.00  0.00    +0.044 C 
ENDBRANCH   7  10
ENDBRANCH   1   2
BRANCH   1  18
ATOM     18  N   UNL     1      -0.226  -6.337   3.407  0.00  0.00    +0.389 N 
ATOM     19  C   UNL     1       1.031  -6.782   2.790  0.00  0.00    -0.095 C 
ATOM     20  H   UNL     1      -0.993  -6.520   2.778  0.00  0.00    -0.081 HD
BRANCH  18  21
ATOM     21  C   UNL     1      -0.152  -4.896   3.682  0.00  0.00    +0.019 C 
BRANCH  21  23
ATOM     22  N   UNL     1       0.022  -2.795   2.388  0.00  0.00    -0.287 N 
ATOM     23  C   UNL     1      -0.057  -4.140   2.382  0.00  0.00    +0.201 C 
ATOM     24  O   UNL     1      -0.051  -4.743   1.329  0.00  0.00    -0.278 OA
ATOM     25  H   UNL     1       0.099  -2.317   3.229  0.00  0.00    +0.155 HD
BRANCH  22  31
ATOM     26  C   UNL     1       1.160   1.241  -0.178  0.00  0.00    +0.044 C 
ATOM     27  C   UNL     1       0.536  -0.128  -0.090  0.00  0.00    -0.046 A 
ATOM     28  C   UNL     1      -0.066  -0.685  -1.203  0.00  0.00    +0.004 A 
ATOM     29  C   UNL     1      -0.639  -1.941  -1.127  0.00  0.00    +0.002 A 
ATOM     30  C   UNL     1      -0.611  -2.643   0.063  0.00  0.00    +0.023 A 
ATOM     31  C   UNL     1      -0.007  -2.086   1.182  0.00  0.00    +0.036 A 
ATOM     32  C   UNL     1       0.572  -0.827   1.101  0.00  0.00    -0.026 A 
ATOM     33  C   UNL     1       1.234  -0.221   2.311  0.00  0.00    +0.046 C 
ENDBRANCH  22  31
ENDBRANCH  21  23
ENDBRANCH  18  21
ENDBRANCH   1  18
TORSDOF 6
