REMARK  Name = ZINC11882571
REMARK  10 active torsions:
REMARK  status: ('A' for Active; 'I' for Inactive)
REMARK    1  A    between atoms: C_1  and  C_2
REMARK    2  A    between atoms: C_5  and  C_35
REMARK    3  A    between atoms: N_8  and  S_10
REMARK    4  A    between atoms: S_10  and  C_13
REMARK    5  A    between atoms: C_16  and  C_19
REMARK    6  A    between atoms: N_21  and  C_22
REMARK    7  A    between atoms: C_23  and  C_31
REMARK    8  A    between atoms: C_30  and  N_65
REMARK    9  A    between atoms: C_31  and  O_33
REMARK   10  A    between atoms: O_33  and  C_34
REMARK                            x       y       z     vdW  Elec       q    Type
REMARK                         _______ _______ _______ _____ _____    ______ ____
ROOT
ATOM      1  C   UNL     1      -2.237  -4.123   0.618  0.00  0.00    +0.249 C 
ATOM      2  O   UNL     1      -2.970  -3.174   0.822  0.00  0.00    -0.270 OA
ATOM      3  N   UNL     1      -0.953  -3.918   0.263  0.00  0.00    -0.275 N 
ATOM      4  H   UNL     1      -0.369  -4.675   0.100  0.00  0.00    +0.156 HD
ENDROOT
BRANCH   3   5
ATOM      5  C   UNL     1      -0.469  -2.628   0.130  0.00  0.00    +0.086 A 
ATOM      6  C   UNL     1       0.812  -2.219  -0.224  0.00  0.00    +0.091 A 
ATOM      7  C   UNL     1       1.061  -0.791  -0.293  0.00  0.00    -0.025 A 
ATOM      8  C   UNL     1       0.002  -0.004   0.002  0.00  0.00    -0.021 A 
ATOM      9  S   UNL     1      -1.311  -1.132   0.364  0.00  0.00    -0.079 S 
ATOM     10  C   UNL     1      -0.018   1.492   0.010  0.00  0.00    -0.036 C 
ATOM     11  C   UNL     1       2.151   1.298  -1.051  0.00  0.00    -0.074 C 
ATOM     12  C   UNL     1       2.400  -0.164  -0.666  0.00  0.00    +0.018 C 
ATOM     13  C   UNL     1       1.430   3.432  -0.162  0.00  0.00    -0.096 C 
ATOM     14  N   UNL     1       1.388   1.965   0.023  0.00  0.00    +0.381 N 
ATOM     15  H   UNL     1       1.811   1.731   0.929  0.00  0.00    -0.082 HD
BRANCH   6  16
ATOM     16  C   UNL     1       1.868  -3.190  -0.516  0.00  0.00    +0.342 C 
ATOM     17  O   UNL     1       2.587  -3.594   0.378  0.00  0.00    -0.245 OA
BRANCH  16  18
ATOM     18  O   UNL     1       2.043  -3.638  -1.777  0.00  0.00    -0.464 OA
ATOM     19  C   UNL     1       3.108  -4.600  -1.992  0.00  0.00    +0.280 C 
ENDBRANCH  16  18
ENDBRANCH   6  16
ENDBRANCH   3   5
BRANCH   1  23
ATOM     20  C   UNL     1      -3.723  -8.081   1.026  0.00  0.00    +0.106 A 
ATOM     21  C   UNL     1      -4.560  -7.003   1.259  0.00  0.00    +0.029 A 
ATOM     22  C   UNL     1      -4.084  -5.715   1.128  0.00  0.00    +0.015 A 
ATOM     23  C   UNL     1      -2.754  -5.500   0.760  0.00  0.00    +0.037 A 
ATOM     24  C   UNL     1      -1.917  -6.591   0.521  0.00  0.00    +0.015 A 
ATOM     25  C   UNL     1      -2.405  -7.874   0.661  0.00  0.00    +0.029 A 
BRANCH  20  26
ATOM     26  S   UNL     1      -4.340  -9.722   1.195  0.00  0.00    +0.061 S 
ATOM     27  O   UNL     1      -3.217 -10.553   1.455  0.00  0.00    -0.153 OA
ATOM     28  O   UNL     1      -5.454  -9.649   2.075  0.00  0.00    -0.153 OA
BRANCH  26  34
ATOM     29  C   UNL     1      -5.754  -7.779  -1.781  0.00  0.00    +0.009 C 
ATOM     30  C   UNL     1      -6.382  -9.162  -1.964  0.00  0.00    +0.002 C 
ATOM     31  C   UNL     1      -5.598  -9.942  -3.022  0.00  0.00    +0.009 C 
ATOM     32  C   UNL     1      -4.136 -10.069  -2.587  0.00  0.00    +0.002 C 
ATOM     33  C   UNL     1      -4.066 -10.841  -1.265  0.00  0.00    +0.112 C 
ATOM     34  N   UNL     1      -4.933 -10.177  -0.283  0.00  0.00    -0.176 NA
ATOM     35  C   UNL     1      -6.338  -9.929  -0.634  0.00  0.00    +0.112 C 
ATOM     36  C   UNL     1      -3.347 -10.820  -3.660  0.00  0.00    +0.009 C 
ENDBRANCH  26  34
ENDBRANCH  20  26
ENDBRANCH   1  23
TORSDOF 6
