REMARK  Name = ZINC05102441
REMARK  6 active torsions:
REMARK  status: ('A' for Active; 'I' for Inactive)
REMARK    1  A    between atoms: C_1  and  C_2
REMARK    2  A    between atoms: C_6  and  N_8
REMARK    3  A    between atoms: N_8  and  C_9
REMARK    4  A    between atoms: C_9  and  C_11
REMARK    5  A    between atoms: C_9  and  C_18
REMARK    6  A    between atoms: C_27  and  O_28
REMARK                            x       y       z     vdW  Elec       q    Type
REMARK                         _______ _______ _______ _____ _____    ______ ____
ROOT
ATOM      1  C   UNL     1       0.069  -4.101   2.466  0.00  0.00    +0.136 C 
ENDROOT
BRANCH   1   2
ATOM      2  C   UNL     1       0.791  -4.550   3.710  0.00  0.00    +0.021 A 
ATOM      3  C   UNL     1       0.758  -3.748   4.848  0.00  0.00    +0.010 A 
ATOM      4  C   UNL     1       1.401  -4.125   5.988  0.00  0.00    +0.010 A 
ATOM      5  C   UNL     1       2.106  -5.339   6.021  0.00  0.00    +0.004 A 
ATOM      6  C   UNL     1       2.782  -5.763   7.181  0.00  0.00    +0.011 A 
ATOM      7  C   UNL     1       3.447  -6.955   7.141  0.00  0.00    +0.020 A 
ATOM      8  C   UNL     1       3.444  -7.713   5.972  0.00  0.00    +0.111 A 
ATOM      9  N   UNL     1       2.813  -7.315   4.894  0.00  0.00    -0.251 NA
ATOM     10  C   UNL     1       2.143  -6.159   4.867  0.00  0.00    +0.113 A 
ATOM     11  C   UNL     1       1.462  -5.739   3.706  0.00  0.00    +0.148 A 
BRANCH  11  12
ATOM     12  O   UNL     1       1.478  -6.510   2.588  0.00  0.00    -0.504 OA
ATOM     13  H   UNL     1       2.213  -6.320   1.989  0.00  0.00    +0.292 HD
ENDBRANCH  11  12
ENDBRANCH   1   2
BRANCH   1  14
ATOM     14  C   UNL     1      -1.326  -4.673   2.460  0.00  0.00    -0.021 A 
ATOM     15  C   UNL     1      -2.322  -4.072   3.207  0.00  0.00    +0.006 A 
ATOM     16  C   UNL     1      -3.601  -4.596   3.202  0.00  0.00    +0.002 A 
ATOM     17  C   UNL     1      -3.885  -5.721   2.451  0.00  0.00    +0.020 A 
ATOM     18  C   UNL     1      -2.888  -6.323   1.703  0.00  0.00    +0.041 A 
ATOM     19  C   UNL     1      -1.609  -5.794   1.704  0.00  0.00    +0.025 A 
ATOM     20 CL   UNL     1      -3.243  -7.736   0.760  0.00  0.00    -0.084 Cl
ENDBRANCH   1  14
BRANCH   1  21
ATOM     21  N   UNL     1      -0.004  -2.638   2.444  0.00  0.00    -0.320 N 
ATOM     22  H   UNL     1       0.043  -2.137   3.274  0.00  0.00    +0.148 HD
BRANCH  21  28
ATOM     23  C   UNL     1      -0.404   1.537   0.135  0.00  0.00    +0.063 C 
ATOM     24  C   UNL     1      -0.335   0.032   0.096  0.00  0.00    +0.014 A 
ATOM     25  C   UNL     1      -0.407  -0.622  -1.118  0.00  0.00    +0.021 A 
ATOM     26  C   UNL     1      -0.343  -2.009  -1.148  0.00  0.00    +0.005 A 
ATOM     27  C   UNL     1      -0.207  -2.690   0.048  0.00  0.00    +0.041 A 
ATOM     28  C   UNL     1      -0.140  -1.966   1.234  0.00  0.00    +0.097 A 
ATOM     29  N   UNL     1      -0.200  -0.643   1.221  0.00  0.00    -0.347 N 
ATOM     30  H   UNL     1      -0.147  -0.159   2.060  0.00  0.00    +0.167 HD
ENDBRANCH  21  28
ENDBRANCH   1  21
TORSDOF 5
