REMARK  Name = ZINC39477429
REMARK  6 active torsions:
REMARK  status: ('A' for Active; 'I' for Inactive)
REMARK    1  A    between atoms: C_1  and  C_2
REMARK    2  A    between atoms: C_9  and  C_16
REMARK    3  A    between atoms: C_11  and  O_12
REMARK    4  A    between atoms: C_16  and  S_17
REMARK    5  A    between atoms: S_17  and  C_18
REMARK    6  A    between atoms: C_21  and  C_23
REMARK                            x       y       z     vdW  Elec       q    Type
REMARK                         _______ _______ _______ _____ _____    ______ ____
ROOT
ATOM      1  C   UNL     1      -0.036   1.450   0.103  0.00  0.00    +0.109 C 
ATOM      2  C   UNL     1       0.231  -0.029  -0.007  0.00  0.00    +0.214 C 
ATOM      3  O   UNL     1       0.659  -0.644   0.953  0.00  0.00    -0.276 OA
ATOM      4  N   UNL     1       0.000  -0.657  -1.144  0.00  0.00    -0.286 N 
ATOM      5  C   UNL     1       0.106  -2.013  -1.205  0.00  0.00    +0.037 A 
ATOM      6  C   UNL     1       0.205  -2.651  -2.454  0.00  0.00    +0.024 A 
ATOM      7  C   UNL     1       0.312  -4.003  -2.529  0.00  0.00    +0.013 A 
ATOM      8  C   UNL     1       0.323  -4.772  -1.352  0.00  0.00    +0.022 A 
ATOM      9  C   UNL     1       0.433  -6.178  -1.409  0.00  0.00    -0.020 A 
ATOM     10  C   UNL     1       0.440  -6.887  -0.224  0.00  0.00    +0.092 A 
ATOM     11  C   UNL     1       0.340  -6.214   0.985  0.00  0.00    +0.285 A 
ATOM     12  O   UNL     1       0.235  -4.882   1.034  0.00  0.00    -0.425 OA
ATOM     13  C   UNL     1       0.224  -4.140  -0.093  0.00  0.00    +0.141 A 
ATOM     14  C   UNL     1       0.121  -2.762  -0.028  0.00  0.00    +0.070 A 
ATOM     15  H   UNL     1      -0.245  -0.153  -1.935  0.00  0.00    +0.155 HD
ENDROOT
BRANCH  11  16
ATOM     16  O   UNL     1       0.348  -6.918   2.134  0.00  0.00    -0.480 OA
ATOM     17  H   UNL     1       0.274  -6.373   2.929  0.00  0.00    +0.295 HD
ENDBRANCH  11  16
BRANCH   9  18
ATOM     18  C   UNL     1       0.541  -6.889  -2.733  0.00  0.00    +0.115 C 
BRANCH  18  19
ATOM     19  S   UNL     1       2.252  -7.437  -2.987  0.00  0.00    -0.061 S 
BRANCH  19  20
ATOM     20  C   UNL     1       2.213  -8.239  -4.556  0.00  0.00    +0.278 A 
ATOM     21  N   UNL     1       1.163  -8.379  -5.332  0.00  0.00    -0.101 NA
ATOM     22  N   UNL     1       1.500  -9.015  -6.398  0.00  0.00    -0.106 NA
ATOM     23  C   UNL     1       2.777  -9.307  -6.346  0.00  0.00    +0.249 A 
ATOM     24  O   UNL     1       3.257  -8.817  -5.181  0.00  0.00    -0.411 OA
BRANCH  23  25
ATOM     25  C   UNL     1       3.551 -10.033  -7.374  0.00  0.00    +0.039 A 
ATOM     26  C   UNL     1       4.912 -10.281  -7.182  0.00  0.00    +0.014 A 
ATOM     27  C   UNL     1       5.628 -10.959  -8.146  0.00  0.00    +0.016 A 
ATOM     28  C   UNL     1       5.001 -11.394  -9.301  0.00  0.00    +0.018 A 
ATOM     29  C   UNL     1       3.652 -11.152  -9.497  0.00  0.00    +0.016 A 
ATOM     30  C   UNL     1       2.923 -10.480  -8.538  0.00  0.00    +0.014 A 
ATOM     31 BR   UNL     1       5.992 -12.323 -10.617  0.00  0.00    -0.050 Br
ENDBRANCH  23  25
ENDBRANCH  19  20
ENDBRANCH  18  19
ENDBRANCH   9  18
TORSDOF 5
