REMARK  Name = ZINC15202717
REMARK  9 active torsions:
REMARK  status: ('A' for Active; 'I' for Inactive)
REMARK    1  A    between atoms: C_1  and  N_2
REMARK    2  A    between atoms: N_2  and  C_3
REMARK    3  A    between atoms: N_2  and  C_4
REMARK    4  A    between atoms: C_7  and  C_10
REMARK    5  A    between atoms: C_13  and  C_18
REMARK    6  A    between atoms: C_13  and  O_22
REMARK    7  A    between atoms: C_14  and  C_16
REMARK    8  A    between atoms: C_16  and  C_17
REMARK    9  A    between atoms: C_17  and  N_40
REMARK                            x       y       z     vdW  Elec       q    Type
REMARK                         _______ _______ _______ _____ _____    ______ ____
ROOT
ATOM      1  C   UNL     1       1.484   1.923   0.164  0.00  0.00    +0.097 C 
ATOM      2  N   UNL     1       2.179   0.893  -0.189  0.00  0.00    -0.085 NA
ATOM      3  O   UNL     1       1.376  -0.208  -0.567  0.00  0.00    -0.348 OA
ATOM      4  C   UNL     1       0.049   0.023  -0.052  0.00  0.00    +0.340 C 
ATOM      5  C   UNL     1       0.014   1.567   0.048  0.00  0.00    +0.123 C 
ENDROOT
BRANCH   1   9
ATOM      6  C   UNL     1       3.046   5.664   1.426  0.00  0.00    +0.029 A 
ATOM      7  C   UNL     1       3.906   4.672   0.969  0.00  0.00    +0.024 A 
ATOM      8  C   UNL     1       3.403   3.457   0.559  0.00  0.00    +0.011 A 
ATOM      9  C   UNL     1       2.026   3.222   0.602  0.00  0.00    +0.000 A 
ATOM     10  C   UNL     1       1.164   4.224   1.057  0.00  0.00    +0.011 A 
ATOM     11  C   UNL     1       1.675   5.434   1.471  0.00  0.00    +0.024 A 
BRANCH   6  13
ATOM     12  C   UNL     1       4.986   7.180   1.683  0.00  0.00    +0.129 C 
ATOM     13  N   UNL     1       3.558   6.892   1.840  0.00  0.00    -0.336 N 
ATOM     14  C   UNL     1       2.669   7.895   2.431  0.00  0.00    +0.129 C 
ENDBRANCH   6  13
ENDBRANCH   1   9
BRANCH   4  15
ATOM     15  C   UNL     1      -0.124  -0.619   1.325  0.00  0.00    +0.459 C 
ATOM     16  F   UNL     1      -1.354  -0.233   1.869  0.00  0.00    -0.164 F 
ATOM     17  F   UNL     1      -0.088  -2.012   1.198  0.00  0.00    -0.164 F 
ATOM     18  F   UNL     1       0.911  -0.201   2.169  0.00  0.00    -0.164 F 
ENDBRANCH   4  15
BRANCH   4  19
ATOM     19  O   UNL     1      -0.943  -0.453  -0.964  0.00  0.00    -0.347 OA
ATOM     20  H   UNL     1      -0.960  -1.415  -1.060  0.00  0.00    +0.214 HD
ENDBRANCH   4  19
BRANCH   5  21
ATOM     21  C   UNL     1      -0.596   2.179  -1.214  0.00  0.00    -0.003 C 
BRANCH  21  22
ATOM     22  C   UNL     1       0.307   1.882  -2.413  0.00  0.00    -0.086 C 
BRANCH  22  25
ATOM     23  H   UNL     1      -0.317   3.552  -3.442  0.00  0.00    -0.090 HD
ATOM     24  H   UNL     1       0.358   2.380  -4.410  0.00  0.00    -0.090 HD
ATOM     25  N   UNL     1      -0.244   2.550  -3.606  0.00  0.00    +0.378 N 
ATOM     26  H   UNL     1      -1.179   2.173  -3.802  0.00  0.00    -0.090 HD
ENDBRANCH  22  25
ENDBRANCH  21  22
ENDBRANCH   5  21
TORSDOF 7
