REMARK  Name = ZINC38959784
REMARK  7 active torsions:
REMARK  status: ('A' for Active; 'I' for Inactive)
REMARK    1  A    between atoms: C_1  and  C_2
REMARK    2  A    between atoms: C_7  and  C_14
REMARK    3  A    between atoms: C_14  and  N_15
REMARK    4  A    between atoms: N_15  and  C_16
REMARK    5  A    between atoms: C_21  and  O_22
REMARK    6  A    between atoms: O_22  and  C_23
REMARK    7  A    between atoms: C_24  and  C_26
REMARK                            x       y       z     vdW  Elec       q    Type
REMARK                         _______ _______ _______ _____ _____    ______ ____
ROOT
ATOM      1  N   UNL     1      -1.254  -6.873   2.663  0.00  0.00    -0.263 N 
ATOM      2  C   UNL     1      -0.152  -7.644   2.581  0.00  0.00    +0.252 C 
ATOM      3  O   UNL     1       0.415  -7.782   1.515  0.00  0.00    -0.270 OA
ENDROOT
BRANCH   2   4
ATOM      4  C   UNL     1       0.368  -8.321   3.788  0.00  0.00    +0.051 A 
ATOM      5  C   UNL     1      -0.486  -9.084   4.587  0.00  0.00    +0.014 A 
ATOM      6  C   UNL     1       0.005  -9.713   5.711  0.00  0.00    +0.001 A 
ATOM      7  C   UNL     1       1.341  -9.591   6.049  0.00  0.00    +0.001 A 
ATOM      8  C   UNL     1       2.194  -8.837   5.263  0.00  0.00    +0.016 A 
ATOM      9  C   UNL     1       1.717  -8.206   4.131  0.00  0.00    +0.030 A 
ATOM     10 BR   UNL     1       2.885  -7.183   3.053  0.00  0.00    -0.050 Br
ENDBRANCH   2   4
BRANCH   1  11
ATOM     11  C   UNL     1      -1.964  -6.793   3.868  0.00  0.00    +0.078 A 
ATOM     12  C   UNL     1      -3.085  -7.586   4.068  0.00  0.00    +0.027 A 
ATOM     13  C   UNL     1      -3.784  -7.506   5.258  0.00  0.00    +0.002 A 
ATOM     14  C   UNL     1      -3.370  -6.636   6.250  0.00  0.00    +0.004 A 
ATOM     15  C   UNL     1      -2.255  -5.842   6.057  0.00  0.00    +0.047 A 
ATOM     16  C   UNL     1      -1.545  -5.920   4.870  0.00  0.00    +0.141 A 
BRANCH  16  17
ATOM     17  O   UNL     1      -0.445  -5.144   4.681  0.00  0.00    -0.493 OA
ATOM     18  C   UNL     1      -0.009  -4.355   5.790  0.00  0.00    +0.277 C 
ENDBRANCH  16  17
ENDBRANCH   1  11
BRANCH   1  19
ATOM     19  C   UNL     1      -1.709  -6.118   1.493  0.00  0.00    +0.131 C 
BRANCH  19  26
ATOM     20  C   UNL     1      -3.022  -8.114  -5.614  0.00  0.00    +0.044 C 
ATOM     21  C   UNL     1      -3.099  -7.575  -4.208  0.00  0.00    -0.049 A 
ATOM     22  C   UNL     1      -3.655  -6.312  -4.005  0.00  0.00    +0.004 A 
ATOM     23  C   UNL     1      -3.752  -5.773  -2.763  0.00  0.00    +0.010 A 
ATOM     24  C   UNL     1      -3.259  -6.543  -1.620  0.00  0.00    -0.007 A 
ATOM     25  C   UNL     1      -3.336  -6.042  -0.354  0.00  0.00    -0.003 C 
ATOM     26  C   UNL     1      -2.801  -6.909   0.770  0.00  0.00    +0.116 C 
ATOM     27  C   UNL     1      -2.227  -8.256   0.396  0.00  0.00    +0.226 C 
ATOM     28  O   UNL     1      -1.785  -8.992   1.257  0.00  0.00    -0.275 OA
ATOM     29  N   UNL     1      -2.208  -8.632  -0.872  0.00  0.00    -0.284 N 
ATOM     30  C   UNL     1      -2.677  -7.874  -1.863  0.00  0.00    +0.041 A 
ATOM     31  C   UNL     1      -2.628  -8.341  -3.189  0.00  0.00    +0.027 A 
ATOM     32  H   UNL     1      -1.835  -9.500  -1.091  0.00  0.00    +0.155 HD
ENDBRANCH  19  26
ENDBRANCH   1  19
TORSDOF 5
