REMARK  Name = ZINC22785106
REMARK  8 active torsions:
REMARK  status: ('A' for Active; 'I' for Inactive)
REMARK    1  A    between atoms: C_1  and  C_2
REMARK    2  A    between atoms: C_2  and  N_3
REMARK    3  A    between atoms: N_6  and  C_9
REMARK    4  A    between atoms: C_9  and  C_11
REMARK    5  A    between atoms: C_9  and  C_16
REMARK    6  A    between atoms: C_16  and  C_18
REMARK    7  A    between atoms: C_16  and  N_19
REMARK    8  A    between atoms: N_21  and  C_22
REMARK                            x       y       z     vdW  Elec       q    Type
REMARK                         _______ _______ _______ _____ _____    ______ ____
ROOT
ATOM      1  C   UNL     1      -4.853  -2.639  -1.111  0.00  0.00    +0.115 C 
ENDROOT
BRANCH   1   5
ATOM      2  N   UNL     1      -1.705   0.080  -0.355  0.00  0.00    +0.381 N 
ATOM      3  C   UNL     1      -2.665   0.412  -1.416  0.00  0.00    -0.063 C 
ATOM      4  C   UNL     1      -3.950  -0.394  -1.213  0.00  0.00    +0.066 C 
ATOM      5  N   UNL     1      -3.634  -1.829  -1.246  0.00  0.00    -0.297 NA
ATOM      6  C   UNL     1      -2.656  -2.172  -0.205  0.00  0.00    +0.066 C 
ATOM      7  C   UNL     1      -1.381  -1.351  -0.416  0.00  0.00    -0.063 C 
ATOM      8  H   UNL     1      -2.110   0.295   0.544  0.00  0.00    -0.082 HD
BRANCH   2  10
ATOM      9  C   UNL     1      -0.793   2.353  -0.353  0.00  0.00    -0.017 C 
ATOM     10  C   UNL     1      -0.479   0.867  -0.540  0.00  0.00    -0.082 C 
ENDBRANCH   2  10
ENDBRANCH   1   5
BRANCH   1  11
ATOM     11  C   UNL     1      -5.579  -2.247   0.150  0.00  0.00    +0.009 A 
ATOM     12  C   UNL     1      -6.888  -1.938   0.320  0.00  0.00    +0.013 A 
ATOM     13  C   UNL     1      -7.339  -1.605   1.583  0.00  0.00    +0.008 A 
ATOM     14  C   UNL     1      -6.460  -1.596   2.615  0.00  0.00    +0.045 A 
ATOM     15  S   UNL     1      -4.941  -2.076   1.808  0.00  0.00    -0.100 S 
ENDBRANCH   1  11
BRANCH   1  16
ATOM     16  C   UNL     1      -4.476  -4.120  -1.043  0.00  0.00    +0.100 C 
ATOM     17  C   UNL     1      -3.738  -4.518  -2.323  0.00  0.00    +0.032 C 
BRANCH  16  18
ATOM     18  N   UNL     1      -5.691  -4.927  -0.908  0.00  0.00    -0.363 N 
ATOM     19  C   UNL     1      -5.628  -6.164  -0.332  0.00  0.00    +0.139 C 
ATOM     20  N   UNL     1      -6.761  -6.918  -0.206  0.00  0.00    -0.322 N 
ATOM     21  S   UNL     1      -4.176  -6.753   0.216  0.00  0.00    -0.016 SA
ATOM     22  H   UNL     1      -7.610  -6.574  -0.526  0.00  0.00    +0.148 HD
ATOM     23  H   UNL     1      -6.539  -4.584  -1.228  0.00  0.00    +0.162 HD
BRANCH  20  24
ATOM     24  C   UNL     1      -6.694  -8.244   0.412  0.00  0.00    +0.072 C 
ATOM     25  C   UNL     1      -6.300  -9.279  -0.644  0.00  0.00    +0.022 C 
ATOM     26  C   UNL     1      -6.230 -10.665   0.002  0.00  0.00    +0.002 C 
ATOM     27  C   UNL     1      -7.598 -11.026   0.584  0.00  0.00    +0.000 C 
ATOM     28  C   UNL     1      -7.992  -9.991   1.639  0.00  0.00    +0.002 C 
ATOM     29  C   UNL     1      -8.062  -8.605   0.994  0.00  0.00    +0.022 C 
ENDBRANCH  20  24
ENDBRANCH  16  18
ENDBRANCH   1  16
TORSDOF 6
