REMARK  Name = ZINC14943640
REMARK  10 active torsions:
REMARK  status: ('A' for Active; 'I' for Inactive)
REMARK    1  A    between atoms: C_1  and  C_2
REMARK    2  A    between atoms: C_2  and  O_3
REMARK    3  A    between atoms: O_3  and  C_4
REMARK    4  A    between atoms: C_4  and  C_6
REMARK    5  A    between atoms: C_6  and  C_7
REMARK    6  A    between atoms: C_7  and  C_9
REMARK    7  A    between atoms: C_7  and  N_66
REMARK    8  A    between atoms: N_11  and  C_12
REMARK    9  A    between atoms: C_15  and  C_18
REMARK   10  A    between atoms: N_31  and  C_32
REMARK                            x       y       z     vdW  Elec       q    Type
REMARK                         _______ _______ _______ _____ _____    ______ ____
ROOT
ATOM      1  C   UNL     1      -1.567   0.058  -0.780  0.00  0.00    +0.030 C 
ENDROOT
BRANCH   1  13
ATOM      2  C   UNL     1      -0.112  -1.521  -1.898  0.00  0.00    -0.075 C 
ATOM      3  C   UNL     1       0.172  -3.013  -2.091  0.00  0.00    +0.017 C 
ATOM      4  C   UNL     1       0.597  -3.623  -0.758  0.00  0.00    +0.109 C 
ATOM      5  C   UNL     1      -0.474  -3.379   0.302  0.00  0.00    +0.017 C 
ATOM      6  C   UNL     1      -0.737  -1.875   0.418  0.00  0.00    -0.075 C 
ATOM      7  C   UNL     1       1.919  -3.050  -0.314  0.00  0.00    +0.238 C 
ATOM      8  O   UNL     1       2.230  -1.877  -0.340  0.00  0.00    -0.273 OA
ATOM      9  N   UNL     1       2.699  -4.064   0.118  0.00  0.00    -0.298 N 
ATOM     10  C   UNL     1       1.964  -5.330   0.009  0.00  0.00    +0.214 C 
ATOM     11  N   UNL     1       0.834  -5.074  -0.916  0.00  0.00    -0.300 N 
ATOM     12  H   UNL     1       3.605  -3.970   0.450  0.00  0.00    +0.150 HD
ATOM     13  N   UNL     1      -1.188  -1.365  -0.895  0.00  0.00    +0.388 N 
ATOM     14  H   UNL     1      -2.006  -1.905  -1.198  0.00  0.00    -0.081 HD
BRANCH  11  15
ATOM     15  C   UNL     1      -0.294  -5.809  -0.544  0.00  0.00    +0.032 A 
ATOM     16  C   UNL     1      -0.201  -6.766   0.457  0.00  0.00    +0.023 A 
ATOM     17  C   UNL     1      -1.320  -7.488   0.825  0.00  0.00    +0.002 A 
ATOM     18  C   UNL     1      -2.528  -7.266   0.191  0.00  0.00    +0.000 A 
ATOM     19  C   UNL     1      -2.622  -6.317  -0.811  0.00  0.00    +0.002 A 
ATOM     20  C   UNL     1      -1.509  -5.588  -1.180  0.00  0.00    +0.023 A 
ENDBRANCH  11  15
ENDBRANCH   1  13
BRANCH   1  21
ATOM     21  C   UNL     1      -0.377   0.894  -0.387  0.00  0.00    +0.204 C 
ATOM     22  O   UNL     1       0.702   0.369  -0.212  0.00  0.00    -0.277 OA
ATOM     23  N   UNL     1      -0.512   2.226  -0.229  0.00  0.00    -0.287 N 
ATOM     24  H   UNL     1      -1.354   2.657  -0.444  0.00  0.00    +0.155 HD
BRANCH  23  25
ATOM     25  C   UNL     1       0.565   2.988   0.239  0.00  0.00    +0.033 A 
ATOM     26  C   UNL     1       1.465   2.438   1.142  0.00  0.00    +0.024 A 
ATOM     27  C   UNL     1       2.530   3.191   1.597  0.00  0.00    +0.014 A 
ATOM     28  C   UNL     1       2.693   4.494   1.164  0.00  0.00    +0.055 A 
ATOM     29  C   UNL     1       1.795   5.046   0.269  0.00  0.00    +0.014 A 
ATOM     30  C   UNL     1       0.731   4.297  -0.194  0.00  0.00    +0.024 A 
BRANCH  28  31
ATOM     31  C   UNL     1       3.852   5.315   1.669  0.00  0.00    +0.417 C 
ATOM     32  F   UNL     1       3.471   5.995   2.830  0.00  0.00    -0.166 F 
ATOM     33  F   UNL     1       4.931   4.471   1.955  0.00  0.00    -0.166 F 
ATOM     34  F   UNL     1       4.230   6.239   0.689  0.00  0.00    -0.166 F 
ENDBRANCH  28  31
ENDBRANCH  23  25
ENDBRANCH   1  21
BRANCH   1  35
ATOM     35  C   UNL     1      -2.104   0.537  -2.130  0.00  0.00    +0.114 C 
BRANCH  35  36
ATOM     36  C   UNL     1      -3.346  -0.240  -2.482  0.00  0.00    +0.306 C 
ATOM     37  O   UNL     1      -3.759  -1.091  -1.730  0.00  0.00    -0.251 OA
BRANCH  36  38
ATOM     38  O   UNL     1      -3.992   0.012  -3.631  0.00  0.00    -0.465 OA
BRANCH  38  40
ATOM     39  C   UNL     1      -5.777  -0.350  -5.248  0.00  0.00    +0.048 C 
ATOM     40  C   UNL     1      -5.181  -0.776  -3.905  0.00  0.00    +0.229 C 
ENDBRANCH  38  40
ENDBRANCH  36  38
ENDBRANCH  35  36
ENDBRANCH   1  35
TORSDOF 9
