REMARK  Name = ZINC53205220
REMARK  5 active torsions:
REMARK  status: ('A' for Active; 'I' for Inactive)
REMARK    1  A    between atoms: C_1  and  N_2
REMARK    2  A    between atoms: C_6  and  N_9
REMARK    3  A    between atoms: N_9  and  C_10
REMARK    4  A    between atoms: C_11  and  C_13
REMARK    5  A    between atoms: C_17  and  N_22
REMARK                            x       y       z     vdW  Elec       q    Type
REMARK                         _______ _______ _______ _____ _____    ______ ____
ROOT
ATOM      1  N   UNL     1       1.637  -2.541   2.377  0.00  0.00    -0.297 N 
ATOM      2  C   UNL     1       1.336  -2.356   3.798  0.00  0.00    +0.132 C 
ATOM      3  C   UNL     1       2.607  -3.397   1.999  0.00  0.00    +0.282 C 
ATOM      4  O   UNL     1       2.923  -3.479   0.827  0.00  0.00    -0.267 OA
ENDROOT
BRANCH   3   5
ATOM      5  C   UNL     1       3.282  -4.232   3.003  0.00  0.00    +0.191 A 
ATOM      6  C   UNL     1       4.349  -5.036   2.761  0.00  0.00    +0.063 A 
ATOM      7  C   UNL     1       4.680  -5.666   4.038  0.00  0.00    +0.023 A 
ATOM      8  C   UNL     1       5.655  -6.579   4.448  0.00  0.00    +0.034 A 
ATOM      9  C   UNL     1       5.697  -6.984   5.769  0.00  0.00    +0.025 A 
ATOM     10  C   UNL     1       4.771  -6.484   6.684  0.00  0.00    +0.026 A 
ATOM     11  C   UNL     1       3.806  -5.585   6.288  0.00  0.00    +0.048 A 
ATOM     12  C   UNL     1       3.748  -5.164   4.965  0.00  0.00    +0.136 A 
ATOM     13  O   UNL     1       2.939  -4.310   4.305  0.00  0.00    -0.450 OA
BRANCH   9  14
ATOM     14  N   UNL     1       6.670  -7.898   6.189  0.00  0.00    -0.358 N 
ATOM     15  H   UNL     1       7.314  -8.246   5.553  0.00  0.00    +0.142 HD
ATOM     16  H   UNL     1       6.700  -8.183   7.115  0.00  0.00    +0.142 HD
ENDBRANCH   9  14
ENDBRANCH   3   5
BRANCH   1  22
ATOM     17  C   UNL     1       0.557   1.894   0.756  0.00  0.00    -0.096 C 
ATOM     18  N   UNL     1       0.314   0.456   0.581  0.00  0.00    +0.379 N 
ATOM     19  C   UNL     1      -1.121   0.183   0.728  0.00  0.00    -0.079 C 
ATOM     20  C   UNL     1      -1.391  -1.301   0.467  0.00  0.00    -0.017 C 
ATOM     21  C   UNL     1      -0.604  -2.142   1.476  0.00  0.00    +0.019 C 
ATOM     22  C   UNL     1       0.883  -1.795   1.365  0.00  0.00    +0.059 C 
ATOM     23  C   UNL     1       1.069  -0.293   1.593  0.00  0.00    -0.057 C 
ATOM     24  H   UNL     1       0.615   0.174  -0.339  0.00  0.00    -0.082 HD
ENDBRANCH   1  22
TORSDOF 3
