REMARK  Name = ZINC64227897
REMARK  9 active torsions:
REMARK  status: ('A' for Active; 'I' for Inactive)
REMARK    1  A    between atoms: C_1  and  O_2
REMARK    2  A    between atoms: O_2  and  C_3
REMARK    3  A    between atoms: C_8  and  C_9
REMARK    4  A    between atoms: C_9  and  N_10
REMARK    5  A    between atoms: C_11  and  C_13
REMARK    6  A    between atoms: C_13  and  C_15
REMARK    7  A    between atoms: C_13  and  N_25
REMARK    8  A    between atoms: C_15  and  C_16
REMARK    9  A    between atoms: C_26  and  C_28
REMARK                            x       y       z     vdW  Elec       q    Type
REMARK                         _______ _______ _______ _____ _____    ______ ____
ROOT
ATOM      1  C   UNL     1      -3.540  -3.962   0.434  0.00  0.00    +0.163 C 
ENDROOT
BRANCH   1   3
ATOM      2  N   UNL     1      -2.010  -3.668  -1.487  0.00  0.00    -0.310 N 
ATOM      3  C   UNL     1      -2.458  -4.457  -0.490  0.00  0.00    +0.234 C 
ATOM      4  O   UNL     1      -1.990  -5.566  -0.337  0.00  0.00    -0.274 OA
ATOM      5  H   UNL     1      -2.383  -2.781  -1.609  0.00  0.00    +0.149 HD
BRANCH   2   6
ATOM      6  C   UNL     1      -0.957  -4.150  -2.385  0.00  0.00    +0.143 C 
BRANCH   6  12
ATOM      7  C   UNL     1       0.185  -2.023  -3.063  0.00  0.00    +0.125 A 
ATOM      8  C   UNL     1       0.480  -1.047  -4.004  0.00  0.00    +0.046 A 
ATOM      9  C   UNL     1      -0.053  -1.132  -5.275  0.00  0.00    +0.004 A 
ATOM     10  C   UNL     1      -0.880  -2.188  -5.611  0.00  0.00    +0.001 A 
ATOM     11  C   UNL     1      -1.175  -3.162  -4.675  0.00  0.00    +0.009 A 
ATOM     12  C   UNL     1      -0.640  -3.085  -3.403  0.00  0.00    +0.011 A 
BRANCH   7  14
ATOM     13  C   UNL     1       1.550  -0.821  -1.531  0.00  0.00    +0.277 C 
ATOM     14  O   UNL     1       0.709  -1.942  -1.811  0.00  0.00    -0.495 OA
ENDBRANCH   7  14
ENDBRANCH   6  12
ENDBRANCH   2   6
ENDBRANCH   1   3
BRANCH   1  15
ATOM     15  N   UNL     1      -3.849  -4.997   1.424  0.00  0.00    -0.302 N 
ATOM     16  C   UNL     1      -4.911  -5.807   1.243  0.00  0.00    +0.231 C 
ATOM     17  O   UNL     1      -5.661  -5.623   0.308  0.00  0.00    -0.274 OA
ATOM     18  H   UNL     1      -3.289  -5.100   2.209  0.00  0.00    +0.150 HD
BRANCH  16  19
ATOM     19  C   UNL     1      -5.167  -6.940   2.203  0.00  0.00    +0.145 C 
ATOM     20  C   UNL     1      -6.056  -6.453   3.347  0.00  0.00    +0.063 C 
ATOM     21  C   UNL     1      -6.515  -7.625   4.176  0.00  0.00    -0.041 A 
ATOM     22  C   UNL     1      -7.023  -7.380   5.444  0.00  0.00    +0.004 A 
ATOM     23  C   UNL     1      -7.457  -8.424   6.235  0.00  0.00    +0.000 A 
ATOM     24  C   UNL     1      -7.387  -9.721   5.761  0.00  0.00    +0.000 A 
ATOM     25  C   UNL     1      -6.881  -9.966   4.501  0.00  0.00    +0.005 A 
ATOM     26  C   UNL     1      -6.441  -8.918   3.705  0.00  0.00    -0.030 A 
ATOM     27  C   UNL     1      -5.886  -9.236   2.342  0.00  0.00    +0.117 C 
ATOM     28  N   UNL     1      -5.856  -8.035   1.503  0.00  0.00    -0.301 NA
ATOM     29  H   UNL     1      -6.790  -7.761   1.235  0.00  0.00    +0.123 HD
ENDBRANCH  16  19
ENDBRANCH   1  15
BRANCH   1  30
ATOM     30  C   UNL     1      -3.060  -2.698   1.151  0.00  0.00    +0.065 C 
BRANCH  30  31
ATOM     31  C   UNL     1      -4.168  -2.161   2.019  0.00  0.00    -0.039 C 
ATOM     32  C   UNL     1      -4.366  -2.412   3.333  0.00  0.00    -0.001 A 
ATOM     33  C   UNL     1      -3.637  -3.230   4.310  0.00  0.00    +0.010 A 
ATOM     34  C   UNL     1      -4.088  -3.288   5.584  0.00  0.00    +0.001 A 
ATOM     35  C   UNL     1      -5.231  -2.588   5.994  0.00  0.00    +0.002 A 
ATOM     36  C   UNL     1      -5.953  -1.817   5.154  0.00  0.00    +0.026 A 
ATOM     37  C   UNL     1      -5.570  -1.683   3.792  0.00  0.00    +0.043 A 
ATOM     38  N   UNL     1      -6.096  -1.007   2.799  0.00  0.00    -0.380 N 
ATOM     39  C   UNL     1      -5.281  -1.227   1.599  0.00  0.00    +0.144 C 
ATOM     40  H   UNL     1      -6.890  -0.452   2.850  0.00  0.00    +0.160 HD
ENDBRANCH  30  31
ENDBRANCH   1  30
TORSDOF 8
