REMARK  Name = ZINC15205491
REMARK  6 active torsions:
REMARK  status: ('A' for Active; 'I' for Inactive)
REMARK    1  A    between atoms: C_1  and  C_2
REMARK    2  A    between atoms: C_4  and  O_28
REMARK    3  A    between atoms: C_6  and  O_27
REMARK    4  A    between atoms: C_8  and  O_26
REMARK    5  A    between atoms: C_10  and  O_13
REMARK    6  A    between atoms: O_13  and  C_14
REMARK                            x       y       z     vdW  Elec       q    Type
REMARK                         _______ _______ _______ _____ _____    ______ ____
ROOT
ATOM      1  C   UNL     1      -0.986   7.479  -2.596  0.00  0.00    +0.041 C 
ATOM      2  C   UNL     1      -0.223   7.372  -1.274  0.00  0.00    +0.150 C 
ATOM      3  C   UNL     1       0.837   8.475  -1.206  0.00  0.00    +0.174 C 
ATOM      4  C   UNL     1       1.636   8.324   0.093  0.00  0.00    +0.180 C 
ATOM      5  C   UNL     1       2.251   6.922   0.141  0.00  0.00    +0.214 C 
ATOM      6  C   UNL     1       1.136   5.880   0.021  0.00  0.00    +0.339 C 
ATOM      7  O   UNL     1       0.413   6.096  -1.193  0.00  0.00    -0.334 OA
ENDROOT
BRANCH   5   8
ATOM      8  O   UNL     1       2.938   6.745   1.382  0.00  0.00    -0.383 OA
ATOM      9  H   UNL     1       3.349   5.876   1.483  0.00  0.00    +0.210 HD
ENDBRANCH   5   8
BRANCH   4  10
ATOM     10  O   UNL     1       0.767   8.505   1.214  0.00  0.00    -0.386 OA
ATOM     11  H   UNL     1       1.207   8.416   2.070  0.00  0.00    +0.210 HD
ENDBRANCH   4  10
BRANCH   3  12
ATOM     12  O   UNL     1       0.200   9.754  -1.229  0.00  0.00    -0.387 OA
ATOM     13  H   UNL     1      -0.324   9.917  -2.025  0.00  0.00    +0.210 HD
ENDBRANCH   3  12
BRANCH   6  14
ATOM     14  O   UNL     1       1.707   4.570   0.009  0.00  0.00    -0.459 OA
BRANCH  14  15
ATOM     15  C   UNL     1       0.842   3.518   0.012  0.00  0.00    +0.150 A 
ATOM     16  C   UNL     1      -0.501   3.587   0.025  0.00  0.00    +0.130 A 
ATOM     17  N   UNL     1      -1.032   2.318   0.019  0.00  0.00    -0.358 N 
ATOM     18  H   UNL     1      -1.979   2.110   0.022  0.00  0.00    +0.165 HD
ATOM     19  C   UNL     1      -0.017   1.387   0.010  0.00  0.00    +0.052 A 
ATOM     20  C   UNL     1       1.199   2.095   0.002  0.00  0.00    +0.061 A 
ATOM     21  C   UNL     1       2.410   1.400  -0.013  0.00  0.00    +0.068 A 
ATOM     22  C   UNL     1       2.405   0.022  -0.020  0.00  0.00    +0.037 A 
ATOM     23  C   UNL     1       1.205  -0.676  -0.013  0.00  0.00    +0.019 A 
ATOM     24  C   UNL     1       0.002  -0.004   0.002  0.00  0.00    +0.027 A 
ATOM     25 BR   UNL     1       4.043  -0.924  -0.041  0.00  0.00    -0.049 Br
ATOM     26 CL   UNL     1       3.914   2.268  -0.023  0.00  0.00    -0.082 Cl
ENDBRANCH  14  15
ENDBRANCH   6  14
TORSDOF 5
