REMARK  Name = ZINC06702253
REMARK  13 active torsions:
REMARK  status: ('A' for Active; 'I' for Inactive)
REMARK    1  A    between atoms: C_1  and  C_2
REMARK    2  A    between atoms: C_2  and  CA_3
REMARK    3  A    between atoms: CA_3  and  C_5
REMARK    4  A    between atoms: CA_3  and  N_44
REMARK    5  A    between atoms: C_5  and  O_6
REMARK    6  A    between atoms: C_7  and  C_8
REMARK    7  A    between atoms: C_7  and  N_44
REMARK    8  A    between atoms: C_10  and  O_20
REMARK    9  A    between atoms: C_11  and  O_15
REMARK   10  A    between atoms: O_15  and  C_16
REMARK   11  A    between atoms: C_16  and  C_17
REMARK   12  A    between atoms: O_20  and  C_21
REMARK   13  A    between atoms: C_21  and  C_22
REMARK                            x       y       z     vdW  Elec       q    Type
REMARK                         _______ _______ _______ _____ _____    ______ ____
ROOT
ATOM      1  C   UNL     1      -6.240   2.527   0.045  0.00  0.00    -0.047 A 
ATOM      2  C   UNL     1      -6.045   1.159   0.036  0.00  0.00    +0.052 A 
ATOM      3  C   UNL     1      -4.760   0.642   0.022  0.00  0.00    +0.162 A 
ATOM      4  C   UNL     1      -3.667   1.504   0.028  0.00  0.00    +0.164 A 
ATOM      5  C   UNL     1      -3.868   2.874   0.036  0.00  0.00    +0.065 A 
ATOM      6  C   UNL     1      -5.155   3.384   0.044  0.00  0.00    +0.023 A 
ATOM      7 BR   UNL     1      -5.428   5.255   0.056  0.00  0.00    -0.050 Br
ENDROOT
BRANCH   1   8
ATOM      8  C   UNL     1      -7.640   3.087   0.054  0.00  0.00    -0.045 C 
BRANCH   8   9
ATOM      9  N   UNL     1      -7.948   3.595   1.404  0.00  0.00    +0.385 N 
ATOM     10  H1  UNL     1      -7.876   2.825   2.080  0.00  0.00    -0.085 HD
ATOM     11  H2  UNL     1      -7.277   4.331   1.651  0.00  0.00    -0.085 HD
BRANCH   9  12
ATOM     12  CA  UNL     1      -9.314   4.150   1.443  0.00  0.00    -0.046 C 
BRANCH  12  14
ATOM     13  C   UNL     1      -8.494   6.371   2.241  0.00  0.00    +0.002 C 
ATOM     14  C   UNL     1      -9.405   5.185   2.566  0.00  0.00    -0.017 C 
ENDBRANCH  12  14
BRANCH  12  15
ATOM     15  C   UNL     1     -10.316   3.024   1.705  0.00  0.00    +0.140 C 
BRANCH  15  16
ATOM     16  O   UNL     1     -10.087   2.475   3.005  0.00  0.00    -0.397 OA
ATOM     17  H   UNL     1     -10.687   1.754   3.239  0.00  0.00    +0.209 HD
ENDBRANCH  15  16
ENDBRANCH  12  15
ENDBRANCH   9  12
ENDBRANCH   8   9
ENDBRANCH   1   8
BRANCH   4  18
ATOM     18  O   UNL     1      -2.403   1.001   0.019  0.00  0.00    -0.479 OA
BRANCH  18  19
ATOM     19  C   UNL     1      -1.330   1.944   0.019  0.00  0.00    +0.324 C 
BRANCH  19  20
ATOM     20  C   UNL     1      -0.014   1.209   0.009  0.00  0.00    +0.248 C 
ATOM     21  O   UNL     1       0.002  -0.004   0.002  0.00  0.00    -0.272 OA
ATOM     22  N   UNL     1       1.143   1.898   0.001  0.00  0.00    -0.327 N 
ATOM     23  H   UNL     1       1.990   1.425  -0.009  0.00  0.00    +0.145 HD
ATOM     24  H   UNL     1       1.130   2.868   0.007  0.00  0.00    +0.145 HD
ENDBRANCH  19  20
ENDBRANCH  18  19
ENDBRANCH   4  18
BRANCH   3  25
ATOM     25  O   UNL     1      -4.566  -0.704   0.009  0.00  0.00    -0.489 OA
BRANCH  25  26
ATOM     26  C   UNL     1      -5.735  -1.527   0.004  0.00  0.00    +0.226 C 
ATOM     27  C   UNL     1      -5.321  -3.000  -0.011  0.00  0.00    +0.048 C 
ENDBRANCH  25  26
ENDBRANCH   3  25
TORSDOF 11
