REMARK  Name = ZINC37603336
REMARK  11 active torsions:
REMARK  status: ('A' for Active; 'I' for Inactive)
REMARK    1  A    between atoms: C_1  and  N_2
REMARK    2  A    between atoms: N_2  and  C_3
REMARK    3  A    between atoms: N_2  and  C_4
REMARK    4  A    between atoms: C_4  and  C_5
REMARK    5  A    between atoms: C_5  and  N_6
REMARK    6  A    between atoms: C_7  and  C_9
REMARK    7  A    between atoms: C_12  and  C_14
REMARK    8  A    between atoms: C_14  and  O_15
REMARK    9  A    between atoms: O_15  and  C_16
REMARK   10  A    between atoms: C_22  and  C_34
REMARK   11  A    between atoms: C_27  and  C_29
REMARK                            x       y       z     vdW  Elec       q    Type
REMARK                         _______ _______ _______ _____ _____    ______ ____
ROOT
ATOM      1  C   UNL     1     -10.362  -2.569   1.079  0.00  0.00    +0.121 A 
ATOM      2  C   UNL     1     -11.488  -2.165   0.376  0.00  0.00    +0.046 A 
ATOM      3  C   UNL     1     -12.699  -2.062   1.025  0.00  0.00    +0.007 A 
ATOM      4  C   UNL     1     -12.806  -2.361   2.379  0.00  0.00    -0.040 A 
ATOM      5  C   UNL     1     -11.691  -2.771   3.075  0.00  0.00    -0.016 A 
ATOM      6  C   UNL     1     -10.469  -2.874   2.426  0.00  0.00    +0.051 A 
ATOM      7  C   UNL     1     -11.742  -3.138   4.537  0.00  0.00    +0.137 C 
ATOM      8  N   UNL     1     -13.030  -2.724   5.105  0.00  0.00    -0.290 N 
ATOM      9  C   UNL     1     -14.240  -3.013   4.318  0.00  0.00    +0.113 C 
ATOM     10  C   UNL     1     -14.160  -2.209   3.021  0.00  0.00    +0.054 C 
ATOM     11  C   UNL     1     -13.102  -2.105   6.300  0.00  0.00    +0.219 C 
ATOM     12  O   UNL     1     -12.086  -1.829   6.903  0.00  0.00    -0.275 OA
ENDROOT
BRANCH   7  13
ATOM     13  C   UNL     1     -10.625  -2.441   5.269  0.00  0.00    -0.022 A 
ATOM     14  C   UNL     1     -10.502  -1.066   5.194  0.00  0.00    +0.008 A 
ATOM     15  C   UNL     1      -9.477  -0.426   5.865  0.00  0.00    +0.038 A 
ATOM     16  C   UNL     1      -8.574  -1.162   6.613  0.00  0.00    +0.123 A 
ATOM     17  C   UNL     1      -8.698  -2.539   6.687  0.00  0.00    +0.038 A 
ATOM     18  C   UNL     1      -9.726  -3.176   6.020  0.00  0.00    +0.008 A 
ATOM     19  F   UNL     1      -7.572  -0.537   7.269  0.00  0.00    -0.205 F 
ENDBRANCH   7  13
BRANCH  11  20
ATOM     20  C   UNL     1     -14.445  -1.755   6.888  0.00  0.00    +0.075 C 
ATOM     21  C   UNL     1     -15.175  -0.749   5.974  0.00  0.00    +0.013 C 
ATOM     22  C   UNL     1     -15.906   0.197   6.959  0.00  0.00    +0.001 C 
ATOM     23  C   UNL     1     -14.884   0.345   8.113  0.00  0.00    +0.001 C 
ATOM     24  C   UNL     1     -14.260  -1.059   8.248  0.00  0.00    +0.013 C 
ENDBRANCH  11  20
BRANCH   1  25
ATOM     25  O   UNL     1      -9.162  -2.669   0.449  0.00  0.00    -0.484 OA
BRANCH  25  26
ATOM     26  C   UNL     1      -9.129  -2.337  -0.940  0.00  0.00    +0.303 C 
BRANCH  26  30
ATOM     27  C   UNL     1      -5.652  -2.061  -2.022  0.00  0.00    +0.190 A 
ATOM     28  C   UNL     1      -5.886  -3.365  -2.353  0.00  0.00    +0.055 A 
ATOM     29  C   UNL     1      -7.215  -3.640  -1.992  0.00  0.00    +0.049 A 
ATOM     30  C   UNL     1      -7.726  -2.506  -1.464  0.00  0.00    +0.143 A 
ATOM     31  O   UNL     1      -6.780  -1.559  -1.479  0.00  0.00    -0.452 OA
BRANCH  27  33
ATOM     32  N   UNL     1      -4.292  -0.046  -1.839  0.00  0.00    -0.311 N 
ATOM     33  C   UNL     1      -4.392  -1.336  -2.216  0.00  0.00    +0.279 C 
ATOM     34  O   UNL     1      -3.437  -1.899  -2.719  0.00  0.00    -0.267 OA
ATOM     35  H   UNL     1      -5.052   0.403  -1.438  0.00  0.00    +0.149 HD
BRANCH  32  36
ATOM     36  C   UNL     1      -3.033   0.678  -2.033  0.00  0.00    +0.086 C 
BRANCH  36  37
ATOM     37  C   UNL     1      -3.186   2.113  -1.523  0.00  0.00    -0.061 C 
BRANCH  37  39
ATOM     38  C   UNL     1      -2.107   4.247  -1.340  0.00  0.00    -0.097 C 
ATOM     39  N   UNL     1      -1.925   2.839  -1.718  0.00  0.00    +0.377 N 
ATOM     40  C   UNL     1      -0.879   2.238  -0.880  0.00  0.00    -0.097 C 
ATOM     41  H   UNL     1      -1.651   2.784  -2.688  0.00  0.00    -0.083 HD
ENDBRANCH  37  39
ENDBRANCH  36  37
ENDBRANCH  32  36
ENDBRANCH  27  33
ENDBRANCH  26  30
ENDBRANCH  25  26
ENDBRANCH   1  25
TORSDOF 9
