REMARK  Name = ZINC12173135
REMARK  8 active torsions:
REMARK  status: ('A' for Active; 'I' for Inactive)
REMARK    1  A    between atoms: C_1  and  C_2
REMARK    2  A    between atoms: N_8  and  C_9
REMARK    3  A    between atoms: C_9  and  C_10
REMARK    4  A    between atoms: C_13  and  O_16
REMARK    5  A    between atoms: O_16  and  C_17
REMARK    6  A    between atoms: C_18  and  C_26
REMARK    7  A    between atoms: C_20  and  C_24
REMARK    8  A    between atoms: C_21  and  N_23
REMARK                            x       y       z     vdW  Elec       q    Type
REMARK                         _______ _______ _______ _____ _____    ______ ____
ROOT
ATOM      1  C   UNL     1      -0.171   1.476   0.016  0.00  0.00    +0.064 C 
ATOM      2  C   UNL     1      -0.069  -0.027   0.011  0.00  0.00    +0.023 A 
ATOM      3  C   UNL     1      -0.179  -0.698  -1.156  0.00  0.00    +0.068 A 
ATOM      4  C   UNL     1      -0.079  -2.105  -1.167  0.00  0.00    +0.141 A 
ATOM      5  C   UNL     1       0.118  -2.769   0.025  0.00  0.00    +0.072 A 
ATOM      6  C   UNL     1       0.221  -2.032   1.211  0.00  0.00    +0.259 A 
ATOM      7  O   UNL     1       0.396  -2.607   2.274  0.00  0.00    -0.267 OA
ATOM      8  N   UNL     1       0.127  -0.689   1.181  0.00  0.00    -0.308 N 
ATOM      9  C   UNL     1       0.223  -4.269   0.060  0.00  0.00    +0.105 C 
ATOM     10  C   UNL     1       0.485  -4.803  -1.321  0.00  0.00    +0.098 C 
ATOM     11  C   UNL     1       0.271  -4.041  -2.420  0.00  0.00    +0.199 C 
ATOM     12  O   UNL     1      -0.182  -2.778  -2.332  0.00  0.00    -0.441 OA
ENDROOT
BRANCH   9  13
ATOM     13  C   UNL     1      -1.067  -4.848   0.583  0.00  0.00    -0.015 A 
ATOM     14  C   UNL     1      -2.253  -4.610  -0.087  0.00  0.00    +0.006 A 
ATOM     15  C   UNL     1      -3.437  -5.140   0.391  0.00  0.00    +0.002 A 
ATOM     16  C   UNL     1      -3.436  -5.909   1.540  0.00  0.00    +0.021 A 
ATOM     17  C   UNL     1      -2.251  -6.147   2.212  0.00  0.00    +0.060 A 
ATOM     18  C   UNL     1      -1.064  -5.622   1.729  0.00  0.00    +0.063 A 
ATOM     19 CL   UNL     1       0.426  -5.927   2.566  0.00  0.00    -0.082 Cl
ATOM     20 CL   UNL     1      -2.250  -7.112   3.656  0.00  0.00    -0.082 Cl
ENDBRANCH   9  13
BRANCH  11  21
ATOM     21  N   UNL     1       0.525  -4.573  -3.659  0.00  0.00    -0.328 N 
ATOM     22  H   UNL     1       0.853  -5.483  -3.738  0.00  0.00    +0.145 HD
ATOM     23  H   UNL     1       0.377  -4.040  -4.455  0.00  0.00    +0.145 HD
ENDBRANCH  11  21
BRANCH  10  24
ATOM     24  C   UNL     1       0.970  -6.141  -1.477  0.00  0.00    +0.101 C 
ATOM     25  N   UNL     1       1.354  -7.203  -1.601  0.00  0.00    -0.191 NA
ENDBRANCH  10  24
BRANCH   8  26
ATOM     26  C   UNL     1       0.238   0.070   2.429  0.00  0.00    +0.160 C 
BRANCH  26  27
ATOM     27  C   UNL     1       1.677   0.451   2.659  0.00  0.00    -0.027 A 
ATOM     28  C   UNL     1       2.538  -0.440   3.274  0.00  0.00    +0.009 A 
ATOM     29  C   UNL     1       3.860  -0.094   3.480  0.00  0.00    +0.046 A 
ATOM     30  C   UNL     1       4.320   1.152   3.081  0.00  0.00    +0.120 A 
ATOM     31  C   UNL     1       3.453   2.046   2.469  0.00  0.00    +0.046 A 
ATOM     32  C   UNL     1       2.134   1.694   2.260  0.00  0.00    +0.009 A 
BRANCH  30  33
ATOM     33  O   UNL     1       5.619   1.496   3.288  0.00  0.00    -0.495 OA
ATOM     34  C   UNL     1       6.454   0.526   3.922  0.00  0.00    +0.277 C 
ENDBRANCH  30  33
ENDBRANCH  26  27
ENDBRANCH   8  26
TORSDOF 6
