REMARK  Name = ZINC43223127
REMARK  6 active torsions:
REMARK  status: ('A' for Active; 'I' for Inactive)
REMARK    1  A    between atoms: C_1  and  C_2
REMARK    2  A    between atoms: C_2  and  C_4
REMARK    3  A    between atoms: C_2  and  N_10
REMARK    4  A    between atoms: C_11  and  C_13
REMARK    5  A    between atoms: C_18  and  C_20
REMARK    6  A    between atoms: N_22  and  C_23
REMARK                            x       y       z     vdW  Elec       q    Type
REMARK                         _______ _______ _______ _____ _____    ______ ____
ROOT
ATOM      1  C   UNL     1      -3.465  -1.164  -1.134  0.00  0.00    +0.068 C 
ATOM      2  C   UNL     1      -4.384  -0.204  -0.349  0.00  0.00    -0.069 C 
ATOM      3  N   UNL     1      -4.981   0.674  -1.387  0.00  0.00    +0.380 N 
ATOM      4  C   UNL     1      -5.256  -0.240  -2.526  0.00  0.00    -0.069 C 
ATOM      5  C   UNL     1      -4.037  -1.190  -2.566  0.00  0.00    +0.068 C 
ATOM      6  H   UNL     1      -5.839   1.086  -1.051  0.00  0.00    -0.086 HD
ATOM      7  H   UNL     1      -4.327   1.392  -1.661  0.00  0.00    -0.086 HD
ENDROOT
BRANCH   1   9
ATOM      8  N   UNL     1      -1.372  -0.511   0.012  0.00  0.00    -0.309 N 
ATOM      9  C   UNL     1      -2.051  -0.643  -1.145  0.00  0.00    +0.215 C 
ATOM     10  O   UNL     1      -1.524  -0.341  -2.194  0.00  0.00    -0.276 OA
ATOM     11  H   UNL     1      -1.794  -0.752   0.852  0.00  0.00    +0.149 HD
BRANCH   8  13
ATOM     12  C   UNL     1      -0.019   1.526   0.010  0.00  0.00    +0.033 C 
ATOM     13  C   UNL     1       0.002  -0.004   0.002  0.00  0.00    +0.100 C 
BRANCH  13  14
ATOM     14  C   UNL     1       0.731  -0.503   1.223  0.00  0.00    -0.027 A 
ATOM     15  C   UNL     1       0.081  -0.558   2.442  0.00  0.00    +0.005 A 
ATOM     16  C   UNL     1       0.749  -1.016   3.562  0.00  0.00    +0.000 A 
ATOM     17  C   UNL     1       2.068  -1.420   3.463  0.00  0.00    +0.000 A 
ATOM     18  C   UNL     1       2.718  -1.365   2.244  0.00  0.00    +0.000 A 
ATOM     19  C   UNL     1       2.048  -0.911   1.123  0.00  0.00    +0.005 A 
ENDBRANCH  13  14
ENDBRANCH   8  13
ENDBRANCH   1   9
BRANCH   5  20
ATOM     20  C   UNL     1      -4.471  -2.586  -2.931  0.00  0.00    +0.215 C 
ATOM     21  O   UNL     1      -4.343  -3.490  -2.132  0.00  0.00    -0.276 OA
ATOM     22  N   UNL     1      -5.003  -2.831  -4.145  0.00  0.00    -0.308 N 
ATOM     23  H   UNL     1      -5.106  -2.108  -4.784  0.00  0.00    +0.149 HD
BRANCH  22  24
ATOM     24  C   UNL     1      -5.425  -4.188  -4.500  0.00  0.00    +0.104 C 
ATOM     25  C   UNL     1      -6.492  -4.143  -5.614  0.00  0.00    +0.032 C 
ATOM     26  C   UNL     1      -6.167  -5.408  -6.437  0.00  0.00    +0.037 C 
ATOM     27  C   UNL     1      -4.692  -5.662  -6.206  0.00  0.00    -0.042 A 
ATOM     28  C   UNL     1      -4.266  -4.962  -5.090  0.00  0.00    -0.024 A 
ATOM     29  C   UNL     1      -2.944  -5.046  -4.686  0.00  0.00    +0.006 A 
ATOM     30  C   UNL     1      -2.049  -5.827  -5.391  0.00  0.00    +0.000 A 
ATOM     31  C   UNL     1      -2.474  -6.528  -6.504  0.00  0.00    +0.000 A 
ATOM     32  C   UNL     1      -3.795  -6.444  -6.913  0.00  0.00    +0.004 A 
ENDBRANCH  22  24
ENDBRANCH   5  20
TORSDOF 5
