REMARK  Name = ZINC39674702
REMARK  7 active torsions:
REMARK  status: ('A' for Active; 'I' for Inactive)
REMARK    1  A    between atoms: C_1  and  C_2
REMARK    2  A    between atoms: C_4  and  C_14
REMARK    3  A    between atoms: C_7  and  C_12
REMARK    4  A    between atoms: C_14  and  C_15
REMARK    5  A    between atoms: C_15  and  N_16
REMARK    6  A    between atoms: C_17  and  C_19
REMARK    7  A    between atoms: C_30  and  C_32
REMARK                            x       y       z     vdW  Elec       q    Type
REMARK                         _______ _______ _______ _____ _____    ______ ____
ROOT
ATOM      1  N   UNL     1      -5.948  -0.578  -0.291  0.00  0.00    -0.315 N 
ATOM      2  C   UNL     1      -6.035  -1.379  -1.371  0.00  0.00    +0.218 C 
ATOM      3  O   UNL     1      -5.242  -2.284  -1.521  0.00  0.00    -0.275 OA
ATOM      4  H   UNL     1      -6.582   0.146  -0.171  0.00  0.00    +0.149 HD
ENDROOT
BRANCH   2   5
ATOM      5  C   UNL     1      -7.120  -1.150  -2.393  0.00  0.00    +0.100 C 
ATOM      6  C   UNL     1      -6.658  -1.635  -3.785  0.00  0.00    +0.121 C 
ATOM      7  N   UNL     1      -7.189  -3.014  -3.896  0.00  0.00    -0.300 N 
ATOM      8  C   UNL     1      -8.535  -2.942  -3.278  0.00  0.00    +0.115 C 
ATOM      9  C   UNL     1      -8.354  -2.007  -2.065  0.00  0.00    -0.004 C 
ATOM     10  C   UNL     1      -9.583  -1.120  -1.893  0.00  0.00    -0.010 C 
ATOM     11  C   UNL     1     -10.785  -1.989  -1.511  0.00  0.00    -0.082 C 
ATOM     12  N   UNL     1     -10.495  -2.705  -0.263  0.00  0.00    +0.379 N 
ATOM     13  C   UNL     1      -9.370  -3.625  -0.463  0.00  0.00    -0.082 C 
ATOM     14  C   UNL     1      -8.108  -2.826  -0.801  0.00  0.00    -0.010 C 
ATOM     15  C   UNL     1      -6.586  -4.091  -4.438  0.00  0.00    +0.219 C 
ATOM     16  O   UNL     1      -7.156  -5.161  -4.455  0.00  0.00    -0.275 OA
ATOM     17  H   UNL     1     -10.260  -2.040   0.459  0.00  0.00    -0.086 HD
ATOM     18  H   UNL     1     -11.310  -3.229   0.020  0.00  0.00    -0.086 HD
BRANCH  15  19
ATOM     19  C   UNL     1      -5.203  -3.965  -5.023  0.00  0.00    +0.075 C 
ATOM     20  C   UNL     1      -5.190  -3.420  -6.461  0.00  0.00    +0.013 C 
ATOM     21  C   UNL     1      -4.081  -4.444  -6.755  0.00  0.00    +0.001 C 
ATOM     22  C   UNL     1      -4.656  -5.281  -5.600  0.00  0.00    +0.013 C 
ENDBRANCH  15  19
ENDBRANCH   2   5
BRANCH   1  23
ATOM     23  C   UNL     1      -4.894  -0.801   0.702  0.00  0.00    +0.108 C 
BRANCH  23  24
ATOM     24  C   UNL     1      -5.017   0.238   1.819  0.00  0.00    +0.052 C 
BRANCH  24  27
ATOM     25  C   UNL     1      -4.910   0.723   5.021  0.00  0.00    +0.035 C 
ATOM     26  C   UNL     1      -3.690   0.806   4.102  0.00  0.00    +0.103 C 
ATOM     27  C   UNL     1      -3.933   0.009   2.840  0.00  0.00    -0.037 C 
ATOM     28  C   UNL     1      -2.978  -0.955   2.814  0.00  0.00    +0.000 A 
ATOM     29  C   UNL     1      -2.703  -1.991   1.884  0.00  0.00    +0.028 A 
ATOM     30  C   UNL     1      -1.651  -2.851   2.100  0.00  0.00    +0.052 A 
ATOM     31  C   UNL     1      -0.798  -2.724   3.276  0.00  0.00    +0.021 A 
ATOM     32  C   UNL     1      -1.011  -1.759   4.194  0.00  0.00    +0.027 A 
ATOM     33  C   UNL     1      -2.120  -0.815   4.012  0.00  0.00    +0.043 A 
ATOM     34  N   UNL     1      -2.526   0.192   4.749  0.00  0.00    -0.378 N 
ATOM     35  H   UNL     1      -2.124   0.482   5.583  0.00  0.00    +0.160 HD
BRANCH  30  36
ATOM     36  C   UNL     1      -1.388  -3.891   1.151  0.00  0.00    +0.099 C 
ATOM     37  N   UNL     1      -1.180  -4.715   0.398  0.00  0.00    -0.191 NA
ENDBRANCH  30  36
ENDBRANCH  24  27
ENDBRANCH  23  24
ENDBRANCH   1  23
TORSDOF 6
