REMARK  Name = ZINC39631294
REMARK  12 active torsions:
REMARK  status: ('A' for Active; 'I' for Inactive)
REMARK    1  A    between atoms: C_1  and  C_2
REMARK    2  A    between atoms: C_2  and  C_4
REMARK    3  A    between atoms: C_2  and  N_11
REMARK    4  A    between atoms: C_4  and  C_5
REMARK    5  A    between atoms: C_5  and  C_6
REMARK    6  A    between atoms: C_6  and  C_7
REMARK    7  A    between atoms: C_7  and  C_8
REMARK    8  A    between atoms: C_7  and  C_9
REMARK    9  A    between atoms: C_7  and  O_10
REMARK   10  A    between atoms: C_12  and  C_14
REMARK   11  A    between atoms: C_25  and  C_27
REMARK   12  A    between atoms: C_32  and  C_33
REMARK                            x       y       z     vdW  Elec       q    Type
REMARK                         _______ _______ _______ _____ _____    ______ ____
ROOT
ATOM      1  C   UNL     1       0.204  -0.783   3.344  0.00  0.00    +0.100 C 
ATOM      2  C   UNL     1       1.543  -0.079   3.656  0.00  0.00    +0.121 C 
ATOM      3  N   UNL     1       1.242   0.809   4.803  0.00  0.00    -0.296 N 
ATOM      4  C   UNL     1       0.330   0.010   5.657  0.00  0.00    +0.115 C 
ATOM      5  C   UNL     1      -0.588  -0.726   4.662  0.00  0.00    -0.004 C 
ATOM      6  C   UNL     1      -0.886  -2.137   5.161  0.00  0.00    -0.010 C 
ATOM      7  C   UNL     1      -1.724  -2.055   6.440  0.00  0.00    -0.082 C 
ATOM      8  N   UNL     1      -2.974  -1.338   6.162  0.00  0.00    +0.379 N 
ATOM      9  C   UNL     1      -2.682   0.047   5.773  0.00  0.00    -0.082 C 
ATOM     10  C   UNL     1      -1.885   0.053   4.465  0.00  0.00    -0.010 C 
ATOM     11  C   UNL     1       1.694   2.059   5.022  0.00  0.00    +0.247 C 
ATOM     12  O   UNL     1       1.436   2.625   6.066  0.00  0.00    -0.270 OA
ATOM     13  H   UNL     1      -3.466  -1.800   5.413  0.00  0.00    -0.086 HD
ATOM     14  H   UNL     1      -3.551  -1.338   6.990  0.00  0.00    -0.086 HD
ENDROOT
BRANCH  11  15
ATOM     15  C   UNL     1       2.505   2.743   3.992  0.00  0.00    +0.049 A 
ATOM     16  C   UNL     1       3.424   2.020   3.230  0.00  0.00    +0.013 A 
ATOM     17  C   UNL     1       4.177   2.663   2.270  0.00  0.00    +0.001 A 
ATOM     18  C   UNL     1       4.023   4.023   2.062  0.00  0.00    +0.001 A 
ATOM     19  C   UNL     1       3.114   4.745   2.814  0.00  0.00    +0.013 A 
ATOM     20  C   UNL     1       2.350   4.112   3.773  0.00  0.00    +0.067 A 
BRANCH  20  21
ATOM     21  C   UNL     1       1.356   4.900   4.587  0.00  0.00    +0.418 C 
ATOM     22  F   UNL     1       1.383   6.240   4.188  0.00  0.00    -0.166 F 
ATOM     23  F   UNL     1       0.073   4.380   4.387  0.00  0.00    -0.166 F 
ATOM     24  F   UNL     1       1.689   4.811   5.943  0.00  0.00    -0.166 F 
ENDBRANCH  20  21
ENDBRANCH  11  15
BRANCH   1  26
ATOM     25  N   UNL     1      -1.392  -0.712   1.455  0.00  0.00    -0.312 N 
ATOM     26  C   UNL     1      -0.535  -0.048   2.256  0.00  0.00    +0.218 C 
ATOM     27  O   UNL     1      -0.359   1.142   2.100  0.00  0.00    -0.275 OA
ATOM     28  H   UNL     1      -1.533  -1.664   1.580  0.00  0.00    +0.149 HD
BRANCH  25  30
ATOM     29  C   UNL     1      -1.232   0.080  -0.853  0.00  0.00    +0.028 C 
ATOM     30  C   UNL     1      -2.110   0.002   0.397  0.00  0.00    +0.070 C 
BRANCH  30  31
ATOM     31  C   UNL     1      -3.404  -0.743   0.066  0.00  0.00    +0.022 C 
BRANCH  31  32
ATOM     32  C   UNL     1      -4.336  -0.712   1.279  0.00  0.00    +0.005 C 
BRANCH  32  33
ATOM     33  C   UNL     1      -5.630  -1.458   0.948  0.00  0.00    +0.034 C 
BRANCH  33  34
ATOM     34  C   UNL     1      -6.561  -1.427   2.162  0.00  0.00    +0.061 C 
ATOM     35  C   UNL     1      -7.801  -2.277   1.875  0.00  0.00    +0.041 C 
ATOM     36  C   UNL     1      -5.828  -1.989   3.381  0.00  0.00    +0.041 C 
BRANCH  34  37
ATOM     37  O   UNL     1      -6.958  -0.080   2.423  0.00  0.00    -0.389 OA
ATOM     38  H   UNL     1      -7.429   0.341   1.691  0.00  0.00    +0.210 HD
ENDBRANCH  34  37
ENDBRANCH  33  34
ENDBRANCH  32  33
ENDBRANCH  31  32
ENDBRANCH  30  31
ENDBRANCH  25  30
ENDBRANCH   1  26
TORSDOF 9
