REMARK  Name = ZINC07875367
REMARK  15 active torsions:
REMARK  status: ('A' for Active; 'I' for Inactive)
REMARK    1  A    between atoms: C_1  and  C_2
REMARK    2  A    between atoms: C_2  and  C_3
REMARK    3  A    between atoms: C_2  and  C_4
REMARK    4  A    between atoms: C_4  and  C_5
REMARK    5  A    between atoms: C_8  and  C_11
REMARK    6  A    between atoms: C_11  and  C_13
REMARK    7  A    between atoms: C_11  and  N_62
REMARK    8  A    between atoms: C_13  and  C_14
REMARK    9  A    between atoms: C_13  and  C_15
REMARK   10  A    between atoms: C_16  and  C_18
REMARK   11  A    between atoms: C_16  and  C_19
REMARK   12  A    between atoms: C_16  and  N_62
REMARK   13  A    between atoms: N_21  and  C_22
REMARK   14  A    between atoms: C_25  and  S_28
REMARK   15  A    between atoms: S_28  and  N_31
REMARK                            x       y       z     vdW  Elec       q    Type
REMARK                         _______ _______ _______ _____ _____    ______ ____
ROOT
ATOM      1  C   UNL     1      -1.679   4.607  -0.895  0.00  0.00    +0.014 C 
ATOM      2  C   UNL     1      -2.210   3.174  -0.954  0.00  0.00    -0.004 C 
ENDROOT
BRANCH   1   3
ATOM      3  C   UNL     1      -0.201   4.583  -0.600  0.00  0.00    +0.203 C 
ATOM      4  O   UNL     1       0.227   5.127   0.396  0.00  0.00    -0.277 OA
ATOM      5  N   UNL     1       0.644   3.957  -1.442  0.00  0.00    -0.287 N 
ATOM      6  H   UNL     1       0.313   3.587  -2.275  0.00  0.00    +0.155 HD
BRANCH   5   7
ATOM      7  C   UNL     1       2.000   3.842  -1.115  0.00  0.00    +0.033 A 
ATOM      8  C   UNL     1       2.961   3.854  -2.117  0.00  0.00    +0.025 A 
ATOM      9  C   UNL     1       4.298   3.735  -1.791  0.00  0.00    +0.030 A 
ATOM     10  C   UNL     1       4.679   3.602  -0.469  0.00  0.00    +0.105 A 
ATOM     11  C   UNL     1       3.725   3.588   0.532  0.00  0.00    +0.030 A 
ATOM     12  C   UNL     1       2.386   3.708   0.212  0.00  0.00    +0.025 A 
BRANCH  10  13
ATOM     13  S   UNL     1       6.386   3.449  -0.057  0.00  0.00    +0.056 S 
ATOM     14  O   UNL     1       7.115   4.038  -1.125  0.00  0.00    -0.153 OA
ATOM     15  O   UNL     1       6.520   3.886   1.288  0.00  0.00    -0.153 OA
BRANCH  13  16
ATOM     16  N   UNL     1       6.750   1.834  -0.069  0.00  0.00    -0.204 NA
ATOM     17  H   UNL     1       7.645   1.540  -0.300  0.00  0.00    +0.144 HD
ATOM     18  H   UNL     1       6.068   1.181   0.155  0.00  0.00    +0.144 HD
ENDBRANCH  13  16
ENDBRANCH  10  13
ENDBRANCH   5   7
ENDBRANCH   1   3
BRANCH   1  19
ATOM     19  N   UNL     1      -2.375   5.346   0.175  0.00  0.00    +0.391 N 
ATOM     20  H   UNL     1      -2.553   4.713   0.964  0.00  0.00    -0.084 HD
ATOM     21  H   UNL     1      -1.783   6.125   0.489  0.00  0.00    -0.084 HD
BRANCH  19  22
ATOM     22  C   UNL     1      -3.658   5.878  -0.320  0.00  0.00    -0.037 C 
BRANCH  22  26
ATOM     23  C   UNL     1      -2.977   9.559  -2.379  0.00  0.00    -0.047 A 
ATOM     24  C   UNL     1      -3.896   8.652  -2.871  0.00  0.00    +0.004 A 
ATOM     25  C   UNL     1      -4.116   7.460  -2.205  0.00  0.00    +0.002 A 
ATOM     26  C   UNL     1      -3.417   7.177  -1.047  0.00  0.00    -0.061 A 
ATOM     27  C   UNL     1      -2.502   8.087  -0.552  0.00  0.00    +0.002 A 
ATOM     28  C   UNL     1      -2.278   9.275  -1.220  0.00  0.00    +0.004 A 
BRANCH  23  29
ATOM     29  C   UNL     1      -2.737  10.858  -3.105  0.00  0.00    +0.038 C 
BRANCH  29  31
ATOM     30  C   UNL     1      -3.367  12.215  -1.103  0.00  0.00    +0.007 C 
ATOM     31  C   UNL     1      -3.694  11.925  -2.570  0.00  0.00    -0.013 C 
ATOM     32  C   UNL     1      -3.538  13.207  -3.390  0.00  0.00    +0.007 C 
ENDBRANCH  29  31
ENDBRANCH  23  29
ENDBRANCH  22  26
BRANCH  22  33
ATOM     33  C   UNL     1      -4.592   6.123   0.866  0.00  0.00    -0.027 C 
ATOM     34  C   UNL     1      -5.960   6.579   0.353  0.00  0.00    +0.006 C 
ATOM     35  C   UNL     1      -4.752   4.829   1.665  0.00  0.00    +0.006 C 
ENDBRANCH  22  33
ENDBRANCH  19  22
ENDBRANCH   1  19
TORSDOF 10
