REMARK  Name = ZINC63806871
REMARK  6 active torsions:
REMARK  status: ('A' for Active; 'I' for Inactive)
REMARK    1  A    between atoms: C_8  and  O_9
REMARK    2  A    between atoms: C_10  and  N_12
REMARK    3  A    between atoms: C_13  and  C_15
REMARK    4  A    between atoms: N_17  and  C_18
REMARK    5  A    between atoms: C_18  and  C_19
REMARK    6  A    between atoms: C_19  and  C_20
REMARK                            x       y       z     vdW  Elec       q    Type
REMARK                         _______ _______ _______ _____ _____    ______ ____
ROOT
ATOM      1  C   UNL     1       0.066  -4.258   0.194  0.00  0.00    +0.299 C 
ATOM      2  O   UNL     1       1.122  -4.854   0.180  0.00  0.00    -0.265 OA
ATOM      3  N   UNL     1      -1.092  -4.939   0.303  0.00  0.00    -0.307 N 
ATOM      4  H   UNL     1      -1.937  -4.462   0.314  0.00  0.00    +0.149 HD
ENDROOT
BRANCH   1   6
ATOM      5  N   UNL     1       1.205  -2.087  -0.020  0.00  0.00    -0.277 N 
ATOM      6  C   UNL     1       0.048  -2.768   0.089  0.00  0.00    +0.303 C 
ATOM      7  O   UNL     1      -1.009  -2.171   0.103  0.00  0.00    -0.265 OA
ATOM      8  H   UNL     1       2.044  -2.566  -0.112  0.00  0.00    +0.155 HD
BRANCH   5  17
ATOM      9  C   UNL     1       0.154   1.381   0.639  0.00  0.00    +0.003 A 
ATOM     10  C   UNL     1       1.149   2.105   0.055  0.00  0.00    +0.012 A 
ATOM     11  C   UNL     1       2.213   1.449  -0.584  0.00  0.00    +0.025 A 
ATOM     12  C   UNL     1       2.241   0.033  -0.616  0.00  0.00    +0.007 A 
ATOM     13  C   UNL     1       3.305  -0.622  -1.256  0.00  0.00    +0.010 A 
ATOM     14  C   UNL     1       4.296   0.108  -1.839  0.00  0.00    +0.004 A 
ATOM     15  C   UNL     1       4.274   1.500  -1.811  0.00  0.00    +0.046 A 
ATOM     16  C   UNL     1       3.255   2.174  -1.198  0.00  0.00    +0.125 A 
ATOM     17  C   UNL     1       1.198  -0.693  -0.002  0.00  0.00    +0.042 A 
ATOM     18  C   UNL     1       0.171  -0.010   0.616  0.00  0.00    +0.024 A 
BRANCH  16  19
ATOM     19  O   UNL     1       3.247   3.531  -1.179  0.00  0.00    -0.506 OA
ATOM     20  H   UNL     1       3.696   3.917  -0.415  0.00  0.00    +0.292 HD
ENDBRANCH  16  19
ENDBRANCH   5  17
ENDBRANCH   1   6
BRANCH   3  21
ATOM     21  C   UNL     1      -1.075  -6.400   0.406  0.00  0.00    +0.109 C 
BRANCH  21  22
ATOM     22  C   UNL     1      -2.509  -6.921   0.518  0.00  0.00    +0.052 C 
BRANCH  22  23
ATOM     23  C   UNL     1      -2.491  -8.424   0.624  0.00  0.00    -0.040 C 
ATOM     24  C   UNL     1      -2.524  -9.160   1.758  0.00  0.00    +0.002 A 
ATOM     25  C   UNL     1      -2.584  -8.795   3.178  0.00  0.00    +0.048 A 
ATOM     26  C   UNL     1      -2.605  -9.779   4.109  0.00  0.00    +0.124 A 
ATOM     27  C   UNL     1      -2.572 -11.135   3.748  0.00  0.00    +0.040 A 
ATOM     28  C   UNL     1      -2.516 -11.547   2.464  0.00  0.00    +0.029 A 
ATOM     29  C   UNL     1      -2.490 -10.597   1.405  0.00  0.00    +0.043 A 
ATOM     30  N   UNL     1      -2.438 -10.744   0.103  0.00  0.00    -0.380 N 
ATOM     31  C   UNL     1      -2.440  -9.415  -0.518  0.00  0.00    +0.144 C 
ATOM     32  F   UNL     1      -2.660  -9.446   5.417  0.00  0.00    -0.205 F 
ATOM     33  H   UNL     1      -2.407 -11.590  -0.370  0.00  0.00    +0.160 HD
ENDBRANCH  22  23
ENDBRANCH  21  22
ENDBRANCH   3  21
TORSDOF 6
