REMARK  Name = ZINC14005231
REMARK  9 active torsions:
REMARK  status: ('A' for Active; 'I' for Inactive)
REMARK    1  A    between atoms: C_1  and  C_2
REMARK    2  A    between atoms: C_3  and  N_9
REMARK    3  A    between atoms: C_10  and  C_12
REMARK    4  A    between atoms: C_12  and  C_13
REMARK    5  A    between atoms: C_13  and  C_14
REMARK    6  A    between atoms: N_16  and  N_17
REMARK    7  A    between atoms: N_17  and  C_18
REMARK    8  A    between atoms: C_18  and  N_20
REMARK    9  A    between atoms: C_21  and  C_23
REMARK                            x       y       z     vdW  Elec       q    Type
REMARK                         _______ _______ _______ _____ _____    ______ ____
ROOT
ATOM      1  C   UNL     1      -1.479   7.648  -0.373  0.00  0.00    +0.230 C 
ATOM      2  O   UNL     1      -0.433   8.263  -0.380  0.00  0.00    -0.274 OA
ATOM      3  N   UNL     1      -2.650   8.309  -0.460  0.00  0.00    -0.235 N 
ATOM      4  H   UNL     1      -3.486   7.816  -0.455  0.00  0.00    +0.173 HD
ENDROOT
BRANCH   3   5
ATOM      5  N   UNL     1      -2.660   9.706  -0.558  0.00  0.00    -0.246 N 
ATOM      6  H   UNL     1      -1.825  10.198  -0.563  0.00  0.00    +0.172 HD
BRANCH   5   7
ATOM      7  C   UNL     1      -3.832  10.367  -0.645  0.00  0.00    +0.153 C 
ATOM      8  S   UNL     1      -3.845  12.075  -0.765  0.00  0.00    -0.017 S 
BRANCH   7   9
ATOM      9  N   UNL     1      -4.993   9.683  -0.638  0.00  0.00    -0.263 N 
ATOM     10  C   UNL     1      -6.165  10.344  -0.725  0.00  0.00    +0.250 C 
ATOM     11  O   UNL     1      -6.174  11.556  -0.810  0.00  0.00    -0.270 OA
ATOM     12  H   UNL     1      -4.986   8.716  -0.570  0.00  0.00    +0.157 HD
BRANCH  10  13
ATOM     13  C   UNL     1      -7.438   9.594  -0.717  0.00  0.00    +0.038 A 
ATOM     14  C   UNL     1      -7.431   8.201  -0.625  0.00  0.00    +0.013 A 
ATOM     15  C   UNL     1      -8.623   7.507  -0.613  0.00  0.00    +0.002 A 
ATOM     16  C   UNL     1      -9.825   8.188  -0.702  0.00  0.00    +0.020 A 
ATOM     17  C   UNL     1      -9.839   9.569  -0.799  0.00  0.00    +0.042 A 
ATOM     18  C   UNL     1      -8.653  10.276  -0.807  0.00  0.00    +0.033 A 
ATOM     19 CL   UNL     1     -11.352  10.413  -0.910  0.00  0.00    -0.084 Cl
ENDBRANCH  10  13
ENDBRANCH   7   9
ENDBRANCH   5   7
ENDBRANCH   3   5
BRANCH   1  20
ATOM     20  C   UNL     1      -1.468   6.145  -0.268  0.00  0.00    +0.106 C 
BRANCH  20  21
ATOM     21  C   UNL     1      -0.022   5.650  -0.183  0.00  0.00    +0.105 C 
BRANCH  21  23
ATOM     22  N   UNL     1       1.161   3.486   0.010  0.00  0.00    -0.285 N 
ATOM     23  C   UNL     1      -0.011   4.147  -0.077  0.00  0.00    +0.218 C 
ATOM     24  O   UNL     1      -1.056   3.531  -0.071  0.00  0.00    -0.275 OA
ATOM     25  H   UNL     1       1.992   3.980   0.085  0.00  0.00    +0.155 HD
BRANCH  22  28
ATOM     26  C   UNL     1       3.359   2.153   1.228  0.00  0.00    +0.047 C 
ATOM     27  C   UNL     1       2.232   1.396   0.575  0.00  0.00    -0.011 A 
ATOM     28  C   UNL     1       1.178   2.087  -0.009  0.00  0.00    +0.038 A 
ATOM     29  C   UNL     1       0.141   1.387  -0.611  0.00  0.00    +0.023 A 
ATOM     30  C   UNL     1       0.160   0.005  -0.628  0.00  0.00    +0.003 A 
ATOM     31  C   UNL     1       1.210  -0.680  -0.047  0.00  0.00    +0.020 A 
ATOM     32  C   UNL     1       2.246   0.015   0.554  0.00  0.00    +0.046 A 
ATOM     33 CL   UNL     1       3.563  -0.850   1.283  0.00  0.00    -0.083 Cl
ENDBRANCH  22  28
ENDBRANCH  21  23
ENDBRANCH  20  21
ENDBRANCH   1  20
TORSDOF 8
