REMARK  Name = ZINC39370669
REMARK  9 active torsions:
REMARK  status: ('A' for Active; 'I' for Inactive)
REMARK    1  A    between atoms: C_6  and  C_10
REMARK    2  A    between atoms: C_10  and  C_34
REMARK    3  A    between atoms: C_11  and  C_12
REMARK    4  A    between atoms: C_15  and  O_18
REMARK    5  A    between atoms: O_18  and  C_19
REMARK    6  A    between atoms: C_19  and  C_20
REMARK    7  A    between atoms: N_22  and  C_23
REMARK    8  A    between atoms: C_26  and  O_29
REMARK    9  A    between atoms: O_29  and  C_30
REMARK                            x       y       z     vdW  Elec       q    Type
REMARK                         _______ _______ _______ _____ _____    ______ ____
ROOT
ATOM      1  C   UNL     1       4.199  -4.943  -2.390  0.00  0.00    -0.024 A 
ATOM      2  C   UNL     1       3.711  -4.636  -3.665  0.00  0.00    +0.011 A 
ATOM      3  C   UNL     1       4.124  -5.371  -4.754  0.00  0.00    +0.046 A 
ATOM      4  C   UNL     1       5.024  -6.417  -4.588  0.00  0.00    +0.121 A 
ATOM      5  C   UNL     1       5.512  -6.726  -3.324  0.00  0.00    +0.046 A 
ATOM      6  C   UNL     1       5.110  -5.993  -2.230  0.00  0.00    +0.011 A 
ENDROOT
BRANCH   1   8
ATOM      7  C   UNL     1       2.495  -3.699  -1.159  0.00  0.00    +0.072 C 
ATOM      8  C   UNL     1       3.762  -4.161  -1.224  0.00  0.00    +0.026 C 
BRANCH   7  14
ATOM      9  C   UNL     1      -2.232  -1.474   0.829  0.00  0.00    +0.002 A 
ATOM     10  C   UNL     1      -1.839  -0.378   0.041  0.00  0.00    +0.002 A 
ATOM     11  C   UNL     1      -0.603  -0.270  -0.488  0.00  0.00    +0.027 A 
ATOM     12  C   UNL     1       0.386  -1.328  -0.243  0.00  0.00    +0.060 A 
ATOM     13  N   UNL     1       1.623  -1.487  -0.617  0.00  0.00    -0.359 N 
ATOM     14  C   UNL     1       2.093  -2.758  -0.052  0.00  0.00    +0.216 C 
ATOM     15  N   UNL     1       0.965  -3.320   0.701  0.00  0.00    -0.359 N 
ATOM     16  C   UNL     1      -0.030  -2.488   0.591  0.00  0.00    +0.060 A 
ATOM     17  C   UNL     1      -1.404  -2.499   1.114  0.00  0.00    +0.027 A 
ATOM     18  H   UNL     1       2.139  -0.878  -1.167  0.00  0.00    +0.162 HD
ATOM     19  H   UNL     1       0.962  -4.157   1.191  0.00  0.00    +0.162 HD
ENDBRANCH   7  14
BRANCH   7  20
ATOM     20  C   UNL     1       1.534  -4.102  -2.140  0.00  0.00    +0.099 C 
ATOM     21  N   UNL     1       0.771  -4.422  -2.919  0.00  0.00    -0.191 NA
ENDBRANCH   7  20
ENDBRANCH   1   8
BRANCH   4  22
ATOM     22  O   UNL     1       5.428  -7.139  -5.665  0.00  0.00    -0.483 OA
BRANCH  22  23
ATOM     23  C   UNL     1       6.355  -8.200  -5.424  0.00  0.00    +0.324 C 
BRANCH  23  24
ATOM     24  C   UNL     1       6.685  -8.883  -6.725  0.00  0.00    +0.255 C 
ATOM     25  O   UNL     1       6.177  -8.499  -7.758  0.00  0.00    -0.272 OA
ATOM     26  N   UNL     1       7.545  -9.921  -6.742  0.00  0.00    -0.283 N 
ATOM     27  H   UNL     1       7.894 -10.275  -5.909  0.00  0.00    +0.155 HD
BRANCH  26  28
ATOM     28  C   UNL     1       7.936 -10.487  -7.963  0.00  0.00    +0.034 A 
ATOM     29  C   UNL     1       8.144 -11.856  -8.058  0.00  0.00    +0.027 A 
ATOM     30  C   UNL     1       8.529 -12.413  -9.262  0.00  0.00    +0.048 A 
ATOM     31  C   UNL     1       8.709 -11.605 -10.375  0.00  0.00    +0.130 A 
ATOM     32  C   UNL     1       8.502 -10.237 -10.280  0.00  0.00    +0.048 A 
ATOM     33  C   UNL     1       8.111  -9.679  -9.079  0.00  0.00    +0.027 A 
BRANCH  31  34
ATOM     34  O   UNL     1       9.088 -12.155 -11.559  0.00  0.00    -0.406 OA
BRANCH  34  35
ATOM     35  C   UNL     1       9.254 -11.264 -12.664  0.00  0.00    +0.575 C 
ATOM     36  F   UNL     1      10.238 -10.317 -12.356  0.00  0.00    -0.133 F 
ATOM     37  F   UNL     1       9.643 -11.990 -13.795  0.00  0.00    -0.133 F 
ATOM     38  F   UNL     1       8.044 -10.611 -12.923  0.00  0.00    -0.133 F 
ENDBRANCH  34  35
ENDBRANCH  31  34
ENDBRANCH  26  28
ENDBRANCH  23  24
ENDBRANCH  22  23
ENDBRANCH   4  22
TORSDOF 9
