REMARK  Name = ZINC35427178
REMARK  5 active torsions:
REMARK  status: ('A' for Active; 'I' for Inactive)
REMARK    1  A    between atoms: C_1  and  N_2
REMARK    2  A    between atoms: C_16  and  C_31
REMARK    3  A    between atoms: N_22  and  C_23
REMARK    4  A    between atoms: C_34  and  O_37
REMARK    5  A    between atoms: O_37  and  C_38
REMARK                            x       y       z     vdW  Elec       q    Type
REMARK                         _______ _______ _______ _____ _____    ______ ____
ROOT
ATOM      1  C   UNL     1      -0.381   1.624   0.279  0.00  0.00    -0.096 C 
ATOM      2  N   UNL     1      -0.292   0.159   0.240  0.00  0.00    +0.381 N 
ATOM      3  C   UNL     1      -1.644  -0.414   0.200  0.00  0.00    -0.074 C 
ATOM      4  C   UNL     1      -1.581  -1.901  -0.158  0.00  0.00    +0.018 C 
ATOM      5  C   UNL     1      -0.607  -2.576   0.805  0.00  0.00    -0.034 A 
ATOM      6  C   UNL     1      -0.567  -3.969   1.005  0.00  0.00    +0.004 A 
ATOM      7  C   UNL     1       0.343  -4.431   1.906  0.00  0.00    +0.090 A 
ATOM      8  S   UNL     1       1.178  -2.982   2.477  0.00  0.00    -0.077 S 
ATOM      9  C   UNL     1       0.271  -1.808   1.506  0.00  0.00    -0.021 A 
ATOM     10  C   UNL     1       0.410  -0.323   1.445  0.00  0.00    -0.036 C 
ATOM     11  N   UNL     1       0.490  -5.770   2.246  0.00  0.00    -0.312 N 
ATOM     12  C   UNL     1       1.592  -6.543   2.384  0.00  0.00    +0.092 A 
ATOM     13  C   UNL     1       1.187  -7.803   2.661  0.00  0.00    +0.020 A 
ATOM     14  C   UNL     1      -0.224  -7.795   2.713  0.00  0.00    +0.025 A 
ATOM     15  C   UNL     1      -0.627  -6.537   2.481  0.00  0.00    +0.049 A 
ATOM     16  C   UNL     1      -2.012  -5.962   2.498  0.00  0.00    +0.155 C 
ATOM     17  N   UNL     1      -2.463  -5.571   1.141  0.00  0.00    -0.268 N 
ATOM     18  C   UNL     1      -1.463  -4.937   0.264  0.00  0.00    +0.148 C 
ATOM     19  C   UNL     1      -3.728  -5.786   0.728  0.00  0.00    +0.308 C 
ATOM     20  O   UNL     1      -4.531  -6.312   1.475  0.00  0.00    -0.252 OA
ATOM     21  N   UNL     1      -4.104  -5.418  -0.513  0.00  0.00    -0.267 N 
ATOM     22  H   UNL     1      -3.446  -5.076  -1.138  0.00  0.00    +0.156 HD
ATOM     23  H   UNL     1       0.218  -0.126  -0.583  0.00  0.00    -0.082 HD
ENDROOT
BRANCH  21  24
ATOM     24  C   UNL     1      -5.446  -5.529  -0.900  0.00  0.00    +0.073 A 
ATOM     25  C   UNL     1      -6.457  -5.319   0.027  0.00  0.00    +0.064 A 
ATOM     26  C   UNL     1      -7.781  -5.429  -0.359  0.00  0.00    +0.125 A 
ATOM     27  C   UNL     1      -8.098  -5.748  -1.669  0.00  0.00    +0.041 A 
ATOM     28  C   UNL     1      -7.092  -5.958  -2.594  0.00  0.00    +0.043 A 
ATOM     29  C   UNL     1      -5.767  -5.844  -2.216  0.00  0.00    +0.145 A 
ATOM     30  F   UNL     1      -4.785  -6.044  -3.122  0.00  0.00    -0.204 F 
ATOM     31  F   UNL     1      -8.766  -5.225   0.543  0.00  0.00    -0.205 F 
ENDBRANCH  21  24
BRANCH  16  32
ATOM     32  C   UNL     1      -2.028  -4.746   3.388  0.00  0.00    -0.021 A 
ATOM     33  C   UNL     1      -2.906  -3.711   3.127  0.00  0.00    +0.009 A 
ATOM     34  C   UNL     1      -2.923  -2.595   3.941  0.00  0.00    +0.046 A 
ATOM     35  C   UNL     1      -2.057  -2.514   5.022  0.00  0.00    +0.120 A 
ATOM     36  C   UNL     1      -1.176  -3.554   5.282  0.00  0.00    +0.046 A 
ATOM     37  C   UNL     1      -1.167  -4.670   4.468  0.00  0.00    +0.009 A 
BRANCH  35  38
ATOM     38  O   UNL     1      -2.070  -1.417   5.824  0.00  0.00    -0.495 OA
ATOM     39  C   UNL     1      -1.151  -1.402   6.918  0.00  0.00    +0.277 C 
ENDBRANCH  35  38
ENDBRANCH  16  32
TORSDOF 3
