REMARK  Name = ZINC09886746
REMARK  10 active torsions:
REMARK  status: ('A' for Active; 'I' for Inactive)
REMARK    1  A    between atoms: C_1  and  C_2
REMARK    2  A    between atoms: C_2  and  C_3
REMARK    3  A    between atoms: C_2  and  C_4
REMARK    4  A    between atoms: C_4  and  C_6
REMARK    5  A    between atoms: C_4  and  N_28
REMARK    6  A    between atoms: N_8  and  N_9
REMARK    7  A    between atoms: C_10  and  C_11
REMARK    8  A    between atoms: N_13  and  C_20
REMARK    9  A    between atoms: C_20  and  C_21
REMARK   10  A    between atoms: C_29  and  C_31
REMARK                            x       y       z     vdW  Elec       q    Type
REMARK                         _______ _______ _______ _____ _____    ______ ____
ROOT
ATOM      1  C   UNL     1       0.227   7.628   2.096  0.00  0.00    +0.253 C 
ATOM      2  O   UNL     1       1.382   7.391   1.813  0.00  0.00    -0.272 OA
ATOM      3  N   UNL     1      -0.629   6.615   2.341  0.00  0.00    -0.205 N 
ATOM      4  H   UNL     1      -0.305   5.701   2.363  0.00  0.00    +0.177 HD
ENDROOT
BRANCH   3   5
ATOM      5  N   UNL     1      -1.986   6.883   2.564  0.00  0.00    -0.188 NA
ATOM      6  C   UNL     1      -2.828   5.903   2.697  0.00  0.00    +0.140 C 
BRANCH   6   7
ATOM      7  C   UNL     1      -2.403   4.524   2.408  0.00  0.00    +0.020 A 
ATOM      8  C   UNL     1      -1.360   4.142   1.623  0.00  0.00    +0.096 A 
ATOM      9  N   UNL     1      -1.280   2.781   1.595  0.00  0.00    -0.342 N 
ATOM     10  C   UNL     1      -2.275   2.228   2.373  0.00  0.00    +0.050 A 
ATOM     11  C   UNL     1      -3.026   3.287   2.912  0.00  0.00    +0.009 A 
ATOM     12  C   UNL     1      -4.111   3.020   3.744  0.00  0.00    +0.010 A 
ATOM     13  C   UNL     1      -4.445   1.715   4.031  0.00  0.00    +0.001 A 
ATOM     14  C   UNL     1      -3.708   0.669   3.495  0.00  0.00    +0.002 A 
ATOM     15  C   UNL     1      -2.632   0.917   2.671  0.00  0.00    +0.026 A 
BRANCH   9  16
ATOM     16  C   UNL     1      -0.276   2.017   0.851  0.00  0.00    +0.158 C 
BRANCH  16  17
ATOM     17  C   UNL     1       0.798   1.543   1.796  0.00  0.00    -0.009 A 
ATOM     18  C   UNL     1       0.762   0.254   2.294  0.00  0.00    +0.007 A 
ATOM     19  C   UNL     1       1.746  -0.180   3.161  0.00  0.00    +0.000 A 
ATOM     20  C   UNL     1       2.768   0.675   3.532  0.00  0.00    +0.001 A 
ATOM     21  C   UNL     1       2.805   1.964   3.035  0.00  0.00    +0.020 A 
ATOM     22  C   UNL     1       1.823   2.397   2.162  0.00  0.00    +0.046 A 
ATOM     23 CL   UNL     1       1.873   4.014   1.532  0.00  0.00    -0.083 Cl
ENDBRANCH  16  17
ENDBRANCH   9  16
ENDBRANCH   6   7
ENDBRANCH   3   5
BRANCH   1  24
ATOM     24  C   UNL     1      -0.252   9.055   2.175  0.00  0.00    +0.163 C 
BRANCH  24  25
ATOM     25  N   UNL     1       0.879   9.933   2.486  0.00  0.00    -0.300 N 
ATOM     26  C   UNL     1       0.665  11.118   3.090  0.00  0.00    +0.245 C 
ATOM     27  O   UNL     1      -0.466  11.459   3.378  0.00  0.00    -0.270 OA
ATOM     28  H   UNL     1       1.781   9.661   2.256  0.00  0.00    +0.150 HD
BRANCH  26  29
ATOM     29  C   UNL     1       1.806  12.005   3.403  0.00  0.00    +0.038 A 
ATOM     30  C   UNL     1       1.589  13.233   4.029  0.00  0.00    +0.013 A 
ATOM     31  C   UNL     1       2.657  14.056   4.319  0.00  0.00    +0.002 A 
ATOM     32  C   UNL     1       3.944  13.665   3.992  0.00  0.00    +0.020 A 
ATOM     33  C   UNL     1       4.167  12.448   3.371  0.00  0.00    +0.042 A 
ATOM     34  C   UNL     1       3.106  11.614   3.079  0.00  0.00    +0.033 A 
ATOM     35 CL   UNL     1       5.785  11.967   2.965  0.00  0.00    -0.084 Cl
ENDBRANCH  26  29
ENDBRANCH  24  25
BRANCH  24  37
ATOM     36  C   UNL     1      -2.099   8.607   0.553  0.00  0.00    +0.009 C 
ATOM     37  C   UNL     1      -0.862   9.463   0.833  0.00  0.00    +0.012 C 
ATOM     38  C   UNL     1      -1.263  10.939   0.883  0.00  0.00    +0.009 C 
ENDBRANCH  24  37
ENDBRANCH   1  24
TORSDOF 8
