REMARK  Name = ZINC59170698
REMARK  6 active torsions:
REMARK  status: ('A' for Active; 'I' for Inactive)
REMARK    1  A    between atoms: C_5  and  N_7
REMARK    2  A    between atoms: C_8  and  C_10
REMARK    3  A    between atoms: C_15  and  O_31
REMARK    4  A    between atoms: N_20  and  C_21
REMARK    5  A    between atoms: C_24  and  S_27
REMARK    6  A    between atoms: S_27  and  N_30
REMARK                            x       y       z     vdW  Elec       q    Type
REMARK                         _______ _______ _______ _____ _____    ______ ____
ROOT
ATOM      1  C   UNL     1       0.130  -4.213   0.248  0.00  0.00    +0.098 A 
ATOM      2  C   UNL     1      -1.053  -4.938   0.244  0.00  0.00    +0.030 A 
ATOM      3  C   UNL     1      -0.972  -6.352   0.310  0.00  0.00    +0.018 A 
ATOM      4  C   UNL     1      -2.116  -7.139   0.107  0.00  0.00    +0.015 A 
ATOM      5  C   UNL     1      -2.019  -8.499   0.132  0.00  0.00    +0.046 A 
ATOM      6  C   UNL     1      -0.791  -9.116   0.366  0.00  0.00    +0.120 A 
ATOM      7  C   UNL     1       0.347  -8.355   0.589  0.00  0.00    +0.092 A 
ATOM      8  C   UNL     1       0.264  -6.973   0.574  0.00  0.00    +0.141 A 
ATOM      9  O   UNL     1       1.362  -6.220   0.833  0.00  0.00    -0.438 OA
ATOM     10  C   UNL     1       1.393  -4.976   0.284  0.00  0.00    +0.212 A 
ATOM     11  N   UNL     1       2.509  -4.468  -0.195  0.00  0.00    -0.325 N 
ATOM     12  H   UNL     1       2.490  -3.630  -0.683  0.00  0.00    +0.169 HD
ENDROOT
BRANCH  11  13
ATOM     13  C   UNL     1       3.695  -5.121  -0.004  0.00  0.00    +0.042 A 
ATOM     14  C   UNL     1       4.011  -5.650   1.250  0.00  0.00    +0.027 A 
ATOM     15  C   UNL     1       5.209  -6.308   1.436  0.00  0.00    +0.030 A 
ATOM     16  C   UNL     1       6.097  -6.444   0.383  0.00  0.00    +0.105 A 
ATOM     17  C   UNL     1       5.791  -5.923  -0.862  0.00  0.00    +0.030 A 
ATOM     18  C   UNL     1       4.593  -5.269  -1.063  0.00  0.00    +0.027 A 
BRANCH  16  19
ATOM     19  S   UNL     1       7.625  -7.285   0.630  0.00  0.00    +0.056 S 
ATOM     20  O   UNL     1       8.519  -6.804  -0.365  0.00  0.00    -0.153 OA
ATOM     21  O   UNL     1       7.915  -7.202   2.018  0.00  0.00    -0.153 OA
BRANCH  19  22
ATOM     22  N   UNL     1       7.363  -8.886   0.296  0.00  0.00    -0.204 NA
ATOM     23  H   UNL     1       6.482  -9.186   0.022  0.00  0.00    +0.144 HD
ATOM     24  H   UNL     1       8.090  -9.523   0.373  0.00  0.00    +0.144 HD
ENDBRANCH  19  22
ENDBRANCH  16  19
ENDBRANCH  11  13
BRANCH   1  26
ATOM     25  N   UNL     1       1.283  -2.062   0.335  0.00  0.00    -0.279 N 
ATOM     26  C   UNL     1       0.126  -2.742   0.213  0.00  0.00    +0.253 C 
ATOM     27  O   UNL     1      -0.922  -2.140   0.075  0.00  0.00    -0.270 OA
ATOM     28  H   UNL     1       2.123  -2.542   0.398  0.00  0.00    +0.155 HD
BRANCH  25  33
ATOM     29  C   UNL     1       0.181   1.419  -0.110  0.00  0.00    +0.002 A 
ATOM     30  C   UNL     1       1.249   2.105   0.438  0.00  0.00    +0.003 A 
ATOM     31  C   UNL     1       2.329   1.412   0.953  0.00  0.00    +0.040 A 
ATOM     32  C   UNL     1       2.345   0.030   0.920  0.00  0.00    +0.144 A 
ATOM     33  C   UNL     1       1.271  -0.662   0.370  0.00  0.00    +0.069 A 
ATOM     34  C   UNL     1       0.189   0.038  -0.145  0.00  0.00    +0.026 A 
ATOM     35  F   UNL     1       3.401  -0.647   1.422  0.00  0.00    -0.204 F 
ENDBRANCH  25  33
ENDBRANCH   1  26
BRANCH   6  36
ATOM     36  O   UNL     1      -0.709 -10.470   0.378  0.00  0.00    -0.507 OA
ATOM     37  H   UNL     1      -0.518 -10.860  -0.487  0.00  0.00    +0.292 HD
ENDBRANCH   6  36
TORSDOF 6
