REMARK  Name = ZINC06933950
REMARK  8 active torsions:
REMARK  status: ('A' for Active; 'I' for Inactive)
REMARK    1  A    between atoms: C_1  and  C_2
REMARK    2  A    between atoms: C_2  and  C_3
REMARK    3  A    between atoms: C_3  and  C_5
REMARK    4  A    between atoms: C_3  and  C_6
REMARK    5  A    between atoms: C_6  and  C_8
REMARK    6  A    between atoms: C_6  and  N_58
REMARK    7  A    between atoms: C_14  and  C_17
REMARK    8  A    between atoms: N_20  and  C_21
REMARK                            x       y       z     vdW  Elec       q    Type
REMARK                         _______ _______ _______ _____ _____    ______ ____
ROOT
ATOM      1  C   UNL     1       0.162  -3.824   1.158  0.00  0.00    +0.201 C 
ATOM      2  O   UNL     1      -0.876  -4.444   1.248  0.00  0.00    -0.277 OA
ATOM      3  N   UNL     1       0.145  -2.476   1.174  0.00  0.00    -0.300 N 
ATOM      4  C   UNL     1       1.395  -1.711   1.066  0.00  0.00    +0.127 C 
ATOM      5  C   UNL     1       1.273  -0.737  -0.112  0.00  0.00    +0.128 C 
ATOM      6  N   UNL     1       0.004  -0.006   0.013  0.00  0.00    -0.280 N 
ATOM      7  C   UNL     1      -1.245  -0.771   0.126  0.00  0.00    +0.092 C 
ATOM      8  C   UNL     1      -1.124  -1.745   1.298  0.00  0.00    +0.130 C 
ATOM      9  C   UNL     1      -2.413   0.186   0.376  0.00  0.00    +0.030 C 
ATOM     10  C   UNL     1      -0.013   1.342   0.028  0.00  0.00    +0.303 C 
ATOM     11  O   UNL     1      -1.073   1.937   0.026  0.00  0.00    -0.253 OA
ATOM     12  N   UNL     1       1.146   2.030   0.041  0.00  0.00    -0.296 N 
ATOM     13  H   UNL     1       1.991   1.559  -0.035  0.00  0.00    +0.151 HD
ENDROOT
BRANCH  12  14
ATOM     14  C   UNL     1       1.130   3.490   0.168  0.00  0.00    +0.074 C 
ATOM     15  C   UNL     1       0.940   4.120  -1.213  0.00  0.00    +0.022 C 
ATOM     16  C   UNL     1       0.923   5.644  -1.080  0.00  0.00    +0.002 C 
ATOM     17  C   UNL     1       2.248   6.118  -0.480  0.00  0.00    +0.000 C 
ATOM     18  C   UNL     1       2.438   5.488   0.901  0.00  0.00    +0.002 C 
ATOM     19  C   UNL     1       2.455   3.964   0.768  0.00  0.00    +0.022 C 
ENDBRANCH  12  14
BRANCH   1  20
ATOM     20  C   UNL     1       1.471  -4.559   1.030  0.00  0.00    +0.016 C 
BRANCH  20  23
ATOM     21  H   UNL     1       0.606  -6.427   0.967  0.00  0.00    -0.089 HD
ATOM     22  H   UNL     1       2.185  -6.435   1.491  0.00  0.00    -0.089 HD
ATOM     23  N   UNL     1       1.298  -5.935   1.530  0.00  0.00    +0.386 N 
ATOM     24  H   UNL     1       0.975  -5.901   2.504  0.00  0.00    -0.089 HD
ENDBRANCH  20  23
BRANCH  20  25
ATOM     25  C   UNL     1       1.905  -4.575  -0.437  0.00  0.00    -0.020 C 
ATOM     26  C   UNL     1       0.838  -5.281  -1.277  0.00  0.00    +0.006 C 
BRANCH  25  28
ATOM     27  C   UNL     1       3.730  -5.231  -2.013  0.00  0.00    +0.004 C 
ATOM     28  C   UNL     1       3.234  -5.322  -0.568  0.00  0.00    -0.001 C 
ENDBRANCH  25  28
ENDBRANCH  20  25
ENDBRANCH   1  20
TORSDOF 5
