REMARK  Name = ZINC42366938
REMARK  7 active torsions:
REMARK  status: ('A' for Active; 'I' for Inactive)
REMARK    1  A    between atoms: C_1  and  C_2
REMARK    2  A    between atoms: C_2  and  C_4
REMARK    3  A    between atoms: C_2  and  N_22
REMARK    4  A    between atoms: C_7  and  N_10
REMARK    5  A    between atoms: N_13  and  C_14
REMARK    6  A    between atoms: N_13  and  C_15
REMARK    7  A    between atoms: C_15  and  C_16
REMARK                            x       y       z     vdW  Elec       q    Type
REMARK                         _______ _______ _______ _____ _____    ______ ____
ROOT
ATOM      1  N   UNL     1       2.746  -1.884   4.598  0.00  0.00    -0.269 N 
ATOM      2  C   UNL     1       2.054  -2.225   5.703  0.00  0.00    +0.306 C 
ATOM      3  O   UNL     1       0.839  -2.217   5.686  0.00  0.00    -0.252 OA
ATOM      4  N   UNL     1       2.710  -2.575   6.827  0.00  0.00    -0.284 N 
ATOM      5  C   UNL     1       4.175  -2.586   6.848  0.00  0.00    +0.134 C 
ATOM      6  H   UNL     1       3.713  -1.964   4.587  0.00  0.00    +0.156 HD
ENDROOT
BRANCH   1  10
ATOM      7  C   UNL     1       0.733  -0.484   1.230  0.00  0.00    -0.062 A 
ATOM      8  C   UNL     1       0.246  -0.199   2.492  0.00  0.00    +0.004 A 
ATOM      9  C   UNL     1       0.911  -0.662   3.611  0.00  0.00    +0.023 A 
ATOM     10  C   UNL     1       2.070  -1.414   3.467  0.00  0.00    +0.035 A 
ATOM     11  C   UNL     1       2.556  -1.699   2.197  0.00  0.00    +0.023 A 
ATOM     12  C   UNL     1       1.883  -1.238   1.083  0.00  0.00    +0.004 A 
BRANCH   7  14
ATOM     13  C   UNL     1      -1.193  -0.884  -0.280  0.00  0.00    -0.009 C 
ATOM     14  C   UNL     1       0.005   0.022   0.011  0.00  0.00    -0.047 C 
BRANCH  14  15
ATOM     15  N   UNL     1      -0.465   1.392   0.256  0.00  0.00    +0.382 N 
ATOM     16  H   UNL     1       0.325   1.990   0.448  0.00  0.00    -0.089 HD
ATOM     17  H   UNL     1      -0.953   1.731  -0.560  0.00  0.00    -0.089 HD
ATOM     18  H   UNL     1      -1.091   1.397   1.048  0.00  0.00    -0.089 HD
ENDBRANCH  14  15
ENDBRANCH   7  14
ENDBRANCH   1  10
BRANCH   4  19
ATOM     19  C   UNL     1       1.958  -2.946   8.029  0.00  0.00    +0.144 C 
BRANCH  19  20
ATOM     20  C   UNL     1       1.697  -4.431   8.020  0.00  0.00    -0.022 A 
ATOM     21  C   UNL     1       0.556  -4.938   7.428  0.00  0.00    +0.028 A 
ATOM     22  C   UNL     1       0.351  -6.279   7.437  0.00  0.00    +0.055 A 
ATOM     23  S   UNL     1       1.799  -6.867   8.301  0.00  0.00    -0.090 S 
ATOM     24  C   UNL     1       2.581  -5.288   8.587  0.00  0.00    +0.051 A 
ATOM     25 BR   UNL     1      -1.092  -7.269   6.721  0.00  0.00    -0.043 Br
ENDBRANCH  19  20
ENDBRANCH   4  19
TORSDOF 5
