REMARK  Name = ZINC14018075
REMARK  5 active torsions:
REMARK  status: ('A' for Active; 'I' for Inactive)
REMARK    1  A    between atoms: C_1  and  C_2
REMARK    2  A    between atoms: C_2  and  C_4
REMARK    3  A    between atoms: C_2  and  N_14
REMARK    4  A    between atoms: C_15  and  C_17
REMARK    5  A    between atoms: C_17  and  N_18
REMARK                            x       y       z     vdW  Elec       q    Type
REMARK                         _______ _______ _______ _____ _____    ______ ____
ROOT
ATOM      1  C   UNL     1       3.082   9.675   2.383  0.00  0.00    +0.213 C 
ENDROOT
BRANCH   1   2
ATOM      2  N   UNL     1       2.725  11.011   2.868  0.00  0.00    -0.215 N 
ATOM      3  C   UNL     1       3.061  12.160   2.243  0.00  0.00    +0.251 C 
ATOM      4  O   UNL     1       3.690  12.279   1.213  0.00  0.00    -0.272 OA
ATOM      5  C   UNL     1       2.486  13.263   3.097  0.00  0.00    +0.139 C 
ATOM      6  C   UNL     1       3.584  14.191   3.595  0.00  0.00    +0.040 C 
ATOM      7  C   UNL     1       2.971  15.399   4.311  0.00  0.00    +0.008 C 
ATOM      8  C   UNL     1       2.254  16.279   3.275  0.00  0.00    +0.043 C 
ATOM      9  C   UNL     1       1.393  15.404   2.424  0.00  0.00    -0.005 A 
ATOM     10  C   UNL     1       1.453  14.048   2.306  0.00  0.00    -0.005 A 
ATOM     11  C   UNL     1       0.531  13.459   1.440  0.00  0.00    +0.014 A 
ATOM     12  C   UNL     1      -0.357  14.227   0.770  0.00  0.00    +0.046 A 
ATOM     13  S   UNL     1       0.069  15.866   1.339  0.00  0.00    -0.101 S 
ATOM     14  N   UNL     1       1.839  12.560   4.209  0.00  0.00    -0.281 N 
ATOM     15  C   UNL     1       2.032  11.245   3.989  0.00  0.00    +0.310 C 
ATOM     16  O   UNL     1       1.621  10.369   4.725  0.00  0.00    -0.252 OA
ATOM     17  H   UNL     1       1.367  12.962   4.955  0.00  0.00    +0.152 HD
ENDBRANCH   1   2
BRANCH   1  19
ATOM     18  N   UNL     1       2.103   7.945   0.910  0.00  0.00    -0.307 N 
ATOM     19  C   UNL     1       1.992   9.163   1.477  0.00  0.00    +0.231 C 
ATOM     20  O   UNL     1       1.014   9.846   1.258  0.00  0.00    -0.274 OA
ATOM     21  H   UNL     1       2.885   7.399   1.085  0.00  0.00    +0.149 HD
BRANCH  18  23
ATOM     22  C   UNL     1       1.274   7.967  -1.390  0.00  0.00    +0.033 C 
ATOM     23  C   UNL     1       1.044   7.447   0.030  0.00  0.00    +0.100 C 
BRANCH  23  24
ATOM     24  C   UNL     1       1.064   5.940   0.022  0.00  0.00    -0.027 A 
ATOM     25  C   UNL     1       2.286   5.270   0.008  0.00  0.00    +0.006 A 
ATOM     26  C   UNL     1       2.340   3.910  -0.000  0.00  0.00    +0.009 A 
ATOM     27  C   UNL     1       1.147   3.167   0.008  0.00  0.00    -0.018 A 
ATOM     28  C   UNL     1       1.163   1.762   0.000  0.00  0.00    +0.008 A 
ATOM     29  C   UNL     1      -0.013   1.076   0.008  0.00  0.00    +0.001 A 
ATOM     30  C   UNL     1      -1.235   1.746   0.017  0.00  0.00    +0.001 A 
ATOM     31  C   UNL     1      -1.288   3.106   0.030  0.00  0.00    +0.008 A 
ATOM     32  C   UNL     1      -0.096   3.849   0.023  0.00  0.00    -0.018 A 
ATOM     33  C   UNL     1      -0.111   5.254   0.030  0.00  0.00    +0.014 A 
ENDBRANCH  23  24
ENDBRANCH  18  23
ENDBRANCH   1  19
TORSDOF 4
