REMARK  Name = ZINC44730577
REMARK  8 active torsions:
REMARK  status: ('A' for Active; 'I' for Inactive)
REMARK    1  A    between atoms: C_1  and  C_2
REMARK    2  A    between atoms: C_4  and  C_8
REMARK    3  A    between atoms: C_5  and  C_7
REMARK    4  A    between atoms: C_8  and  C_10
REMARK    5  A    between atoms: C_8  and  N_11
REMARK    6  A    between atoms: N_11  and  C_12
REMARK    7  A    between atoms: C_12  and  C_13
REMARK    8  A    between atoms: N_15  and  C_16
REMARK                            x       y       z     vdW  Elec       q    Type
REMARK                         _______ _______ _______ _____ _____    ______ ____
ROOT
ATOM      1  N   UNL     1      -2.755  -3.099  -0.590  0.00  0.00    +0.389 N 
ATOM      2  H   UNL     1      -3.245  -2.455   0.013  0.00  0.00    -0.084 HD
ATOM      3  H   UNL     1      -2.643  -2.686  -1.503  0.00  0.00    -0.084 HD
ENDROOT
BRANCH   1   4
ATOM      4  C   UNL     1      -1.433  -3.392  -0.019  0.00  0.00    -0.040 C 
ATOM      5  C   UNL     1      -1.597  -3.902   1.414  0.00  0.00    -0.009 C 
BRANCH   4   9
ATOM      6  C   UNL     1      -0.021   1.503   0.022  0.00  0.00    +0.086 C 
ATOM      7  C   UNL     1       0.002  -0.004   0.005  0.00  0.00    +0.102 A 
ATOM      8  C   UNL     1      -1.078  -0.807   0.006  0.00  0.00    +0.046 A 
ATOM      9  C   UNL     1      -0.599  -2.137  -0.014  0.00  0.00    -0.021 A 
ATOM     10  C   UNL     1       0.745  -2.067  -0.025  0.00  0.00    +0.104 A 
ATOM     11  O   UNL     1       1.102  -0.773  -0.020  0.00  0.00    -0.465 OA
ATOM     12  C   UNL     1       1.688  -3.243  -0.046  0.00  0.00    +0.086 C 
ENDBRANCH   4   9
ENDBRANCH   1   4
BRANCH   1  13
ATOM     13  C   UNL     1      -3.525  -4.344  -0.706  0.00  0.00    +0.016 C 
BRANCH  13  14
ATOM     14  C   UNL     1      -4.881  -4.044  -1.291  0.00  0.00    +0.200 C 
ATOM     15  O   UNL     1      -5.176  -2.904  -1.582  0.00  0.00    -0.278 OA
ATOM     16  N   UNL     1      -5.765  -5.041  -1.491  0.00  0.00    -0.287 N 
ATOM     17  H   UNL     1      -5.505  -5.960  -1.321  0.00  0.00    +0.155 HD
BRANCH  16  18
ATOM     18  C   UNL     1      -7.057  -4.751  -1.942  0.00  0.00    +0.034 A 
ATOM     19  C   UNL     1      -8.136  -5.501  -1.494  0.00  0.00    +0.023 A 
ATOM     20  C   UNL     1      -9.410  -5.213  -1.941  0.00  0.00    +0.003 A 
ATOM     21  C   UNL     1      -9.613  -4.177  -2.835  0.00  0.00    +0.015 A 
ATOM     22  C   UNL     1      -8.540  -3.428  -3.285  0.00  0.00    +0.020 A 
ATOM     23  C   UNL     1      -7.264  -3.708  -2.836  0.00  0.00    +0.038 A 
ATOM     24 BR   UNL     1      -8.823  -2.014  -4.508  0.00  0.00    -0.050 Br
ENDBRANCH  16  18
ENDBRANCH  13  14
ENDBRANCH   1  13
TORSDOF 5
