REMARK  Name = ZINC65410936
REMARK  7 active torsions:
REMARK  status: ('A' for Active; 'I' for Inactive)
REMARK    1  A    between atoms: C_1  and  C_2
REMARK    2  A    between atoms: C_4  and  N_8
REMARK    3  A    between atoms: C_9  and  C_18
REMARK    4  A    between atoms: C_12  and  C_15
REMARK    5  A    between atoms: C_15  and  C_16
REMARK    6  A    between atoms: C_15  and  C_17
REMARK    7  A    between atoms: C_22  and  C_26
REMARK                            x       y       z     vdW  Elec       q    Type
REMARK                         _______ _______ _______ _____ _____    ______ ____
ROOT
ATOM      1  N   UNL     1      -0.093  -2.802  -2.584  0.00  0.00    -0.247 N 
ATOM      2  C   UNL     1       0.146  -4.252  -2.514  0.00  0.00    +0.174 C 
ATOM      3  N   UNL     1       0.196  -4.730  -3.918  0.00  0.00    -0.280 NA
ATOM      4  C   UNL     1      -0.535  -3.660  -4.651  0.00  0.00    +0.143 C 
ATOM      5  N   UNL     1      -0.145  -2.437  -3.908  0.00  0.00    -0.221 NA
ATOM      6  H   UNL     1       1.149  -4.804  -4.241  0.00  0.00    +0.125 HD
ATOM      7  H   UNL     1       0.751  -2.095  -4.224  0.00  0.00    +0.146 HD
ENDROOT
BRANCH   1  11
ATOM      8  C   UNL     1      -1.192   1.631  -0.758  0.00  0.00    +0.063 C 
ATOM      9  C   UNL     1      -0.776   0.194  -0.575  0.00  0.00    +0.015 A 
ATOM     10  C   UNL     1      -0.633  -0.620  -1.679  0.00  0.00    +0.045 A 
ATOM     11  C   UNL     1      -0.248  -1.948  -1.497  0.00  0.00    +0.049 A 
ATOM     12  C   UNL     1      -0.021  -2.397  -0.196  0.00  0.00    +0.042 A 
ATOM     13  C   UNL     1      -0.185  -1.519   0.855  0.00  0.00    +0.084 A 
ATOM     14  N   UNL     1      -0.547  -0.268   0.640  0.00  0.00    -0.364 N 
ATOM     15  H   UNL     1      -0.651   0.329   1.398  0.00  0.00    +0.165 HD
ENDBRANCH   1  11
BRANCH   2  16
ATOM     16  C   UNL     1      -0.996  -4.939  -1.763  0.00  0.00    +0.136 C 
ATOM     17  C   UNL     1      -0.673  -6.418  -1.668  0.00  0.00    -0.010 C 
ATOM     18  C   UNL     1      -1.558  -7.277  -2.195  0.00  0.00    +0.017 C 
ATOM     19  C   UNL     1      -2.738  -6.818  -2.811  0.00  0.00    +0.031 C 
ATOM     20  N   UNL     1      -3.066  -5.560  -2.921  0.00  0.00    -0.185 NA
ATOM     21  C   UNL     1      -2.296  -4.571  -2.449  0.00  0.00    +0.246 C 
ATOM     22  O   UNL     1      -2.631  -3.410  -2.568  0.00  0.00    -0.273 OA
ATOM     23  C   UNL     1      -3.682  -7.846  -3.380  0.00  0.00    +0.063 C 
ENDBRANCH   2  16
BRANCH   4  24
ATOM     24  C   UNL     1      -0.076  -3.589  -6.108  0.00  0.00    +0.016 C 
ATOM     25  C   UNL     1      -0.346  -4.929  -6.795  0.00  0.00    +0.010 C 
ATOM     26  C   UNL     1      -0.845  -2.481  -6.832  0.00  0.00    +0.010 C 
ENDBRANCH   4  24
TORSDOF 3
