REMARK  Name = ZINC02744087
REMARK  5 active torsions:
REMARK  status: ('A' for Active; 'I' for Inactive)
REMARK    1  A    between atoms: C_1  and  C_2
REMARK    2  A    between atoms: C_4  and  C_7
REMARK    3  A    between atoms: N_9  and  N_10
REMARK    4  A    between atoms: C_11  and  C_13
REMARK    5  A    between atoms: C_14  and  C_15
REMARK                            x       y       z     vdW  Elec       q    Type
REMARK                         _______ _______ _______ _____ _____    ______ ____
ROOT
ATOM      1  C   UNL     1      -7.283   1.269   0.043  0.00  0.00    +0.261 C 
ATOM      2  O   UNL     1      -7.266   0.053   0.037  0.00  0.00    -0.269 OA
ATOM      3  N   UNL     1      -6.125   1.959   0.042  0.00  0.00    -0.230 N 
ATOM      4  H   UNL     1      -6.138   2.929   0.047  0.00  0.00    +0.173 HD
ENDROOT
BRANCH   1   8
ATOM      5  C   UNL     1     -12.380   1.565   0.069  0.00  0.00    +0.051 C 
ATOM      6  C   UNL     1     -10.946   2.029   0.065  0.00  0.00    -0.013 A 
ATOM      7  C   UNL     1      -9.824   1.282   0.050  0.00  0.00    +0.024 A 
ATOM      8  C   UNL     1      -8.567   1.988   0.053  0.00  0.00    +0.045 A 
ATOM      9  C   UNL     1      -8.622   3.366   0.061  0.00  0.00    +0.058 A 
ATOM     10  S   UNL     1     -10.321   3.696   0.070  0.00  0.00    -0.101 S 
ENDBRANCH   1   8
BRANCH   3  11
ATOM     11  N   UNL     1      -4.902   1.275   0.032  0.00  0.00    -0.231 N 
ATOM     12  C   UNL     1      -3.744   1.964   0.030  0.00  0.00    +0.253 C 
ATOM     13  O   UNL     1      -3.761   3.180   0.037  0.00  0.00    -0.269 OA
ATOM     14  H   UNL     1      -4.889   0.305   0.027  0.00  0.00    +0.173 HD
BRANCH  12  15
ATOM     15  C   UNL     1      -2.455   1.244   0.021  0.00  0.00    +0.076 C 
ATOM     16  C   UNL     1      -1.302   1.931   0.019  0.00  0.00    +0.101 C 
BRANCH  16  17
ATOM     17  C   UNL     1      -0.014   1.210   0.009  0.00  0.00    +0.380 C 
ATOM     18  O   UNL     1       0.002  -0.004   0.002  0.00  0.00    -0.241 OA
ATOM     19  O   UNL     1       1.143   1.900   0.001  0.00  0.00    -0.241 OA
ENDBRANCH  16  17
ENDBRANCH  12  15
ENDBRANCH   3  11
TORSDOF 4
