REMARK  Name = ZINC20829278
REMARK  15 active torsions:
REMARK  status: ('A' for Active; 'I' for Inactive)
REMARK    1  A    between atoms: C_1  and  C_2
REMARK    2  A    between atoms: C_2  and  O_3
REMARK    3  A    between atoms: O_3  and  C_4
REMARK    4  A    between atoms: C_7  and  N_10
REMARK    5  A    between atoms: N_10  and  C_11
REMARK    6  A    between atoms: C_11  and  C_12
REMARK    7  A    between atoms: C_15  and  S_23
REMARK    8  A    between atoms: N_16  and  C_17
REMARK    9  A    between atoms: S_23  and  C_24
REMARK   10  A    between atoms: C_24  and  C_25
REMARK   11  A    between atoms: N_27  and  C_28
REMARK   12  A    between atoms: C_30  and  C_36
REMARK   13  A    between atoms: C_30  and  C_37
REMARK   14  A    between atoms: C_32  and  C_34
REMARK   15  A    between atoms: C_32  and  C_35
REMARK                            x       y       z     vdW  Elec       q    Type
REMARK                         _______ _______ _______ _____ _____    ______ ____
ROOT
ATOM      1  C   UNL     1       0.946   3.623   0.013  0.00  0.00    +0.156 A 
ATOM      2  N   UNL     1       0.790   4.387  -1.032  0.00  0.00    -0.132 NA
ATOM      3  N   UNL     1       0.546   5.594  -0.664  0.00  0.00    -0.122 NA
ATOM      4  C   UNL     1       0.542   5.670   0.647  0.00  0.00    +0.197 A 
ATOM      5  N   UNL     1       0.798   4.413   1.121  0.00  0.00    -0.273 N 
ENDROOT
BRANCH   5   6
ATOM      6  C   UNL     1       0.889   4.016   2.463  0.00  0.00    +0.050 A 
ATOM      7  C   UNL     1      -0.043   3.133   2.992  0.00  0.00    +0.026 A 
ATOM      8  C   UNL     1       0.053   2.739   4.313  0.00  0.00    +0.002 A 
ATOM      9  C   UNL     1       1.069   3.233   5.111  0.00  0.00    +0.000 A 
ATOM     10  C   UNL     1       1.995   4.117   4.588  0.00  0.00    +0.002 A 
ATOM     11  C   UNL     1       1.907   4.510   3.267  0.00  0.00    +0.026 A 
ENDBRANCH   5   6
BRANCH   1  12
ATOM     12  C   UNL     1       1.242   2.145   0.002  0.00  0.00    +0.178 C 
BRANCH  12  13
ATOM     13  N   UNL     1      -0.017   1.395   0.010  0.00  0.00    -0.337 N 
ATOM     14  H   UNL     1      -0.977   1.932   0.022  0.00  0.00    +0.147 HD
BRANCH  13  18
ATOM     15  C   UNL     1       0.040  -2.773  -0.014  0.00  0.00    +0.121 A 
ATOM     16  C   UNL     1      -1.171  -2.096   0.002  0.00  0.00    +0.047 A 
ATOM     17  C   UNL     1      -1.191  -0.715   0.010  0.00  0.00    +0.026 A 
ATOM     18  C   UNL     1       0.002  -0.004   0.002  0.00  0.00    +0.028 A 
ATOM     19  C   UNL     1       1.214  -0.682  -0.019  0.00  0.00    +0.026 A 
ATOM     20  C   UNL     1       1.232  -2.063  -0.021  0.00  0.00    +0.047 A 
BRANCH  15  21
ATOM     21  O   UNL     1       0.058  -4.133  -0.021  0.00  0.00    -0.492 OA
BRANCH  21  23
ATOM     22  C   UNL     1       1.160  -6.283  -0.044  0.00  0.00    +0.048 C 
ATOM     23  C   UNL     1       1.340  -4.764  -0.037  0.00  0.00    +0.225 C 
ENDBRANCH  21  23
ENDBRANCH  15  21
ENDBRANCH  13  18
ENDBRANCH  12  13
ENDBRANCH   1  12
BRANCH   4  24
ATOM     24  S   UNL     1       0.261   7.117   1.611  0.00  0.00    -0.076 S 
BRANCH  24  25
ATOM     25  C   UNL     1       0.007   8.330   0.292  0.00  0.00    +0.173 C 
BRANCH  25  26
ATOM     26  C   UNL     1      -0.258   9.684   0.898  0.00  0.00    +0.224 C 
ATOM     27  O   UNL     1      -0.275   9.816   2.104  0.00  0.00    -0.275 OA
ATOM     28  N   UNL     1      -0.478  10.748   0.101  0.00  0.00    -0.312 N 
ATOM     29  H   UNL     1      -0.463  10.629  -0.993  0.00  0.00    +0.149 HD
BRANCH  28  30
ATOM     30  C   UNL     1      -0.737  12.067   0.692  0.00  0.00    +0.070 C 
ATOM     31  C   UNL     1      -2.230  12.202   0.988  0.00  0.00    +0.009 C 
ATOM     32  C   UNL     1      -2.533  13.575   1.583  0.00  0.00    -0.072 C 
ATOM     33  N   UNL     1      -1.953  14.662   0.822  0.00  0.00    +0.386 N 
ATOM     34  C   UNL     1      -0.619  14.537   0.273  0.00  0.00    -0.072 C 
ATOM     35  C   UNL     1      -0.341  13.153  -0.308  0.00  0.00    +0.009 C 
ATOM     36  C   UNL     1       0.446  14.877   1.322  0.00  0.00    -0.010 C 
ATOM     37  C   UNL     1      -0.472  15.562  -0.875  0.00  0.00    -0.010 C 
ATOM     38  C   UNL     1      -2.070  13.614   3.044  0.00  0.00    -0.010 C 
ATOM     39  C   UNL     1      -4.068  13.753   1.585  0.00  0.00    -0.010 C 
ATOM     40  H   UNL     1      -2.581  14.870  -0.057  0.00  0.00    -0.084 HD
ATOM     41  H   UNL     1      -1.895  15.561   1.452  0.00  0.00    -0.084 HD
ENDBRANCH  28  30
ENDBRANCH  25  26
ENDBRANCH  24  25
ENDBRANCH   4  24
TORSDOF 10
