REMARK  Name = ZINC63695045
REMARK  6 active torsions:
REMARK  status: ('A' for Active; 'I' for Inactive)
REMARK    1  A    between atoms: C_1  and  O_2
REMARK    2  A    between atoms: O_2  and  C_3
REMARK    3  A    between atoms: C_9  and  C_12
REMARK    4  A    between atoms: C_12  and  C_13
REMARK    5  A    between atoms: C_13  and  N_14
REMARK    6  A    between atoms: C_15  and  C_17
REMARK                            x       y       z     vdW  Elec       q    Type
REMARK                         _______ _______ _______ _____ _____    ______ ____
ROOT
ATOM      1  N   UNL     1      -0.759  -6.798   1.434  0.00  0.00    -0.315 N 
ATOM      2  C   UNL     1      -0.408  -7.389   2.593  0.00  0.00    +0.216 C 
ATOM      3  O   UNL     1      -0.851  -6.975   3.644  0.00  0.00    -0.276 OA
ATOM      4  H   UNL     1      -0.405  -7.128   0.594  0.00  0.00    +0.149 HD
ENDROOT
BRANCH   2   5
ATOM      5  C   UNL     1       0.535  -8.564   2.584  0.00  0.00    +0.078 C 
ATOM      6  C   UNL     1      -0.074  -9.700   1.758  0.00  0.00    +0.032 C 
ATOM      7  C   UNL     1       0.902 -10.880   1.722  0.00  0.00    +0.108 C 
ATOM      8  N   UNL     1       1.244 -11.253   3.101  0.00  0.00    -0.303 N 
ATOM      9  C   UNL     1       1.752 -10.216   4.009  0.00  0.00    +0.108 C 
ATOM     10  C   UNL     1       0.766  -9.043   4.019  0.00  0.00    +0.032 C 
ATOM     11  C   UNL     1       1.089 -12.549   3.535  0.00  0.00    +0.174 A 
ATOM     12  N   UNL     1       1.275 -12.961   4.787  0.00  0.00    -0.327 N 
ATOM     13  H   UNL     1       1.538 -12.402   5.535  0.00  0.00    +0.169 HD
ATOM     14  C   UNL     1       1.030 -14.308   4.841  0.00  0.00    +0.065 A 
ATOM     15  C   UNL     1       1.065 -15.254   5.862  0.00  0.00    +0.028 A 
ATOM     16  C   UNL     1       0.758 -16.569   5.588  0.00  0.00    +0.002 A 
ATOM     17  C   UNL     1       0.413 -16.958   4.302  0.00  0.00    +0.002 A 
ATOM     18  C   UNL     1       0.373 -16.035   3.280  0.00  0.00    +0.028 A 
ATOM     19  C   UNL     1       0.681 -14.702   3.538  0.00  0.00    +0.065 A 
ATOM     20  N   UNL     1       0.727 -13.572   2.765  0.00  0.00    -0.327 N 
ATOM     21  H   UNL     1       0.532 -13.527   1.816  0.00  0.00    +0.169 HD
ENDBRANCH   2   5
BRANCH   1  22
ATOM     22  C   UNL     1      -1.676  -5.655   1.443  0.00  0.00    +0.108 C 
BRANCH  22  23
ATOM     23  C   UNL     1      -1.908  -5.176   0.009  0.00  0.00    +0.052 C 
BRANCH  23  30
ATOM     24  C   UNL     1      -1.200  -0.637   0.010  0.00  0.00    +0.121 A 
ATOM     25  C   UNL     1      -2.375   0.135   0.020  0.00  0.00    +0.047 A 
ATOM     26  C   UNL     1      -3.607  -0.415   0.028  0.00  0.00    +0.029 A 
ATOM     27  C   UNL     1      -3.753  -1.875   0.027  0.00  0.00    +0.043 A 
ATOM     28  N   UNL     1      -4.809  -2.650   0.034  0.00  0.00    -0.380 N 
ATOM     29  C   UNL     1      -4.362  -4.047   0.029  0.00  0.00    +0.144 C 
ATOM     30  C   UNL     1      -2.851  -4.000   0.018  0.00  0.00    -0.040 C 
ATOM     31  C   UNL     1      -2.516  -2.690   0.016  0.00  0.00    +0.002 A 
ATOM     32  C   UNL     1      -1.226  -1.992   0.003  0.00  0.00    +0.055 A 
ATOM     33  H   UNL     1      -5.731  -2.350   0.042  0.00  0.00    +0.160 HD
BRANCH  24  35
ATOM     34  C   UNL     1      -0.017   1.425   0.010  0.00  0.00    +0.277 C 
ATOM     35  O   UNL     1       0.002  -0.004   0.002  0.00  0.00    -0.495 OA
ENDBRANCH  24  35
ENDBRANCH  23  30
ENDBRANCH  22  23
ENDBRANCH   1  22
TORSDOF 5
