REMARK  Name = ZINC04697179
REMARK  1 active torsions:
REMARK  status: ('A' for Active; 'I' for Inactive)
REMARK    1  A    between atoms: N_20  and  C_23
REMARK                            x       y       z     vdW  Elec       q    Type
REMARK                         _______ _______ _______ _____ _____    ______ ____
ROOT
ATOM      1  C   UNL     1       1.172   1.795   0.001  0.00  0.00    +0.000 A 
ATOM      2  C   UNL     1       1.167   3.178   0.007  0.00  0.00    +0.000 A 
ATOM      3  C   UNL     1      -0.041   3.866   0.056  0.00  0.00    +0.004 A 
ATOM      4  C   UNL     1      -1.191   3.146   0.097  0.00  0.00    -0.033 A 
ATOM      5  C   UNL     1      -1.207   1.757   0.017  0.00  0.00    -0.039 A 
ATOM      6  C   UNL     1      -0.013   1.076   0.008  0.00  0.00    +0.004 A 
ATOM      7  C   UNL     1      -2.547   1.048  -0.152  0.00  0.00    +0.039 C 
ATOM      8  C   UNL     1      -3.131   1.829  -1.399  0.00  0.00    +0.084 C 
ATOM      9  C   UNL     1      -3.338   3.258  -0.915  0.00  0.00    +0.142 C 
ATOM     10  O   UNL     1      -4.071   4.006  -1.516  0.00  0.00    -0.297 OA
ATOM     11  C   UNL     1      -2.594   3.736   0.339  0.00  0.00    +0.098 C 
ATOM     12  C   UNL     1      -2.981   2.835   1.507  0.00  0.00    +0.103 C 
ATOM     13  C   UNL     1      -3.548   1.528   0.894  0.00  0.00    +0.097 C 
ATOM     14  C   UNL     1      -3.824   0.798   2.163  0.00  0.00    +0.231 C 
ATOM     15  O   UNL     1      -3.718  -0.391   2.373  0.00  0.00    -0.274 OA
ATOM     16  N   UNL     1      -4.226   1.773   3.041  0.00  0.00    -0.208 N 
ATOM     17  C   UNL     1      -3.930   3.043   2.607  0.00  0.00    +0.231 C 
ATOM     18  O   UNL     1      -4.355   4.095   3.034  0.00  0.00    -0.274 OA
ENDROOT
BRANCH  16  19
ATOM     19  C   UNL     1      -4.872   1.502   4.255  0.00  0.00    +0.062 A 
ATOM     20  C   UNL     1      -4.129   1.308   5.411  0.00  0.00    +0.025 A 
ATOM     21  C   UNL     1      -4.768   1.041   6.606  0.00  0.00    +0.002 A 
ATOM     22  C   UNL     1      -6.148   0.966   6.652  0.00  0.00    +0.002 A 
ATOM     23  C   UNL     1      -6.893   1.159   5.503  0.00  0.00    +0.022 A 
ATOM     24  C   UNL     1      -6.259   1.432   4.305  0.00  0.00    +0.063 A 
ATOM     25 CL   UNL     1      -7.194   1.681   2.864  0.00  0.00    -0.082 Cl
ENDBRANCH  16  19
TORSDOF 1
