REMARK  Name = ZINC67416023
REMARK  9 active torsions:
REMARK  status: ('A' for Active; 'I' for Inactive)
REMARK    1  A    between atoms: C_1  and  C_2
REMARK    2  A    between atoms: C_2  and  C_3
REMARK    3  A    between atoms: C_3  and  C_4
REMARK    4  A    between atoms: C_4  and  N_5
REMARK    5  A    between atoms: C_9  and  C_11
REMARK    6  A    between atoms: C_11  and  N_12
REMARK    7  A    between atoms: C_16  and  C_19
REMARK    8  A    between atoms: C_19  and  N_20
REMARK    9  A    between atoms: C_21  and  C_23
REMARK                            x       y       z     vdW  Elec       q    Type
REMARK                         _______ _______ _______ _____ _____    ______ ____
ROOT
ATOM      1  C   UNL     1       3.039  -6.065  -5.263  0.00  0.00    +0.019 C 
ENDROOT
BRANCH   1   6
ATOM      2  N   UNL     1       1.425  -2.500  -2.470  0.00  0.00    -0.299 N 
ATOM      3  C   UNL     1       1.564  -3.822  -2.692  0.00  0.00    +0.306 C 
ATOM      4  O   UNL     1       1.120  -4.622  -1.892  0.00  0.00    -0.252 OA
ATOM      5  N   UNL     1       2.195  -4.256  -3.801  0.00  0.00    -0.242 N 
ATOM      6  C   UNL     1       2.334  -5.579  -4.023  0.00  0.00    +0.204 C 
ATOM      7  O   UNL     1       1.891  -6.377  -3.225  0.00  0.00    -0.277 OA
ATOM      8  H   UNL     1       1.779  -1.861  -3.109  0.00  0.00    +0.150 HD
ATOM      9  H   UNL     1       2.549  -3.618  -4.440  0.00  0.00    +0.159 HD
BRANCH   2  10
ATOM     10  C   UNL     1       0.739  -2.027  -1.265  0.00  0.00    +0.106 C 
BRANCH  10  11
ATOM     11  C   UNL     1       0.718  -0.497  -1.257  0.00  0.00    +0.018 C 
BRANCH  11  13
ATOM     12  C   UNL     1      -0.019   1.526   0.010  0.00  0.00    +0.004 C 
ATOM     13  C   UNL     1       0.002  -0.004   0.002  0.00  0.00    -0.002 C 
ENDBRANCH  11  13
ENDBRANCH  10  11
ENDBRANCH   2  10
ENDBRANCH   1   6
BRANCH   1  14
ATOM     14  N   UNL     1       3.059  -7.534  -5.271  0.00  0.00    +0.386 N 
ATOM     15  C   UNL     1       3.863  -8.017  -4.142  0.00  0.00    -0.078 C 
ATOM     16  C   UNL     1       3.821  -9.546  -4.098  0.00  0.00    -0.018 C 
ATOM     17  C   UNL     1       4.387 -10.104  -5.406  0.00  0.00    +0.001 C 
ATOM     18  C   UNL     1       3.587  -9.535  -6.582  0.00  0.00    -0.011 C 
ATOM     19  C   UNL     1       3.639  -8.007  -6.534  0.00  0.00    -0.073 C 
ATOM     20  H   UNL     1       2.116  -7.882  -5.183  0.00  0.00    -0.081 HD
BRANCH  18  21
ATOM     21  C   UNL     1       4.194 -10.026  -7.898  0.00  0.00    +0.105 C 
BRANCH  21  22
ATOM     22  N   UNL     1       4.041 -11.480  -7.993  0.00  0.00    -0.315 N 
ATOM     23  C   UNL     1       4.504 -12.137  -9.075  0.00  0.00    +0.210 C 
ATOM     24  O   UNL     1       5.048 -11.524  -9.970  0.00  0.00    -0.276 OA
ATOM     25  C   UNL     1       4.347 -13.632  -9.174  0.00  0.00    +0.109 C 
ATOM     26  H   UNL     1       3.606 -11.970  -7.278  0.00  0.00    +0.149 HD
ENDBRANCH  21  22
ENDBRANCH  18  21
ENDBRANCH   1  14
TORSDOF 7
