REMARK  Name = ZINC35227196
REMARK  5 active torsions:
REMARK  status: ('A' for Active; 'I' for Inactive)
REMARK    1  A    between atoms: N_9  and  C_11
REMARK    2  A    between atoms: C_14  and  N_25
REMARK    3  A    between atoms: C_16  and  C_17
REMARK    4  A    between atoms: C_26  and  C_28
REMARK    5  A    between atoms: C_31  and  N_35
REMARK                            x       y       z     vdW  Elec       q    Type
REMARK                         _______ _______ _______ _____ _____    ______ ____
ROOT
ATOM      1  C   UNL     1       4.394  -2.768   1.194  0.00  0.00    +0.042 A 
ATOM      2  C   UNL     1       5.609  -3.283   0.759  0.00  0.00    +0.026 A 
ATOM      3  C   UNL     1       6.400  -4.012   1.621  0.00  0.00    +0.025 A 
ATOM      4  C   UNL     1       5.989  -4.237   2.932  0.00  0.00    +0.035 A 
ATOM      5  C   UNL     1       4.782  -3.731   3.380  0.00  0.00    +0.038 A 
ATOM      6  C   UNL     1       3.976  -2.986   2.515  0.00  0.00    +0.060 A 
ENDROOT
BRANCH   1  15
ATOM      7  C   UNL     1      -0.062   1.374   0.153  0.00  0.00    +0.000 A 
ATOM      8  C   UNL     1       1.103   2.102   0.305  0.00  0.00    +0.000 A 
ATOM      9  C   UNL     1       2.319   1.450   0.320  0.00  0.00    +0.005 A 
ATOM     10  C   UNL     1       2.380   0.069   0.188  0.00  0.00    -0.027 A 
ATOM     11  C   UNL     1       1.220  -0.658   0.047  0.00  0.00    -0.041 A 
ATOM     12  C   UNL     1      -0.003   0.002   0.024  0.00  0.00    +0.004 A 
ATOM     13  C   UNL     1       1.205  -2.159  -0.071  0.00  0.00    +0.054 C 
ATOM     14  C   UNL     1       2.571  -2.683  -0.511  0.00  0.00    +0.110 C 
ATOM     15  N   UNL     1       3.596  -2.033   0.323  0.00  0.00    -0.325 N 
ATOM     16  C   UNL     1       3.742  -0.579   0.198  0.00  0.00    +0.140 C 
ENDBRANCH   1  15
BRANCH   6  17
ATOM     17  C   UNL     1       2.691  -2.439   2.987  0.00  0.00    +0.248 C 
ATOM     18  O   UNL     1       2.450  -1.255   2.854  0.00  0.00    -0.270 OA
ATOM     19  N   UNL     1       1.784  -3.251   3.565  0.00  0.00    -0.297 N 
ATOM     20  C   UNL     1       2.012  -4.701   3.631  0.00  0.00    +0.108 C 
ATOM     21  C   UNL     1       1.875  -5.156   5.087  0.00  0.00    +0.019 C 
ATOM     22  C   UNL     1       0.516  -4.708   5.631  0.00  0.00    +0.003 C 
ATOM     23  C   UNL     1       0.428  -3.181   5.592  0.00  0.00    +0.019 C 
ATOM     24  C   UNL     1       0.552  -2.703   4.147  0.00  0.00    +0.108 C 
ENDBRANCH   6  17
BRANCH   4  25
ATOM     25  N   UNL     1       6.801  -4.979   3.800  0.00  0.00    -0.281 N 
ATOM     26  C   UNL     1       6.869  -4.651   5.105  0.00  0.00    +0.250 C 
ATOM     27  O   UNL     1       6.163  -3.765   5.547  0.00  0.00    -0.270 OA
ATOM     28  H   UNL     1       7.314  -5.730   3.462  0.00  0.00    +0.155 HD
BRANCH  26  29
ATOM     29  C   UNL     1       7.802  -5.366   6.000  0.00  0.00    +0.055 A 
ATOM     30  C   UNL     1       8.619  -6.380   5.495  0.00  0.00    +0.017 A 
ATOM     31  C   UNL     1       9.487  -7.044   6.335  0.00  0.00    +0.033 A 
ATOM     32  C   UNL     1       9.551  -6.709   7.677  0.00  0.00    +0.128 A 
ATOM     33  C   UNL     1       8.745  -5.706   8.185  0.00  0.00    +0.053 A 
ATOM     34  C   UNL     1       7.875  -5.028   7.353  0.00  0.00    +0.055 A 
ATOM     35 CL   UNL     1       6.870  -3.764   7.990  0.00  0.00    -0.083 Cl
BRANCH  32  36
ATOM     36  N   UNL     1      10.486  -7.427   8.572  0.00  0.00    +0.056 N 
ATOM     37  O   UNL     1      11.191  -8.304   8.131  0.00  0.00    -0.126 OA
ATOM     38  O   UNL     1      10.544  -7.136   9.744  0.00  0.00    -0.126 OA
ENDBRANCH  32  36
ENDBRANCH  26  29
ENDBRANCH   4  25
TORSDOF 5
