REMARK  Name = ZINC04453521
REMARK  10 active torsions:
REMARK  status: ('A' for Active; 'I' for Inactive)
REMARK    1  A    between atoms: C_1  and  C_2
REMARK    2  A    between atoms: C_2  and  C_3
REMARK    3  A    between atoms: C_3  and  N_55
REMARK    4  A    between atoms: C_10  and  C_22
REMARK    5  A    between atoms: C_12  and  C_18
REMARK    6  A    between atoms: C_12  and  C_20
REMARK    7  A    between atoms: C_14  and  C_15
REMARK    8  A    between atoms: C_25  and  O_28
REMARK    9  A    between atoms: O_28  and  C_29
REMARK   10  A    between atoms: C_29  and  C_30
REMARK                            x       y       z     vdW  Elec       q    Type
REMARK                         _______ _______ _______ _____ _____    ______ ____
ROOT
ATOM      1  C   UNL     1       0.119   3.080   3.741  0.00  0.00    -0.051 C 
ATOM      2  C   UNL     1       0.415   3.948   2.543  0.00  0.00    -0.044 C 
ATOM      3  C   UNL     1      -0.296   3.815   1.454  0.00  0.00    -0.051 C 
ATOM      4  C   UNL     1      -1.474   2.892   1.329  0.00  0.00    +0.010 C 
ATOM      5  C   UNL     1      -1.637   1.971   2.518  0.00  0.00    -0.070 C 
ATOM      6  C   UNL     1      -1.332   2.113   0.020  0.00  0.00    +0.064 C 
ATOM      7  C   UNL     1      -1.380   3.094  -1.152  0.00  0.00    +0.188 C 
ATOM      8  C   UNL     1      -0.418   4.231  -0.960  0.00  0.00    +0.065 C 
ATOM      9  C   UNL     1       0.088   4.589   0.247  0.00  0.00    +0.163 C 
ATOM     10  N   UNL     1      -0.033   4.943  -2.061  0.00  0.00    -0.304 NA
ATOM     11  H   UNL     1       0.588   5.683  -1.967  0.00  0.00    +0.186 HD
ATOM     12  N   UNL     1      -0.361   1.781   3.226  0.00  0.00    +0.382 N 
ATOM     13  H   UNL     1       0.333   1.401   2.572  0.00  0.00    -0.081 HD
ENDROOT
BRANCH   6  14
ATOM     14  C   UNL     1      -0.016   1.379   0.010  0.00  0.00    -0.041 A 
ATOM     15  C   UNL     1       1.104   1.978  -0.536  0.00  0.00    +0.007 A 
ATOM     16  C   UNL     1       2.311   1.305  -0.552  0.00  0.00    +0.046 A 
ATOM     17  C   UNL     1       2.398   0.027  -0.018  0.00  0.00    +0.121 A 
ATOM     18  C   UNL     1       1.272  -0.572   0.530  0.00  0.00    +0.046 A 
ATOM     19  C   UNL     1       0.068   0.105   0.542  0.00  0.00    +0.007 A 
BRANCH  17  20
ATOM     20  O   UNL     1       3.583  -0.637  -0.032  0.00  0.00    -0.483 OA
BRANCH  20  21
ATOM     21  C   UNL     1       4.700   0.041  -0.612  0.00  0.00    +0.324 C 
BRANCH  21  22
ATOM     22  C   UNL     1       5.918  -0.844  -0.538  0.00  0.00    +0.248 C 
ATOM     23  O   UNL     1       5.838  -1.946  -0.038  0.00  0.00    -0.272 OA
ATOM     24  N   UNL     1       7.096  -0.410  -1.028  0.00  0.00    -0.327 N 
ATOM     25  H   UNL     1       7.160   0.472  -1.428  0.00  0.00    +0.145 HD
ATOM     26  H   UNL     1       7.880  -0.979  -0.981  0.00  0.00    +0.145 HD
ENDBRANCH  21  22
ENDBRANCH  20  21
ENDBRANCH  17  20
ENDBRANCH   6  14
BRANCH   9  27
ATOM     27  C   UNL     1       0.983   5.701   0.355  0.00  0.00    +0.076 C 
ATOM     28  N   UNL     1       1.694   6.584   0.442  0.00  0.00    -0.196 NA
ENDBRANCH   9  27
BRANCH   7  29
ATOM     29  C   UNL     1      -1.041   2.378  -2.392  0.00  0.00    +0.091 C 
ATOM     30  N   UNL     1      -0.779   1.825  -3.349  0.00  0.00    -0.195 NA
ENDBRANCH   7  29
BRANCH   7  31
ATOM     31  C   UNL     1      -2.744   3.635  -1.270  0.00  0.00    +0.091 C 
ATOM     32  N   UNL     1      -3.797   4.052  -1.361  0.00  0.00    -0.195 NA
ENDBRANCH   7  31
BRANCH  12  33
ATOM     33  C   UNL     1      -0.541   0.826   4.345  0.00  0.00    -0.079 C 
BRANCH  33  35
ATOM     34  C   UNL     1       0.660  -0.530   6.065  0.00  0.00    +0.002 C 
ATOM     35  C   UNL     1       0.831   0.468   4.918  0.00  0.00    -0.022 C 
ENDBRANCH  33  35
ENDBRANCH  12  33
TORSDOF 9
