REMARK  Name = ZINC19796305
REMARK  10 active torsions:
REMARK  status: ('A' for Active; 'I' for Inactive)
REMARK    1  A    between atoms: C_1  and  C_2
REMARK    2  A    between atoms: C_2  and  N_3
REMARK    3  A    between atoms: N_3  and  C_4
REMARK    4  A    between atoms: N_3  and  C_6
REMARK    5  A    between atoms: C_4  and  C_5
REMARK    6  A    between atoms: C_9  and  C_12
REMARK    7  A    between atoms: C_12  and  C_14
REMARK    8  A    between atoms: C_12  and  N_16
REMARK    9  A    between atoms: C_14  and  N_15
REMARK   10  A    between atoms: N_19  and  C_22
REMARK                            x       y       z     vdW  Elec       q    Type
REMARK                         _______ _______ _______ _____ _____    ______ ____
ROOT
ATOM      1  C   UNL     1      -0.898   3.049  -1.008  0.00  0.00    +0.069 C 
ENDROOT
BRANCH   1   5
ATOM      2  C   UNL     1      -3.080   4.598  -4.341  0.00  0.00    +0.030 A 
ATOM      3  C   UNL     1      -3.675   4.537  -3.087  0.00  0.00    +0.023 A 
ATOM      4  C   UNL     1      -2.967   4.035  -2.013  0.00  0.00    +0.007 A 
ATOM      5  C   UNL     1      -1.667   3.595  -2.183  0.00  0.00    -0.032 A 
ATOM      6  C   UNL     1      -1.070   3.661  -3.429  0.00  0.00    +0.007 A 
ATOM      7  C   UNL     1      -1.774   4.155  -4.509  0.00  0.00    +0.023 A 
BRANCH   2   8
ATOM      8  N   UNL     1      -3.792   5.105  -5.430  0.00  0.00    -0.330 N 
BRANCH   8  10
ATOM      9  C   UNL     1      -3.432   3.867  -7.508  0.00  0.00    +0.024 C 
ATOM     10  C   UNL     1      -3.163   5.169  -6.752  0.00  0.00    +0.102 C 
ENDBRANCH   8  10
BRANCH   8  11
ATOM     11  C   UNL     1      -5.170   5.572  -5.251  0.00  0.00    +0.102 C 
ATOM     12  C   UNL     1      -5.161   7.059  -4.892  0.00  0.00    +0.024 C 
ENDBRANCH   8  11
ENDBRANCH   2   8
ENDBRANCH   1   5
BRANCH   1  13
ATOM     13  N   UNL     1       0.462   3.605  -1.012  0.00  0.00    -0.294 NA
ATOM     14  C   UNL     1       1.381   2.744  -1.770  0.00  0.00    +0.104 C 
ATOM     15  C   UNL     1       2.764   3.396  -1.818  0.00  0.00    +0.120 C 
ATOM     16  N   UNL     1       3.252   3.604  -0.448  0.00  0.00    -0.327 N 
ATOM     17  C   UNL     1       2.334   4.465   0.310  0.00  0.00    +0.120 C 
ATOM     18  C   UNL     1       0.950   3.813   0.358  0.00  0.00    +0.104 C 
BRANCH  16  19
ATOM     19  C   UNL     1       4.545   4.132  -0.452  0.00  0.00    +0.030 A 
ATOM     20  C   UNL     1       4.811   5.327   0.205  0.00  0.00    +0.023 A 
ATOM     21  C   UNL     1       6.092   5.844   0.203  0.00  0.00    +0.002 A 
ATOM     22  C   UNL     1       7.107   5.179  -0.460  0.00  0.00    +0.000 A 
ATOM     23  C   UNL     1       6.845   3.992  -1.119  0.00  0.00    +0.002 A 
ATOM     24  C   UNL     1       5.567   3.466  -1.116  0.00  0.00    +0.023 A 
ENDBRANCH  16  19
ENDBRANCH   1  13
BRANCH   1  25
ATOM     25  C   UNL     1      -0.826   1.524  -1.110  0.00  0.00    -0.063 C 
BRANCH  25  26
ATOM     26  N   UNL     1      -0.137   0.987   0.071  0.00  0.00    +0.379 N 
ATOM     27  H   UNL     1      -0.086  -0.110  -0.002  0.00  0.00    -0.090 HD
ATOM     28  H   UNL     1      -0.692   1.268   0.979  0.00  0.00    -0.090 HD
ATOM     29  H   UNL     1       0.881   1.399   0.121  0.00  0.00    -0.090 HD
ENDBRANCH  25  26
ENDBRANCH   1  25
TORSDOF 8
