REMARK  Name = ZINC66389372
REMARK  12 active torsions:
REMARK  status: ('A' for Active; 'I' for Inactive)
REMARK    1  A    between atoms: C_1  and  C_2
REMARK    2  A    between atoms: C_2  and  C_3
REMARK    3  A    between atoms: C_2  and  C_4
REMARK    4  A    between atoms: C_4  and  C_6
REMARK    5  A    between atoms: C_4  and  N_13
REMARK    6  A    between atoms: N_8  and  C_9
REMARK    7  A    between atoms: C_9  and  C_10
REMARK    8  A    between atoms: C_9  and  C_11
REMARK    9  A    between atoms: C_9  and  C_12
REMARK   10  A    between atoms: N_13  and  C_14
REMARK   11  A    between atoms: C_14  and  C_15
REMARK   12  A    between atoms: C_15  and  C_21
REMARK                            x       y       z     vdW  Elec       q    Type
REMARK                         _______ _______ _______ _____ _____    ______ ____
ROOT
ATOM      1  N   UNL     1      -2.231  -0.230  -1.172  0.00  0.00    +0.387 N 
ATOM      2  H   UNL     1      -1.901  -0.498  -2.087  0.00  0.00    -0.085 HD
ATOM      3  H   UNL     1      -3.122  -0.669  -0.995  0.00  0.00    -0.085 HD
ENDROOT
BRANCH   1   4
ATOM      4  C   UNL     1      -1.262  -0.661  -0.156  0.00  0.00    +0.019 C 
BRANCH   4   5
ATOM      5  C   UNL     1      -1.222  -2.166  -0.106  0.00  0.00    +0.200 C 
ATOM      6  O   UNL     1      -1.809  -2.817  -0.945  0.00  0.00    -0.278 OA
ATOM      7  N   UNL     1      -0.535  -2.790   0.872  0.00  0.00    -0.312 N 
ATOM      8  H   UNL     1      -0.116  -2.272   1.576  0.00  0.00    +0.149 HD
BRANCH   7   9
ATOM      9  C   UNL     1      -0.421  -4.250   0.869  0.00  0.00    +0.026 C 
ATOM     10  C   UNL     1       0.271  -4.706  -0.417  0.00  0.00    +0.031 C 
ATOM     11  C   UNL     1       0.404  -4.699   2.078  0.00  0.00    +0.031 C 
ATOM     12  C   UNL     1      -1.817  -4.871   0.946  0.00  0.00    +0.031 C 
ENDBRANCH   7   9
ENDBRANCH   4   5
BRANCH   4  14
ATOM     13  C   UNL     1       1.102  -0.433   0.621  0.00  0.00    +0.006 C 
ATOM     14  C   UNL     1       0.126  -0.126  -0.516  0.00  0.00    -0.023 C 
ATOM     15  C   UNL     1       0.613  -0.797  -1.802  0.00  0.00    +0.006 C 
ENDBRANCH   4  14
ENDBRANCH   1   4
BRANCH   1  16
ATOM     16  C   UNL     1      -2.385   1.230  -1.115  0.00  0.00    -0.070 C 
BRANCH  16  17
ATOM     17  C   UNL     1      -3.492   1.664  -2.078  0.00  0.00    -0.015 C 
ATOM     18  C   UNL     1      -3.188   1.130  -3.481  0.00  0.00    +0.038 C 
ATOM     19  C   UNL     1      -1.882   1.750  -3.983  0.00  0.00    +0.160 C 
ATOM     20  O   UNL     1      -1.998   3.175  -3.976  0.00  0.00    -0.380 OA
ATOM     21  C   UNL     1      -2.235   3.734  -2.683  0.00  0.00    +0.160 C 
ATOM     22  C   UNL     1      -3.556   3.194  -2.128  0.00  0.00    +0.038 C 
BRANCH  17  23
ATOM     23  C   UNL     1      -4.815   1.120  -1.605  0.00  0.00    -0.041 A 
ATOM     24  C   UNL     1      -4.905   0.497  -0.373  0.00  0.00    +0.004 A 
ATOM     25  C   UNL     1      -6.118  -0.003   0.061  0.00  0.00    +0.002 A 
ATOM     26  C   UNL     1      -7.242   0.119  -0.735  0.00  0.00    +0.020 A 
ATOM     27  C   UNL     1      -7.152   0.742  -1.967  0.00  0.00    +0.041 A 
ATOM     28  C   UNL     1      -5.938   1.247  -2.399  0.00  0.00    +0.024 A 
ATOM     29 CL   UNL     1      -8.562   0.895  -2.967  0.00  0.00    -0.084 Cl
ENDBRANCH  17  23
ENDBRANCH  16  17
ENDBRANCH   1  16
TORSDOF 7
