REMARK  Name = ZINC63847592
REMARK  9 active torsions:
REMARK  status: ('A' for Active; 'I' for Inactive)
REMARK    1  A    between atoms: C_1  and  C_2
REMARK    2  A    between atoms: C_5  and  S_8
REMARK    3  A    between atoms: S_8  and  C_9
REMARK    4  A    between atoms: C_9  and  C_10
REMARK    5  A    between atoms: C_10  and  C_11
REMARK    6  A    between atoms: C_11  and  N_12
REMARK    7  A    between atoms: N_12  and  C_13
REMARK    8  A    between atoms: C_13  and  C_14
REMARK    9  A    between atoms: C_19  and  C_20
REMARK                            x       y       z     vdW  Elec       q    Type
REMARK                         _______ _______ _______ _____ _____    ______ ____
ROOT
ATOM      1  N   UNL     1      -6.569  -2.946   0.860  0.00  0.00    +0.380 N 
ATOM      2  H   UNL     1      -6.664  -3.721   0.222  0.00  0.00    -0.086 HD
ATOM      3  H   UNL     1      -6.586  -3.288   1.809  0.00  0.00    -0.086 HD
ENDROOT
BRANCH   1   4
ATOM      4  C   UNL     1      -5.294  -2.259   0.610  0.00  0.00    -0.082 C 
BRANCH   4   5
ATOM      5  C   UNL     1      -4.138  -3.239   0.820  0.00  0.00    -0.008 C 
BRANCH   5   6
ATOM      6  C   UNL     1      -2.810  -2.524   0.559  0.00  0.00    +0.070 C 
BRANCH   6   7
ATOM      7  S   UNL     1      -1.439  -3.685   0.808  0.00  0.00    -0.126 S 
BRANCH   7  12
ATOM      8  C   UNL     1      -0.018   1.503   0.010  0.00  0.00    +0.075 C 
ATOM      9  C   UNL     1       0.002  -0.004   0.002  0.00  0.00    +0.091 C 
ATOM     10  N   UNL     1       0.009  -0.793  -1.019  0.00  0.00    -0.183 NA
ATOM     11  N   UNL     1       0.029  -2.167  -0.918  0.00  0.00    -0.245 N 
ATOM     12  C   UNL     1       0.042  -2.695   0.465  0.00  0.00    +0.210 C 
ATOM     13  S   UNL     1       0.030  -1.111   1.403  0.00  0.00    -0.074 S 
ATOM     14  H   UNL     1       0.033  -2.745  -1.696  0.00  0.00    +0.170 HD
ENDBRANCH   7  12
ENDBRANCH   6   7
ENDBRANCH   5   6
ENDBRANCH   4   5
ENDBRANCH   1   4
BRANCH   1  15
ATOM     15  C   UNL     1      -7.679  -2.005   0.658  0.00  0.00    -0.067 C 
BRANCH  15  16
ATOM     16  C   UNL     1      -9.007  -2.720   0.919  0.00  0.00    +0.066 C 
ATOM     17  C   UNL     1      -9.151  -3.058   2.389  0.00  0.00    +0.115 C 
ATOM     18  N   UNL     1     -10.198  -2.421   2.803  0.00  0.00    -0.161 NA
ATOM     19  N   UNL     1     -10.802  -1.677   1.795  0.00  0.00    -0.153 NA
ATOM     20  C   UNL     1     -10.175  -1.791   0.652  0.00  0.00    +0.077 C 
BRANCH  20  21
ATOM     21  C   UNL     1     -10.526  -1.152  -0.625  0.00  0.00    -0.001 A 
ATOM     22  C   UNL     1      -9.747  -1.383  -1.764  0.00  0.00    +0.012 A 
ATOM     23  C   UNL     1     -10.082  -0.781  -2.957  0.00  0.00    +0.039 A 
ATOM     24  C   UNL     1     -11.189   0.052  -3.031  0.00  0.00    +0.123 A 
ATOM     25  C   UNL     1     -11.965   0.285  -1.906  0.00  0.00    +0.039 A 
ATOM     26  C   UNL     1     -11.644  -0.315  -0.707  0.00  0.00    +0.012 A 
ATOM     27  F   UNL     1     -11.512   0.639  -4.204  0.00  0.00    -0.205 F 
ENDBRANCH  20  21
ENDBRANCH  15  16
ENDBRANCH   1  15
TORSDOF 8
