REMARK  Name = ZINC04520002
REMARK  5 active torsions:
REMARK  status: ('A' for Active; 'I' for Inactive)
REMARK    1  A    between atoms: C_3  and  O_16
REMARK    2  A    between atoms: C_6  and  N_7
REMARK    3  A    between atoms: C_8  and  C_10
REMARK    4  A    between atoms: O_16  and  C_17
REMARK    5  A    between atoms: C_17  and  C_18
REMARK                            x       y       z     vdW  Elec       q    Type
REMARK                         _______ _______ _______ _____ _____    ______ ____
ROOT
ATOM      1  C   UNL     1      -5.053   0.463   0.207  0.00  0.00    +0.027 A 
ATOM      2  C   UNL     1      -6.344  -0.017   0.304  0.00  0.00    +0.047 A 
ATOM      3  C   UNL     1      -7.414   0.866   0.307  0.00  0.00    +0.121 A 
ATOM      4  C   UNL     1      -7.188   2.232   0.218  0.00  0.00    +0.047 A 
ATOM      5  C   UNL     1      -5.897   2.713   0.126  0.00  0.00    +0.027 A 
ATOM      6  C   UNL     1      -4.825   1.830   0.123  0.00  0.00    +0.034 A 
ENDROOT
BRANCH   6   7
ATOM      7  N   UNL     1      -3.516   2.318   0.029  0.00  0.00    -0.279 N 
ATOM      8  C   UNL     1      -3.188   3.485   0.619  0.00  0.00    +0.284 C 
ATOM      9  O   UNL     1      -4.047   4.156   1.161  0.00  0.00    -0.266 OA
ATOM     10  H   UNL     1      -2.845   1.817  -0.460  0.00  0.00    +0.155 HD
BRANCH   8  11
ATOM     11  C   UNL     1      -1.797   3.945   0.608  0.00  0.00    +0.191 A 
ATOM     12  C   UNL     1      -1.330   5.102   1.166  0.00  0.00    +0.056 A 
ATOM     13  C   UNL     1       0.051   5.137   0.925  0.00  0.00    +0.058 A 
ATOM     14  C   UNL     1       0.364   4.017   0.234  0.00  0.00    +0.171 A 
ATOM     15  O   UNL     1      -0.753   3.303   0.043  0.00  0.00    -0.444 OA
ATOM     16 BR   UNL     1       2.093   3.537  -0.363  0.00  0.00    -0.008 Br
ENDBRANCH   8  11
ENDBRANCH   6   7
BRANCH   3  17
ATOM     17  O   UNL     1      -8.685   0.392   0.398  0.00  0.00    -0.481 OA
BRANCH  17  18
ATOM     18  C   UNL     1      -8.845  -1.025   0.487  0.00  0.00    +0.353 C 
BRANCH  18  19
ATOM     19  C   UNL     1     -10.311  -1.361   0.580  0.00  0.00    +0.393 C 
ATOM     20  O   UNL     1     -11.135  -0.477   0.571  0.00  0.00    -0.243 OA
ATOM     21  O   UNL     1     -10.702  -2.642   0.672  0.00  0.00    -0.243 OA
ENDBRANCH  18  19
ENDBRANCH  17  18
ENDBRANCH   3  17
TORSDOF 5
