REMARK  Name = ZINC45302740
REMARK  9 active torsions:
REMARK  status: ('A' for Active; 'I' for Inactive)
REMARK    1  A    between atoms: C_1  and  O_2
REMARK    2  A    between atoms: O_2  and  C_3
REMARK    3  A    between atoms: C_9  and  N_13
REMARK    4  A    between atoms: C_16  and  N_19
REMARK    5  A    between atoms: N_19  and  C_20
REMARK    6  A    between atoms: C_20  and  C_21
REMARK    7  A    between atoms: C_21  and  N_22
REMARK    8  A    between atoms: N_22  and  C_23
REMARK    9  A    between atoms: C_23  and  C_24
REMARK                            x       y       z     vdW  Elec       q    Type
REMARK                         _______ _______ _______ _____ _____    ______ ____
ROOT
ATOM      1  N   UNL     1      -4.663   4.973   1.616  0.00  0.00    +0.381 N 
ATOM      2  H   UNL     1      -4.962   4.827   2.568  0.00  0.00    -0.086 HD
ATOM      3  H   UNL     1      -3.655   4.994   1.579  0.00  0.00    -0.086 HD
ENDROOT
BRANCH   1   7
ATOM      4  N   UNL     1      -4.639   1.658   0.039  0.00  0.00    -0.330 N 
ATOM      5  C   UNL     1      -4.623   2.517  -1.155  0.00  0.00    +0.103 C 
ATOM      6  C   UNL     1      -4.591   3.980  -0.666  0.00  0.00    +0.005 C 
ATOM      7  C   UNL     1      -5.162   3.879   0.773  0.00  0.00    -0.053 C 
ATOM      8  C   UNL     1      -4.599   2.515   1.238  0.00  0.00    +0.089 C 
BRANCH   4  15
ATOM      9  C   UNL     1      -1.198  -0.636   0.010  0.00  0.00    +0.215 A 
ATOM     10  C   UNL     1      -1.235  -2.036   0.009  0.00  0.00    +0.069 A 
ATOM     11  C   UNL     1      -2.433  -2.685   0.017  0.00  0.00    +0.035 A 
ATOM     12  C   UNL     1      -3.613  -1.912   0.026  0.00  0.00    +0.091 A 
ATOM     13  C   UNL     1      -3.504  -0.503   0.027  0.00  0.00    +0.114 A 
ATOM     14  N   UNL     1      -2.302   0.079   0.025  0.00  0.00    -0.209 NA
ATOM     15  C   UNL     1      -4.690   0.271   0.037  0.00  0.00    +0.059 A 
ATOM     16  C   UNL     1      -5.902  -0.398   0.045  0.00  0.00    +0.045 A 
ATOM     17  C   UNL     1      -5.923  -1.787   0.044  0.00  0.00    +0.113 A 
ATOM     18  N   UNL     1      -4.816  -2.493   0.035  0.00  0.00    -0.253 NA
BRANCH   9  20
ATOM     19  C   UNL     1      -0.017   1.425   0.010  0.00  0.00    +0.279 C 
ATOM     20  O   UNL     1       0.002  -0.004   0.002  0.00  0.00    -0.480 OA
ENDBRANCH   9  20
ENDBRANCH   4  15
ENDBRANCH   1   7
BRANCH   1  21
ATOM     21  C   UNL     1      -5.198   6.251   1.126  0.00  0.00    -0.102 C 
BRANCH  21  22
ATOM     22  C   UNL     1      -4.678   7.391   2.004  0.00  0.00    -0.102 C 
BRANCH  22  23
ATOM     23  N   UNL     1      -5.212   8.669   1.515  0.00  0.00    +0.382 N 
ATOM     24  H   UNL     1      -4.914   8.815   0.562  0.00  0.00    -0.085 HD
ATOM     25  H   UNL     1      -6.220   8.649   1.552  0.00  0.00    -0.085 HD
BRANCH  23  26
ATOM     26  C   UNL     1      -4.713   9.764   2.358  0.00  0.00    -0.026 C 
BRANCH  26  27
ATOM     27  C   UNL     1      -5.261  11.075   1.855  0.00  0.00    +0.028 A 
ATOM     28  C   UNL     1      -6.404  11.599   2.428  0.00  0.00    +0.070 A 
ATOM     29  C   UNL     1      -6.898  12.809   1.955  0.00  0.00    +0.165 A 
ATOM     30  C   UNL     1      -6.218  13.447   0.921  0.00  0.00    +0.180 A 
ATOM     31  C   UNL     1      -5.080  12.856   0.399  0.00  0.00    +0.160 A 
ATOM     32  N   UNL     1      -4.640  11.708   0.879  0.00  0.00    -0.258 NA
ATOM     33  O   UNL     1      -6.658  14.636   0.429  0.00  0.00    -0.483 OA
ATOM     34  C   UNL     1      -8.010  14.996   0.738  0.00  0.00    +0.270 C 
ATOM     35  C   UNL     1      -8.249  14.740   2.232  0.00  0.00    +0.270 C 
ATOM     36  O   UNL     1      -8.019  13.350   2.494  0.00  0.00    -0.485 OA
ENDBRANCH  26  27
ENDBRANCH  23  26
ENDBRANCH  22  23
ENDBRANCH  21  22
ENDBRANCH   1  21
TORSDOF 8
