REMARK  Name = ZINC05945341
REMARK  10 active torsions:
REMARK  status: ('A' for Active; 'I' for Inactive)
REMARK    1  A    between atoms: C_1  and  C_2
REMARK    2  A    between atoms: C_2  and  C_29
REMARK    3  A    between atoms: C_4  and  N_10
REMARK    4  A    between atoms: C_6  and  C_8
REMARK    5  A    between atoms: C_6  and  C_9
REMARK    6  A    between atoms: N_10  and  C_11
REMARK    7  A    between atoms: N_10  and  C_18
REMARK    8  A    between atoms: C_11  and  C_12
REMARK    9  A    between atoms: C_18  and  N_20
REMARK   10  A    between atoms: N_20  and  C_21
REMARK                            x       y       z     vdW  Elec       q    Type
REMARK                         _______ _______ _______ _____ _____    ______ ____
ROOT
ATOM      1  N   UNL     1      -3.482  -0.927   1.104  0.00  0.00    -0.304 N 
ENDROOT
BRANCH   1   5
ATOM      2  C   UNL     1       0.438  -0.645   3.091  0.00  0.00    -0.010 C 
ATOM      3  C   UNL     1      -0.565   0.513   3.058  0.00  0.00    -0.072 C 
ATOM      4  C   UNL     1      -1.967  -0.027   2.798  0.00  0.00    +0.009 C 
ATOM      5  C   UNL     1      -2.116  -0.441   1.333  0.00  0.00    +0.073 C 
ATOM      6  C   UNL     1      -1.866   0.791   0.463  0.00  0.00    +0.009 C 
ATOM      7  C   UNL     1      -0.463   1.338   0.705  0.00  0.00    -0.072 C 
ATOM      8  N   UNL     1      -0.158   1.536   2.111  0.00  0.00    +0.386 N 
ATOM      9  C   UNL     1      -0.377   2.715   0.006  0.00  0.00    -0.010 C 
ATOM     10  C   UNL     1       0.571   0.428   0.034  0.00  0.00    -0.010 C 
ATOM     11  C   UNL     1      -0.569   1.150   4.467  0.00  0.00    -0.010 C 
ATOM     12  H   UNL     1      -0.571   2.427   2.406  0.00  0.00    -0.084 HD
ATOM     13  H   UNL     1       0.853   1.675   2.204  0.00  0.00    -0.084 HD
ENDBRANCH   1   5
BRANCH   1  14
ATOM     14  C   UNL     1      -3.683  -2.168   0.618  0.00  0.00    +0.138 C 
ATOM     15  S   UNL     1      -5.269  -2.698   0.252  0.00  0.00    -0.018 S 
BRANCH  14  16
ATOM     16  N   UNL     1      -2.635  -2.992   0.420  0.00  0.00    -0.294 N 
ATOM     17  H   UNL     1      -2.496  -3.750   1.009  0.00  0.00    +0.154 HD
BRANCH  16  18
ATOM     18  C   UNL     1      -1.746  -2.754  -0.637  0.00  0.00    +0.068 A 
ATOM     19  C   UNL     1      -2.019  -1.758  -1.564  0.00  0.00    +0.029 A 
ATOM     20  C   UNL     1      -1.141  -1.524  -2.605  0.00  0.00    +0.040 A 
ATOM     21  C   UNL     1       0.011  -2.282  -2.725  0.00  0.00    +0.126 A 
ATOM     22  C   UNL     1       0.288  -3.276  -1.801  0.00  0.00    +0.078 A 
ATOM     23  C   UNL     1      -0.585  -3.510  -0.755  0.00  0.00    +0.147 A 
ATOM     24  F   UNL     1      -0.313  -4.477   0.149  0.00  0.00    -0.203 F 
ATOM     25  F   UNL     1       0.868  -2.051  -3.744  0.00  0.00    -0.205 F 
ENDBRANCH  16  18
ENDBRANCH  14  16
ENDBRANCH   1  14
BRANCH   1  26
ATOM     26  C   UNL     1      -4.627  -0.063   1.403  0.00  0.00    +0.162 C 
BRANCH  26  27
ATOM     27  C   UNL     1      -4.979   0.745   0.181  0.00  0.00    +0.058 A 
ATOM     28  C   UNL     1      -5.967   0.295  -0.675  0.00  0.00    +0.025 A 
ATOM     29  C   UNL     1      -6.283   1.046  -1.796  0.00  0.00    +0.003 A 
ATOM     30  C   UNL     1      -5.591   2.227  -2.016  0.00  0.00    +0.020 A 
ATOM     31  C   UNL     1      -4.616   2.614  -1.117  0.00  0.00    +0.111 A 
ATOM     32  N   UNL     1      -4.345   1.877  -0.057  0.00  0.00    -0.258 NA
ENDBRANCH  26  27
ENDBRANCH   1  26
TORSDOF 6
