REMARK  Name = ZINC39683444
REMARK  11 active torsions:
REMARK  status: ('A' for Active; 'I' for Inactive)
REMARK    1  A    between atoms: C_1  and  C_2
REMARK    2  A    between atoms: C_2  and  C_3
REMARK    3  A    between atoms: C_3  and  C_4
REMARK    4  A    between atoms: C_4  and  N_5
REMARK    5  A    between atoms: C_8  and  C_11
REMARK    6  A    between atoms: C_11  and  N_12
REMARK    7  A    between atoms: C_13  and  C_15
REMARK    8  A    between atoms: C_26  and  C_28
REMARK    9  A    between atoms: C_31  and  O_34
REMARK   10  A    between atoms: O_34  and  C_35
REMARK   11  A    between atoms: C_35  and  C_36
REMARK                            x       y       z     vdW  Elec       q    Type
REMARK                         _______ _______ _______ _____ _____    ______ ____
ROOT
ATOM      1  C   UNL     1       3.272  -8.755   6.924  0.00  0.00    +0.100 C 
ATOM      2  C   UNL     1       3.999  -8.962   5.577  0.00  0.00    +0.121 C 
ATOM      3  N   UNL     1       5.434  -9.057   5.937  0.00  0.00    -0.296 N 
ATOM      4  C   UNL     1       5.447  -9.846   7.192  0.00  0.00    +0.115 C 
ATOM      5  C   UNL     1       4.223  -9.340   7.981  0.00  0.00    -0.004 C 
ATOM      6  C   UNL     1       3.551 -10.497   8.714  0.00  0.00    -0.010 C 
ATOM      7  C   UNL     1       4.494 -11.024   9.799  0.00  0.00    -0.082 C 
ATOM      8  N   UNL     1       4.815  -9.943  10.739  0.00  0.00    +0.379 N 
ATOM      9  C   UNL     1       5.543  -8.875  10.044  0.00  0.00    -0.082 C 
ATOM     10  C   UNL     1       4.645  -8.257   8.969  0.00  0.00    -0.010 C 
ATOM     11  C   UNL     1       6.488  -8.543   5.273  0.00  0.00    +0.247 C 
ATOM     12  O   UNL     1       6.308  -7.809   4.321  0.00  0.00    -0.270 OA
ATOM     13  H   UNL     1       3.960  -9.570  11.124  0.00  0.00    -0.086 HD
ATOM     14  H   UNL     1       5.386 -10.308  11.486  0.00  0.00    -0.086 HD
ENDROOT
BRANCH  11  15
ATOM     15  C   UNL     1       7.861  -8.872   5.702  0.00  0.00    +0.037 A 
ATOM     16  C   UNL     1       8.101 -10.013   6.472  0.00  0.00    +0.016 A 
ATOM     17  C   UNL     1       9.384 -10.317   6.869  0.00  0.00    +0.046 A 
ATOM     18  C   UNL     1      10.440  -9.489   6.507  0.00  0.00    +0.121 A 
ATOM     19  C   UNL     1      10.206  -8.352   5.741  0.00  0.00    +0.046 A 
ATOM     20  C   UNL     1       8.927  -8.045   5.335  0.00  0.00    +0.016 A 
BRANCH  18  21
ATOM     21  O   UNL     1      11.703  -9.791   6.902  0.00  0.00    -0.492 OA
BRANCH  21  22
ATOM     22  C   UNL     1      12.741  -8.897   6.494  0.00  0.00    +0.225 C 
ATOM     23  C   UNL     1      14.084  -9.398   7.029  0.00  0.00    +0.048 C 
ENDBRANCH  21  22
ENDBRANCH  18  21
ENDBRANCH  11  15
BRANCH   1  25
ATOM     24  N   UNL     1       2.052  -6.890   7.998  0.00  0.00    -0.315 N 
ATOM     25  C   UNL     1       3.045  -7.287   7.177  0.00  0.00    +0.218 C 
ATOM     26  O   UNL     1       3.756  -6.462   6.643  0.00  0.00    -0.275 OA
ATOM     27  H   UNL     1       1.484  -7.549   8.426  0.00  0.00    +0.149 HD
BRANCH  24  28
ATOM     28  C   UNL     1       1.832  -5.463   8.245  0.00  0.00    +0.107 C 
BRANCH  28  32
ATOM     29  N   UNL     1      -1.927  -4.087   9.748  0.00  0.00    +0.380 N 
ATOM     30  C   UNL     1      -0.727  -3.627  10.458  0.00  0.00    -0.079 C 
ATOM     31  C   UNL     1       0.500  -3.805   9.561  0.00  0.00    -0.014 C 
ATOM     32  C   UNL     1       0.653  -5.287   9.205  0.00  0.00    +0.003 C 
ATOM     33  C   UNL     1      -0.633  -5.776   8.532  0.00  0.00    -0.014 C 
ATOM     34  C   UNL     1      -1.818  -5.524   9.466  0.00  0.00    -0.079 C 
ATOM     35  H   UNL     1      -2.017  -3.581   8.880  0.00  0.00    -0.082 HD
BRANCH  29  36
ATOM     36  C   UNL     1      -3.111  -3.842  10.582  0.00  0.00    -0.079 C 
BRANCH  36  37
ATOM     37  C   UNL     1      -3.297  -2.335  10.773  0.00  0.00    -0.019 C 
BRANCH  37  39
ATOM     38  C   UNL     1      -4.716  -0.573  11.832  0.00  0.00    +0.004 C 
ATOM     39  C   UNL     1      -4.531  -2.080  11.641  0.00  0.00    -0.005 C 
ENDBRANCH  37  39
ENDBRANCH  36  37
ENDBRANCH  29  36
ENDBRANCH  28  32
ENDBRANCH  24  28
ENDBRANCH   1  25
TORSDOF 9
