REMARK  Name = ZINC08682471
REMARK  7 active torsions:
REMARK  status: ('A' for Active; 'I' for Inactive)
REMARK    1  A    between atoms: C_1  and  C_2
REMARK    2  A    between atoms: N_24  and  C_27
REMARK    3  A    between atoms: C_28  and  C_34
REMARK    4  A    between atoms: C_29  and  C_33
REMARK    5  A    between atoms: C_30  and  C_32
REMARK    6  A    between atoms: C_34  and  O_36
REMARK    7  A    between atoms: O_36  and  C_37
REMARK                            x       y       z     vdW  Elec       q    Type
REMARK                         _______ _______ _______ _____ _____    ______ ____
ROOT
ATOM      1  C   UNL     1      -0.554   1.367   0.007  0.00  0.00    +0.045 C 
ATOM      2  C   UNL     1      -0.444  -0.136   0.019  0.00  0.00    -0.029 A 
ATOM      3  C   UNL     1      -0.475  -0.837  -1.168  0.00  0.00    +0.005 A 
ATOM      4  C   UNL     1      -0.375  -2.216  -1.168  0.00  0.00    +0.001 A 
ATOM      5  C   UNL     1      -0.242  -2.896   0.030  0.00  0.00    +0.004 A 
ATOM      6  C   UNL     1      -0.210  -2.200   1.217  0.00  0.00    -0.027 A 
ATOM      7  C   UNL     1      -0.306  -0.811   1.229  0.00  0.00    +0.039 A 
ATOM      8  N   UNL     1      -0.244  -0.334   2.540  0.00  0.00    -0.286 N 
ATOM      9  C   UNL     1      -0.104  -1.329   3.437  0.00  0.00    +0.212 C 
ATOM     10  O   UNL     1      -0.023  -1.212   4.641  0.00  0.00    -0.277 OA
ATOM     11  C   UNL     1      -0.080  -2.616   2.656  0.00  0.00    +0.053 C 
ATOM     12  C   UNL     1       1.228  -3.378   2.900  0.00  0.00    +0.089 C 
ATOM     13  C   UNL     1       0.863  -4.459   3.954  0.00  0.00    +0.074 C 
ATOM     14  C   UNL     1      -0.630  -4.239   4.258  0.00  0.00    -0.054 C 
ATOM     15  N   UNL     1      -1.169  -3.522   3.057  0.00  0.00    +0.395 N 
ATOM     16  C   UNL     1      -1.338  -4.569   2.021  0.00  0.00    -0.076 C 
ATOM     17  C   UNL     1      -1.827  -5.816   2.785  0.00  0.00    -0.020 C 
ATOM     18  C   UNL     1      -1.351  -5.600   4.275  0.00  0.00    -0.016 C 
ATOM     19  C   UNL     1       1.052  -5.757   3.202  0.00  0.00    +0.229 C 
ATOM     20  O   UNL     1       0.870  -6.864   3.660  0.00  0.00    -0.275 OA
ATOM     21  N   UNL     1       1.451  -5.493   1.953  0.00  0.00    -0.203 N 
ATOM     22  C   UNL     1       1.590  -4.178   1.669  0.00  0.00    +0.230 C 
ATOM     23  O   UNL     1       1.943  -3.710   0.609  0.00  0.00    -0.275 OA
ATOM     24  H   UNL     1      -0.295   0.605   2.777  0.00  0.00    +0.155 HD
ATOM     25  H   UNL     1      -2.026  -3.028   3.258  0.00  0.00    -0.079 HD
ENDROOT
BRANCH  21  26
ATOM     26  C   UNL     1       1.708  -6.490   1.019  0.00  0.00    +0.096 A 
ATOM     27  C   UNL     1       2.910  -7.138   0.773  0.00  0.00    +0.091 A 
ATOM     28  C   UNL     1       2.901  -8.145  -0.263  0.00  0.00    -0.025 A 
ATOM     29  C   UNL     1       1.720  -8.343  -0.878  0.00  0.00    -0.008 A 
ATOM     30  S   UNL     1       0.636  -7.191  -0.064  0.00  0.00    -0.077 S 
ATOM     31  C   UNL     1       1.394  -9.311  -1.986  0.00  0.00    +0.052 C 
ATOM     32  C   UNL     1       4.136  -8.925  -0.632  0.00  0.00    +0.045 C 
BRANCH  27  33
ATOM     33  C   UNL     1       4.126  -6.818   1.526  0.00  0.00    +0.342 C 
ATOM     34  O   UNL     1       4.381  -7.418   2.553  0.00  0.00    -0.245 OA
BRANCH  33  35
ATOM     35  O   UNL     1       4.962  -5.859   1.080  0.00  0.00    -0.464 OA
ATOM     36  C   UNL     1       6.128  -5.599   1.863  0.00  0.00    +0.280 C 
ENDBRANCH  33  35
ENDBRANCH  27  33
ENDBRANCH  21  26
TORSDOF 3
