REMARK  Name = ZINC39638489
REMARK  12 active torsions:
REMARK  status: ('A' for Active; 'I' for Inactive)
REMARK    1  A    between atoms: C_1  and  O_2
REMARK    2  A    between atoms: O_2  and  C_3
REMARK    3  A    between atoms: C_6  and  C_9
REMARK    4  A    between atoms: C_9  and  C_10
REMARK    5  A    between atoms: C_10  and  C_11
REMARK    6  A    between atoms: C_15  and  C_24
REMARK    7  A    between atoms: N_26  and  C_27
REMARK    8  A    between atoms: C_27  and  C_28
REMARK    9  A    between atoms: C_32  and  O_36
REMARK   10  A    between atoms: C_33  and  O_34
REMARK   11  A    between atoms: O_34  and  C_35
REMARK   12  A    between atoms: O_36  and  C_37
REMARK                            x       y       z     vdW  Elec       q    Type
REMARK                         _______ _______ _______ _____ _____    ______ ____
ROOT
ATOM      1  C   UNL     1       2.377  -3.527   6.698  0.00  0.00    +0.216 C 
ATOM      2  O   UNL     1       3.547  -3.842   6.636  0.00  0.00    -0.276 OA
ATOM      3  N   UNL     1       1.643  -3.871   7.775  0.00  0.00    -0.300 N 
ATOM      4  C   UNL     1       0.211  -3.586   8.027  0.00  0.00    +0.121 C 
ATOM      5  C   UNL     1      -0.333  -4.871   8.690  0.00  0.00    +0.100 C 
ATOM      6  C   UNL     1       0.902  -5.544   9.312  0.00  0.00    -0.004 C 
ATOM      7  C   UNL     1       2.085  -4.625   8.973  0.00  0.00    +0.115 C 
ATOM      8  C   UNL     1       0.737  -5.657  10.824  0.00  0.00    -0.010 C 
ATOM      9  C   UNL     1       1.950  -6.381  11.413  0.00  0.00    -0.082 C 
ATOM     10  N   UNL     1       2.066  -7.716  10.812  0.00  0.00    +0.379 N 
ATOM     11  C   UNL     1       2.318  -7.596   9.371  0.00  0.00    -0.082 C 
ATOM     12  C   UNL     1       1.119  -6.923   8.696  0.00  0.00    -0.010 C 
ATOM     13  H   UNL     1       2.829  -8.213  11.246  0.00  0.00    -0.086 HD
ATOM     14  H   UNL     1       1.208  -8.225  10.961  0.00  0.00    -0.086 HD
ENDROOT
BRANCH   5  15
ATOM     15  C   UNL     1      -1.339  -4.526   9.757  0.00  0.00    +0.218 C 
ATOM     16  O   UNL     1      -1.236  -3.487  10.374  0.00  0.00    -0.275 OA
ATOM     17  N   UNL     1      -2.353  -5.372  10.025  0.00  0.00    -0.311 N 
ATOM     18  H   UNL     1      -2.436  -6.202   9.531  0.00  0.00    +0.149 HD
BRANCH  17  19
ATOM     19  C   UNL     1      -3.332  -5.036  11.063  0.00  0.00    +0.143 C 
BRANCH  19  20
ATOM     20  C   UNL     1      -4.354  -6.138  11.164  0.00  0.00    +0.015 A 
ATOM     21  C   UNL     1      -5.586  -5.997  10.552  0.00  0.00    +0.009 A 
ATOM     22  C   UNL     1      -6.526  -7.006  10.643  0.00  0.00    +0.004 A 
ATOM     23  C   UNL     1      -6.239  -8.161  11.348  0.00  0.00    +0.049 A 
ATOM     24  C   UNL     1      -5.007  -8.309  11.963  0.00  0.00    +0.162 A 
ATOM     25  C   UNL     1      -4.058  -7.295  11.866  0.00  0.00    +0.166 A 
BRANCH  25  26
ATOM     26  O   UNL     1      -2.845  -7.438  12.464  0.00  0.00    -0.491 OA
ATOM     27  C   UNL     1      -2.729  -6.979  13.813  0.00  0.00    +0.277 C 
ENDBRANCH  25  26
BRANCH  24  28
ATOM     28  O   UNL     1      -4.724  -9.444  12.656  0.00  0.00    -0.491 OA
ATOM     29  C   UNL     1      -5.743 -10.444  12.709  0.00  0.00    +0.277 C 
ENDBRANCH  24  28
ENDBRANCH  19  20
ENDBRANCH  17  19
ENDBRANCH   5  15
BRANCH   1  30
ATOM     30  C   UNL     1       1.744  -2.753   5.571  0.00  0.00    +0.100 C 
BRANCH  30  31
ATOM     31  C   UNL     1       2.787  -2.495   4.481  0.00  0.00    +0.044 C 
BRANCH  31  35
ATOM     32  C   UNL     1       0.992  -0.300   1.284  0.00  0.00    +0.120 A 
ATOM     33  C   UNL     1       1.589   0.373   2.340  0.00  0.00    +0.046 A 
ATOM     34  C   UNL     1       2.168  -0.338   3.372  0.00  0.00    +0.007 A 
ATOM     35  C   UNL     1       2.154  -1.721   3.354  0.00  0.00    -0.047 A 
ATOM     36  C   UNL     1       1.560  -2.394   2.302  0.00  0.00    +0.007 A 
ATOM     37  C   UNL     1       0.974  -1.687   1.270  0.00  0.00    +0.046 A 
BRANCH  32  39
ATOM     38  C   UNL     1       0.477   1.824   0.347  0.00  0.00    +0.277 C 
ATOM     39  O   UNL     1       0.421   0.398   0.267  0.00  0.00    -0.495 OA
ENDBRANCH  32  39
ENDBRANCH  31  35
ENDBRANCH  30  31
ENDBRANCH   1  30
TORSDOF 9
