REMARK  Name = ZINC63994296
REMARK  15 active torsions:
REMARK  status: ('A' for Active; 'I' for Inactive)
REMARK    1  A    between atoms: C_1  and  C_2
REMARK    2  A    between atoms: C_3  and  C_4
REMARK    3  A    between atoms: C_3  and  C_5
REMARK    4  A    between atoms: C_5  and  N_6
REMARK    5  A    between atoms: N_6  and  C_7
REMARK    6  A    between atoms: N_13  and  C_28
REMARK    7  A    between atoms: C_14  and  C_24
REMARK    8  A    between atoms: C_16  and  N_18
REMARK    9  A    between atoms: C_19  and  C_21
REMARK   10  A    between atoms: C_21  and  O_22
REMARK   11  A    between atoms: O_22  and  C_23
REMARK   12  A    between atoms: C_24  and  O_26
REMARK   13  A    between atoms: O_26  and  C_27
REMARK   14  A    between atoms: C_28  and  C_29
REMARK   15  A    between atoms: C_29  and  C_30
REMARK                            x       y       z     vdW  Elec       q    Type
REMARK                         _______ _______ _______ _____ _____    ______ ____
ROOT
ATOM      1  C   UNL     1       2.110  -4.005   0.251  0.00  0.00    +0.044 A 
ATOM      2  C   UNL     1       3.300  -4.464  -0.311  0.00  0.00    +0.033 A 
ATOM      3  C   UNL     1       3.500  -5.828  -0.405  0.00  0.00    +0.015 A 
ATOM      4  C   UNL     1       2.529  -6.707   0.053  0.00  0.00    +0.105 A 
ATOM      5  N   UNL     1       1.405  -6.225   0.584  0.00  0.00    -0.348 N 
ATOM      6  C   UNL     1       1.181  -4.932   0.696  0.00  0.00    +0.107 A 
ATOM      7  N   UNL     1       2.913  -8.033  -0.128  0.00  0.00    -0.301 N 
ATOM      8  C   UNL     1       4.237  -8.096  -0.753  0.00  0.00    +0.208 C 
ATOM      9  C   UNL     1       4.658  -6.630  -0.952  0.00  0.00    +0.138 C 
ATOM     10  H   UNL     1       0.732  -6.847   0.901  0.00  0.00    +0.167 HD
ENDROOT
BRANCH   9  11
ATOM     11  N   UNL     1       5.881  -6.343  -0.198  0.00  0.00    -0.304 N 
ATOM     12  C   UNL     1       6.658  -5.299  -0.548  0.00  0.00    +0.239 C 
ATOM     13  O   UNL     1       6.345  -4.597  -1.486  0.00  0.00    -0.273 OA
ATOM     14  H   UNL     1       6.131  -6.904   0.552  0.00  0.00    +0.149 HD
BRANCH  12  15
ATOM     15  C   UNL     1       7.916  -5.003   0.228  0.00  0.00    +0.255 C 
BRANCH  15  16
ATOM     16  O   UNL     1       8.562  -3.857  -0.331  0.00  0.00    -0.374 OA
ATOM     17  C   UNL     1       9.771  -3.489   0.335  0.00  0.00    +0.194 C 
ENDBRANCH  15  16
ENDBRANCH  12  15
ENDBRANCH   9  11
BRANCH   1  18
ATOM     18  N   UNL     1       1.861  -2.631   0.369  0.00  0.00    -0.339 N 
ATOM     19  H   UNL     1       2.517  -1.990   0.054  0.00  0.00    +0.146 HD
BRANCH  18  20
ATOM     20  C   UNL     1       0.608  -2.163   0.967  0.00  0.00    +0.132 C 
BRANCH  20  23
ATOM     21  C   UNL     1      -0.018   1.503   0.010  0.00  0.00    +0.035 C 
ATOM     22  C   UNL     1       0.002  -0.004   0.002  0.00  0.00    -0.030 C 
ATOM     23  C   UNL     1       0.588  -0.657   0.976  0.00  0.00    -0.060 C 
ATOM     24  C   UNL     1       1.240   0.100   2.104  0.00  0.00    +0.040 C 
ENDBRANCH  20  23
ENDBRANCH  18  20
ENDBRANCH   1  18
BRANCH   8  25
ATOM     25  C   UNL     1       5.210  -8.803   0.154  0.00  0.00    +0.330 C 
ATOM     26  O   UNL     1       4.962  -8.924   1.330  0.00  0.00    -0.249 OA
BRANCH  25  27
ATOM     27  O   UNL     1       6.353  -9.300  -0.345  0.00  0.00    -0.467 OA
ATOM     28  C   UNL     1       7.229  -9.959   0.572  0.00  0.00    +0.280 C 
ENDBRANCH  25  27
ENDBRANCH   8  25
BRANCH   7  29
ATOM     29  C   UNL     1       2.110  -9.198   0.252  0.00  0.00    +0.112 C 
BRANCH  29  30
ATOM     30  C   UNL     1       1.214  -9.604  -0.920  0.00  0.00    +0.052 C 
BRANCH  30  31
ATOM     31  C   UNL     1       0.388 -10.802  -0.530  0.00  0.00    -0.040 C 
ATOM     32  C   UNL     1      -0.874 -10.796  -0.044  0.00  0.00    -0.001 A 
ATOM     33  C   UNL     1      -1.819  -9.714   0.256  0.00  0.00    +0.010 A 
ATOM     34  C   UNL     1      -3.040 -10.026   0.746  0.00  0.00    +0.001 A 
ATOM     35  C   UNL     1      -3.425 -11.354   0.975  0.00  0.00    +0.002 A 
ATOM     36  C   UNL     1      -2.613 -12.402   0.724  0.00  0.00    +0.026 A 
ATOM     37  C   UNL     1      -1.305 -12.190   0.206  0.00  0.00    +0.043 A 
ATOM     38  N   UNL     1      -0.347 -13.026  -0.113  0.00  0.00    -0.380 N 
ATOM     39  C   UNL     1       0.800 -12.255  -0.608  0.00  0.00    +0.144 C 
ATOM     40  H   UNL     1      -0.390 -13.992  -0.039  0.00  0.00    +0.160 HD
ENDBRANCH  30  31
ENDBRANCH  29  30
ENDBRANCH   7  29
TORSDOF 11
