REMARK  Name = ZINC16968980
REMARK  10 active torsions:
REMARK  status: ('A' for Active; 'I' for Inactive)
REMARK    1  A    between atoms: C_1  and  C_2
REMARK    2  A    between atoms: C_1  and  C_16
REMARK    3  A    between atoms: C_3  and  C_4
REMARK    4  A    between atoms: C_3  and  C_10
REMARK    5  A    between atoms: C_4  and  O_6
REMARK    6  A    between atoms: C_4  and  S_7
REMARK    7  A    between atoms: C_10  and  O_12
REMARK    8  A    between atoms: C_10  and  S_13
REMARK    9  A    between atoms: C_16  and  O_18
REMARK   10  A    between atoms: C_16  and  S_19
REMARK                            x       y       z     vdW  Elec       q    Type
REMARK                         _______ _______ _______ _____ _____    ______ ____
ROOT
ATOM      1  C   UNL     1      -1.865   2.251   4.050  0.00  0.00    -0.015 C 
ATOM      2  C   UNL     1      -1.903   1.510   5.129  0.00  0.00    +0.031 C 
ENDROOT
BRANCH   1   3
ATOM      3  C   UNL     1      -0.952   1.877   2.911  0.00  0.00    +0.085 C 
BRANCH   3   4
ATOM      4  C   UNL     1      -1.783   1.632   1.650  0.00  0.00    +0.292 C 
BRANCH   4   5
ATOM      5  S   UNL     1      -0.676   1.327   0.245  0.00  0.00    +0.137 S 
ATOM      6  O   UNL     1       0.003   0.090   0.417  0.00  0.00    -0.142 OA
ATOM      7  O   UNL     1       0.043   2.509  -0.078  0.00  0.00    -0.142 OA
ATOM      8  O   UNL     1      -1.603   1.099  -0.941  0.00  0.00    -0.045 OA
ENDBRANCH   4   5
BRANCH   4   9
ATOM      9  O   UNL     1      -2.626   0.496   1.848  0.00  0.00    -0.369 OA
ATOM     10  H   UNL     1      -2.146  -0.322   2.036  0.00  0.00    +0.212 HD
ENDBRANCH   4   9
ENDBRANCH   3   4
ENDBRANCH   1   3
BRANCH   2  11
ATOM     11  C   UNL     1      -1.150   0.205   5.175  0.00  0.00    +0.320 C 
BRANCH  11  12
ATOM     12  S   UNL     1       0.496   0.482   5.886  0.00  0.00    +0.141 S 
ATOM     13  O   UNL     1       0.383   1.144   7.138  0.00  0.00    -0.142 OA
ATOM     14  O   UNL     1       1.289  -0.689   5.754  0.00  0.00    -0.142 OA
ATOM     15  O   UNL     1       1.153   1.502   4.966  0.00  0.00    -0.045 OA
ENDBRANCH  11  12
BRANCH  11  16
ATOM     16  O   UNL     1      -1.867  -0.731   5.983  0.00  0.00    -0.366 OA
ATOM     17  H   UNL     1      -2.688  -1.048   5.582  0.00  0.00    +0.212 HD
ENDBRANCH  11  16
ENDBRANCH   2  11
BRANCH   2  18
ATOM     18  C   UNL     1      -2.701   1.961   6.325  0.00  0.00    +0.320 C 
BRANCH  18  19
ATOM     19  S   UNL     1      -4.390   1.309   6.207  0.00  0.00    +0.141 S 
ATOM     20  O   UNL     1      -5.063   1.892   5.099  0.00  0.00    -0.142 OA
ATOM     21  O   UNL     1      -4.385  -0.100   6.391  0.00  0.00    -0.142 OA
ATOM     22  O   UNL     1      -5.108   1.859   7.431  0.00  0.00    -0.045 OA
ENDBRANCH  18  19
BRANCH  18  23
ATOM     23  O   UNL     1      -2.086   1.475   7.519  0.00  0.00    -0.366 OA
ATOM     24  H   UNL     1      -2.023   0.511   7.566  0.00  0.00    +0.212 HD
ENDBRANCH  18  23
ENDBRANCH   2  18
TORSDOF 10
