REMARK  Name = ZINC13374451
REMARK  12 active torsions:
REMARK  status: ('A' for Active; 'I' for Inactive)
REMARK    1  A    between atoms: C_1  and  C_2
REMARK    2  A    between atoms: C_2  and  C_3
REMARK    3  A    between atoms: C_3  and  N_4
REMARK    4  A    between atoms: C_10  and  N_16
REMARK    5  A    between atoms: C_11  and  C_12
REMARK    6  A    between atoms: C_12  and  O_14
REMARK    7  A    between atoms: O_14  and  C_15
REMARK    8  A    between atoms: C_17  and  C_19
REMARK    9  A    between atoms: C_22  and  S_25
REMARK   10  A    between atoms: S_25  and  N_28
REMARK   11  A    between atoms: C_30  and  C_37
REMARK   12  A    between atoms: C_33  and  C_36
REMARK                            x       y       z     vdW  Elec       q    Type
REMARK                         _______ _______ _______ _____ _____    ______ ____
ROOT
ATOM      1  N   UNL     1      -0.766  -7.858   2.279  0.00  0.00    -0.275 N 
ATOM      2  C   UNL     1       0.144  -8.107   3.241  0.00  0.00    +0.249 C 
ATOM      3  O   UNL     1       0.786  -7.194   3.722  0.00  0.00    -0.270 OA
ATOM      4  H   UNL     1      -1.278  -8.587   1.896  0.00  0.00    +0.156 HD
ENDROOT
BRANCH   1  11
ATOM      5  N   UNL     1      -1.413  -2.002   0.005  0.00  0.00    +0.383 N 
ATOM      6  C   UNL     1      -2.787  -2.509  -0.110  0.00  0.00    -0.074 C 
ATOM      7  C   UNL     1      -2.772  -4.007  -0.433  0.00  0.00    +0.018 C 
ATOM      8  C   UNL     1      -1.878  -4.697   0.588  0.00  0.00    -0.025 A 
ATOM      9  C   UNL     1      -1.009  -3.973   1.329  0.00  0.00    -0.021 A 
ATOM     10  S   UNL     1      -0.201  -5.161   2.358  0.00  0.00    -0.079 S 
ATOM     11  C   UNL     1      -0.970  -6.561   1.839  0.00  0.00    +0.086 A 
ATOM     12  C   UNL     1      -1.858  -6.120   0.866  0.00  0.00    +0.091 A 
ATOM     13  C   UNL     1      -0.807  -2.492   1.257  0.00  0.00    -0.035 C 
ATOM     14  H   UNL     1      -0.870  -2.327  -0.781  0.00  0.00    -0.081 HD
BRANCH  12  15
ATOM     15  C   UNL     1      -2.735  -7.050   0.153  0.00  0.00    +0.342 C 
ATOM     16  O   UNL     1      -2.358  -7.570  -0.880  0.00  0.00    -0.245 OA
BRANCH  15  17
ATOM     17  O   UNL     1      -3.960  -7.331   0.642  0.00  0.00    -0.464 OA
ATOM     18  C   UNL     1      -4.762  -8.248  -0.106  0.00  0.00    +0.280 C 
ENDBRANCH  15  17
ENDBRANCH  12  15
BRANCH   5  19
ATOM     19  C   UNL     1      -1.433  -0.534   0.013  0.00  0.00    -0.079 C 
BRANCH  19  21
ATOM     20  C   UNL     1      -0.019   1.526   0.010  0.00  0.00    +0.002 C 
ATOM     21  C   UNL     1       0.002  -0.004   0.002  0.00  0.00    -0.022 C 
ENDBRANCH  19  21
ENDBRANCH   5  19
ENDBRANCH   1  11
BRANCH   2  22
ATOM     22  C   UNL     1       0.362  -9.491   3.712  0.00  0.00    +0.037 A 
ATOM     23  C   UNL     1      -0.369 -10.543   3.158  0.00  0.00    +0.015 A 
ATOM     24  C   UNL     1      -0.161 -11.833   3.601  0.00  0.00    +0.029 A 
ATOM     25  C   UNL     1       0.770 -12.084   4.593  0.00  0.00    +0.106 A 
ATOM     26  C   UNL     1       1.498 -11.046   5.147  0.00  0.00    +0.029 A 
ATOM     27  C   UNL     1       1.304  -9.753   4.708  0.00  0.00    +0.015 A 
BRANCH  25  28
ATOM     28  S   UNL     1       1.029 -13.734   5.154  0.00  0.00    +0.061 S 
ATOM     29  O   UNL     1       1.561 -13.638   6.469  0.00  0.00    -0.153 OA
ATOM     30  O   UNL     1      -0.162 -14.454   4.865  0.00  0.00    -0.153 OA
BRANCH  28  31
ATOM     31  N   UNL     1       2.220 -14.392   4.210  0.00  0.00    -0.176 NA
ATOM     32  C   UNL     1       1.885 -15.098   2.966  0.00  0.00    +0.112 C 
ATOM     33  C   UNL     1       2.691 -14.484   1.817  0.00  0.00    +0.002 C 
ATOM     34  C   UNL     1       4.179 -14.510   2.173  0.00  0.00    +0.009 C 
ATOM     35  C   UNL     1       4.420 -13.675   3.433  0.00  0.00    +0.002 C 
ATOM     36  C   UNL     1       3.633 -14.274   4.596  0.00  0.00    +0.112 C 
ATOM     37  C   UNL     1       5.912 -13.675   3.769  0.00  0.00    +0.009 C 
ATOM     38  C   UNL     1       2.457 -15.291   0.539  0.00  0.00    +0.009 C 
ENDBRANCH  28  31
ENDBRANCH  25  28
ENDBRANCH   2  22
TORSDOF 8
