REMARK  Name = ZINC39777993
REMARK  7 active torsions:
REMARK  status: ('A' for Active; 'I' for Inactive)
REMARK    1  A    between atoms: C_1  and  C_2
REMARK    2  A    between atoms: C_4  and  O_22
REMARK    3  A    between atoms: C_5  and  C_9
REMARK    4  A    between atoms: C_6  and  O_8
REMARK    5  A    between atoms: C_11  and  C_15
REMARK    6  A    between atoms: C_16  and  C_21
REMARK    7  A    between atoms: C_18  and  C_20
REMARK                            x       y       z     vdW  Elec       q    Type
REMARK                         _______ _______ _______ _____ _____    ______ ____
ROOT
ATOM      1  C   UNL     1       0.031  -4.911  -0.381  0.00  0.00    +0.168 C 
ATOM      2  C   UNL     1       1.419  -5.232   0.147  0.00  0.00    +0.016 C 
ATOM      3  C   UNL     1       1.173  -6.032   1.220  0.00  0.00    +0.139 C 
ATOM      4  N   UNL     1      -0.141  -6.212   1.378  0.00  0.00    -0.185 NA
ATOM      5  N   UNL     1      -0.853  -5.638   0.546  0.00  0.00    -0.297 N 
ATOM      6  H   UNL     1      -1.822  -5.660   0.509  0.00  0.00    +0.183 HD
ENDROOT
BRANCH   1  11
ATOM      7  C   UNL     1      -0.986   0.780  -0.144  0.00  0.00    +0.044 C 
ATOM      8  C   UNL     1      -0.721  -0.702  -0.205  0.00  0.00    -0.044 A 
ATOM      9  C   UNL     1      -0.499  -1.313  -1.425  0.00  0.00    +0.049 A 
ATOM     10  C   UNL     1      -0.254  -2.678  -1.484  0.00  0.00    +0.126 A 
ATOM     11  C   UNL     1      -0.234  -3.428  -0.319  0.00  0.00    +0.063 A 
ATOM     12  C   UNL     1      -0.457  -2.813   0.903  0.00  0.00    +0.126 A 
ATOM     13  C   UNL     1      -0.695  -1.447   0.958  0.00  0.00    +0.049 A 
BRANCH  12  14
ATOM     14  O   UNL     1      -0.438  -3.547   2.047  0.00  0.00    -0.506 OA
ATOM     15  H   UNL     1       0.434  -3.608   2.460  0.00  0.00    +0.292 HD
ENDBRANCH  12  14
BRANCH  10  16
ATOM     16  O   UNL     1      -0.036  -3.278  -2.684  0.00  0.00    -0.506 OA
ATOM     17  H   UNL     1       0.893  -3.300  -2.950  0.00  0.00    +0.292 HD
ENDBRANCH  10  16
ENDBRANCH   1  11
BRANCH   2  18
ATOM     18  C   UNL     1       2.672  -4.801  -0.357  0.00  0.00    +0.042 A 
ATOM     19  C   UNL     1       3.950  -4.984   0.160  0.00  0.00    +0.053 A 
ATOM     20  N   UNL     1       4.934  -4.467  -0.534  0.00  0.00    -0.249 NA
ATOM     21  C   UNL     1       4.722  -3.814  -1.652  0.00  0.00    +0.076 A 
ATOM     22  S   UNL     1       3.051  -3.879  -1.839  0.00  0.00    -0.072 S 
ATOM     23  C   UNL     1       5.736  -3.165  -2.558  0.00  0.00    +0.073 C 
ATOM     24  C   UNL     1       4.189  -5.735   1.445  0.00  0.00    +0.067 C 
ENDBRANCH   2  18
TORSDOF 4
