REMARK  Name = ZINC37934083
REMARK  5 active torsions:
REMARK  status: ('A' for Active; 'I' for Inactive)
REMARK    1  A    between atoms: C_4  and  N_7
REMARK    2  A    between atoms: N_7  and  C_8
REMARK    3  A    between atoms: C_10  and  N_18
REMARK    4  A    between atoms: C_12  and  S_14
REMARK    5  A    between atoms: S_14  and  N_17
REMARK                            x       y       z     vdW  Elec       q    Type
REMARK                         _______ _______ _______ _____ _____    ______ ____
ROOT
ATOM      1  C   UNL     1       3.696  -2.042   0.045  0.00  0.00    +0.035 A 
ATOM      2  C   UNL     1       2.535  -2.803   0.041  0.00  0.00    +0.046 A 
ATOM      3  C   UNL     1       2.616  -4.186   0.122  0.00  0.00    +0.028 A 
ATOM      4  C   UNL     1       3.858  -4.804   0.207  0.00  0.00    +0.051 A 
ATOM      5  C   UNL     1       5.011  -4.044   0.210  0.00  0.00    +0.108 A 
ATOM      6  C   UNL     1       4.935  -2.667   0.124  0.00  0.00    +0.052 A 
ENDROOT
BRANCH   5   7
ATOM      7  S   UNL     1       6.583  -4.832   0.318  0.00  0.00    +0.056 S 
ATOM      8  O   UNL     1       7.484  -3.872   0.852  0.00  0.00    -0.153 OA
ATOM      9  O   UNL     1       6.363  -6.095   0.932  0.00  0.00    -0.153 OA
BRANCH   7  10
ATOM     10  N   UNL     1       7.083  -5.140  -1.230  0.00  0.00    -0.204 NA
ATOM     11  H   UNL     1       6.524  -4.885  -1.981  0.00  0.00    +0.144 HD
ATOM     12  H   UNL     1       7.936  -5.576  -1.387  0.00  0.00    +0.144 HD
ENDBRANCH   7  10
ENDBRANCH   5   7
BRANCH   3  13
ATOM     13  N   UNL     1       1.450  -4.955   0.119  0.00  0.00    -0.358 N 
ATOM     14  H   UNL     1       0.584  -4.523   0.060  0.00  0.00    +0.142 HD
ATOM     15  H   UNL     1       1.507  -5.922   0.176  0.00  0.00    +0.142 HD
ENDBRANCH   3  13
BRANCH   1  16
ATOM     16  N   UNL     1       3.620  -0.649  -0.037  0.00  0.00    -0.314 N 
ATOM     17  H   UNL     1       4.318  -0.151  -0.491  0.00  0.00    +0.152 HD
BRANCH  16  21
ATOM     18  C   UNL     1       0.397   1.363   1.665  0.00  0.00    +0.000 A 
ATOM     19  C   UNL     1       0.770   0.123   2.151  0.00  0.00    +0.002 A 
ATOM     20  C   UNL     1       1.838  -0.547   1.588  0.00  0.00    +0.023 A 
ATOM     21  C   UNL     1       2.538   0.026   0.534  0.00  0.00    +0.031 A 
ATOM     22  C   UNL     1       2.161   1.272   0.049  0.00  0.00    +0.023 A 
ATOM     23  C   UNL     1       1.091   1.937   0.616  0.00  0.00    +0.002 A 
ENDBRANCH  16  21
ENDBRANCH   1  16
TORSDOF 5
