REMARK  Name = ZINC63122537
REMARK  8 active torsions:
REMARK  status: ('A' for Active; 'I' for Inactive)
REMARK    1  A    between atoms: C_4  and  C_7
REMARK    2  A    between atoms: C_7  and  O_8
REMARK    3  A    between atoms: O_8  and  C_9
REMARK    4  A    between atoms: N_11  and  C_12
REMARK    5  A    between atoms: C_12  and  C_14
REMARK    6  A    between atoms: C_12  and  C_24
REMARK    7  A    between atoms: C_14  and  C_15
REMARK    8  A    between atoms: C_29  and  C_32
REMARK                            x       y       z     vdW  Elec       q    Type
REMARK                         _______ _______ _______ _____ _____    ______ ____
ROOT
ATOM      1  C   UNL     1       7.040  -2.571   2.879  0.00  0.00    +0.166 C 
ENDROOT
BRANCH   1   2
ATOM      2  C   UNL     1       6.992  -3.175   4.258  0.00  0.00    +0.236 C 
ATOM      3  O   UNL     1       6.141  -2.820   5.046  0.00  0.00    -0.274 OA
ATOM      4  N   UNL     1       7.894  -4.111   4.616  0.00  0.00    -0.300 N 
ATOM      5  C   UNL     1       9.000  -4.466   3.718  0.00  0.00    +0.108 C 
ATOM      6  C   UNL     1       8.994  -5.983   3.504  0.00  0.00    +0.032 C 
ATOM      7  C   UNL     1       9.037  -6.686   4.863  0.00  0.00    +0.078 C 
ATOM      8  C   UNL     1       7.796  -6.308   5.674  0.00  0.00    +0.032 C 
ATOM      9  C   UNL     1       7.792  -4.790   5.915  0.00  0.00    +0.108 C 
BRANCH   7  10
ATOM     10  C   UNL     1       9.066  -8.178   4.656  0.00  0.00    +0.214 C 
ATOM     11  O   UNL     1       9.053  -8.635   3.532  0.00  0.00    -0.276 OA
ATOM     12  N   UNL     1       9.106  -9.006   5.719  0.00  0.00    -0.329 N 
ATOM     13  H   UNL     1       9.116  -8.640   6.617  0.00  0.00    +0.145 HD
ATOM     14  H   UNL     1       9.124  -9.966   5.585  0.00  0.00    +0.145 HD
ENDBRANCH   7  10
ENDBRANCH   1   2
BRANCH   1  17
ATOM     15  C   UNL     1       5.362  -1.924   1.235  0.00  0.00    +0.401 C 
ATOM     16  O   UNL     1       6.138  -2.250   0.358  0.00  0.00    -0.226 OA
ATOM     17  N   UNL     1       5.718  -2.045   2.529  0.00  0.00    -0.270 N 
ATOM     18  H   UNL     1       5.099  -1.785   3.229  0.00  0.00    +0.153 HD
BRANCH  15  19
ATOM     19  O   UNL     1       4.147  -1.441   0.913  0.00  0.00    -0.446 OA
BRANCH  19  20
ATOM     20  C   UNL     1       3.837  -1.339  -0.478  0.00  0.00    +0.269 C 
BRANCH  20  24
ATOM     21  C   UNL     1      -0.105   0.238  -0.948  0.00  0.00    +0.000 A 
ATOM     22  C   UNL     1       0.979   1.093  -0.889  0.00  0.00    +0.000 A 
ATOM     23  C   UNL     1       2.255   0.583  -0.737  0.00  0.00    +0.007 A 
ATOM     24  C   UNL     1       2.446  -0.783  -0.643  0.00  0.00    -0.010 A 
ATOM     25  C   UNL     1       1.362  -1.638  -0.700  0.00  0.00    +0.007 A 
ATOM     26  C   UNL     1       0.086  -1.128  -0.854  0.00  0.00    +0.000 A 
ENDBRANCH  20  24
ENDBRANCH  19  20
ENDBRANCH  15  19
ENDBRANCH   1  17
BRANCH   1  27
ATOM     27  C   UNL     1       8.064  -1.434   2.856  0.00  0.00    +0.065 C 
BRANCH  27  28
ATOM     28  C   UNL     1       8.215  -0.922   1.447  0.00  0.00    -0.039 C 
ATOM     29  C   UNL     1       7.576   0.133   0.891  0.00  0.00    -0.001 A 
ATOM     30  C   UNL     1       6.586   1.083   1.413  0.00  0.00    +0.010 A 
ATOM     31  C   UNL     1       6.118   2.056   0.599  0.00  0.00    +0.001 A 
ATOM     32  C   UNL     1       6.554   2.180  -0.728  0.00  0.00    +0.002 A 
ATOM     33  C   UNL     1       7.461   1.345  -1.278  0.00  0.00    +0.026 A 
ATOM     34  C   UNL     1       8.020   0.285  -0.513  0.00  0.00    +0.043 A 
ATOM     35  N   UNL     1       8.899  -0.639  -0.814  0.00  0.00    -0.380 N 
ATOM     36  C   UNL     1       9.117  -1.480   0.369  0.00  0.00    +0.144 C 
ATOM     37  H   UNL     1       9.336  -0.747  -1.673  0.00  0.00    +0.160 HD
ENDBRANCH  27  28
ENDBRANCH   1  27
TORSDOF 8
