REMARK  Name = ZINC41634421
REMARK  12 active torsions:
REMARK  status: ('A' for Active; 'I' for Inactive)
REMARK    1  A    between atoms: C_1  and  C_2
REMARK    2  A    between atoms: C_2  and  C_3
REMARK    3  A    between atoms: C_8  and  O_27
REMARK    4  A    between atoms: C_9  and  C_11
REMARK    5  A    between atoms: C_11  and  C_13
REMARK    6  A    between atoms: C_11  and  N_20
REMARK    7  A    between atoms: N_20  and  C_21
REMARK    8  A    between atoms: N_20  and  C_24
REMARK    9  A    between atoms: C_21  and  C_22
REMARK   10  A    between atoms: C_22  and  O_23
REMARK   11  A    between atoms: C_24  and  C_25
REMARK   12  A    between atoms: C_25  and  O_26
REMARK                            x       y       z     vdW  Elec       q    Type
REMARK                         _______ _______ _______ _____ _____    ______ ____
ROOT
ATOM      1  C   UNL     1       3.217  -2.810   6.181  0.00  0.00    +0.006 C 
ENDROOT
BRANCH   1   8
ATOM      2  C   UNL     1       1.397  -0.391   1.044  0.00  0.00    +0.152 A 
ATOM      3  N   UNL     1       2.708  -0.519   1.236  0.00  0.00    -0.205 NA
ATOM      4  C   UNL     1       2.923  -1.062   2.403  0.00  0.00    +0.199 A 
ATOM      5  N   UNL     1       1.733  -1.309   3.017  0.00  0.00    -0.173 N 
ATOM      6  N   UNL     1       0.763  -0.848   2.090  0.00  0.00    -0.147 NA
ATOM      7  C   UNL     1       1.776  -1.885   4.264  0.00  0.00    +0.225 A 
ATOM      8  C   UNL     1       2.948  -2.184   4.837  0.00  0.00    +0.045 A 
ATOM      9  S   UNL     1       4.109  -1.645   3.591  0.00  0.00    -0.050 S 
BRANCH   2  11
ATOM     10  C   UNL     1       0.575   1.702   0.000  0.00  0.00    +0.012 C 
ATOM     11  C   UNL     1       0.748   0.193  -0.184  0.00  0.00    +0.075 C 
ENDBRANCH   2  11
BRANCH   7  12
ATOM     12  O   UNL     1       0.616  -2.154   4.923  0.00  0.00    -0.492 OA
ATOM     13  H   UNL     1      -0.180  -1.905   4.434  0.00  0.00    +0.294 HD
ENDBRANCH   7  12
ENDBRANCH   1   8
BRANCH   1  14
ATOM     14  C   UNL     1       4.262  -2.005   6.910  0.00  0.00    -0.056 A 
ATOM     15  C   UNL     1       5.589  -2.090   6.532  0.00  0.00    +0.004 A 
ATOM     16  C   UNL     1       6.547  -1.352   7.200  0.00  0.00    +0.020 A 
ATOM     17  C   UNL     1       6.178  -0.526   8.248  0.00  0.00    +0.041 A 
ATOM     18  C   UNL     1       4.850  -0.441   8.626  0.00  0.00    +0.020 A 
ATOM     19  C   UNL     1       3.892  -1.176   7.953  0.00  0.00    +0.004 A 
ATOM     20 CL   UNL     1       7.381   0.401   9.088  0.00  0.00    -0.084 Cl
ENDBRANCH   1  14
BRANCH   1  21
ATOM     21  N   UNL     1       3.702  -4.184   5.993  0.00  0.00    +0.390 N 
ATOM     22  H   UNL     1       4.615  -4.163   5.566  0.00  0.00    -0.080 HD
BRANCH  21  23
ATOM     23  C   UNL     1       3.787  -4.856   7.297  0.00  0.00    -0.049 C 
BRANCH  23  24
ATOM     24  C   UNL     1       5.020  -4.354   8.050  0.00  0.00    +0.137 C 
BRANCH  24  25
ATOM     25  O   UNL     1       4.691  -3.159   8.760  0.00  0.00    -0.397 OA
ATOM     26  H   UNL     1       5.442  -2.750   9.212  0.00  0.00    +0.209 HD
ENDBRANCH  24  25
ENDBRANCH  23  24
ENDBRANCH  21  23
BRANCH  21  27
ATOM     27  C   UNL     1       2.771  -4.917   5.124  0.00  0.00    -0.049 C 
BRANCH  27  28
ATOM     28  C   UNL     1       3.098  -4.617   3.660  0.00  0.00    +0.137 C 
BRANCH  28  29
ATOM     29  O   UNL     1       4.420  -5.073   3.364  0.00  0.00    -0.397 OA
ATOM     30  H   UNL     1       4.695  -4.915   2.450  0.00  0.00    +0.209 HD
ENDBRANCH  28  29
ENDBRANCH  27  28
ENDBRANCH  21  27
ENDBRANCH   1  21
TORSDOF 11
