REMARK  Name = ZINC43743791
REMARK  9 active torsions:
REMARK  status: ('A' for Active; 'I' for Inactive)
REMARK    1  A    between atoms: C_1  and  C_2
REMARK    2  A    between atoms: N_4  and  C_5
REMARK    3  A    between atoms: C_7  and  O_42
REMARK    4  A    between atoms: C_9  and  O_41
REMARK    5  A    between atoms: C_11  and  C_39
REMARK    6  A    between atoms: C_14  and  O_16
REMARK    7  A    between atoms: O_16  and  C_17
REMARK    8  A    between atoms: C_31  and  C_38
REMARK    9  A    between atoms: C_39  and  O_40
REMARK                            x       y       z     vdW  Elec       q    Type
REMARK                         _______ _______ _______ _____ _____    ______ ____
ROOT
ATOM      1  O   UNL     1      -1.970  -1.779   1.682  0.00  0.00    -0.462 OA
ENDROOT
BRANCH   1   2
ATOM      2  C   UNL     1      -3.276  -2.154   1.686  0.00  0.00    +0.124 A 
ATOM      3  C   UNL     1      -3.790  -2.900   0.635  0.00  0.00    +0.046 A 
ATOM      4  C   UNL     1      -5.114  -3.281   0.653  0.00  0.00    +0.008 A 
ATOM      5  C   UNL     1      -5.940  -2.923   1.711  0.00  0.00    -0.041 A 
ATOM      6  C   UNL     1      -5.435  -2.173   2.752  0.00  0.00    -0.040 A 
ATOM      7  C   UNL     1      -4.098  -1.799   2.742  0.00  0.00    +0.049 A 
ATOM      8  C   UNL     1      -6.277  -1.723   3.918  0.00  0.00    +0.036 C 
ATOM      9  C   UNL     1      -7.585  -2.509   3.992  0.00  0.00    +0.009 C 
ATOM     10  C   UNL     1      -8.226  -2.503   2.604  0.00  0.00    +0.001 C 
ATOM     11  C   UNL     1      -7.369  -3.381   1.684  0.00  0.00    +0.023 C 
ATOM     12  C   UNL     1      -7.928  -3.419   0.270  0.00  0.00    +0.009 C 
ATOM     13  C   UNL     1      -9.393  -3.899   0.279  0.00  0.00    +0.015 C 
ATOM     14  C   UNL     1     -10.175  -2.971   1.182  0.00  0.00    +0.029 C 
ATOM     15  C   UNL     1      -9.620  -3.099   2.627  0.00  0.00    +0.006 C 
ATOM     16  C   UNL     1     -10.669  -2.315   3.426  0.00  0.00    +0.012 C 
ATOM     17  C   UNL     1     -12.000  -2.755   2.757  0.00  0.00    +0.075 C 
ATOM     18  C   UNL     1     -11.640  -3.246   1.345  0.00  0.00    +0.139 C 
ATOM     19  O   UNL     1     -12.385  -3.730   0.527  0.00  0.00    -0.297 OA
ATOM     20  C   UNL     1      -9.980  -1.527   0.716  0.00  0.00    +0.019 C 
ENDBRANCH   1   2
BRANCH   1  26
ATOM     21  C   UNL     1       0.216  -1.567   0.670  0.00  0.00    +0.173 C 
ATOM     22  C   UNL     1       1.073  -2.051  -0.504  0.00  0.00    +0.172 C 
ATOM     23  C   UNL     1       1.109  -3.583  -0.497  0.00  0.00    +0.176 C 
ATOM     24  C   UNL     1      -0.323  -4.120  -0.564  0.00  0.00    +0.179 C 
ATOM     25  O   UNL     1      -1.074  -3.607   0.538  0.00  0.00    -0.332 OA
ATOM     26  C   UNL     1      -1.182  -2.182   0.560  0.00  0.00    +0.331 C 
BRANCH  21  30
ATOM     27  C   UNL     1      -0.241   2.085   1.722  0.00  0.00    +0.109 C 
ATOM     28  C   UNL     1      -0.135   0.582   1.762  0.00  0.00    +0.210 C 
ATOM     29  O   UNL     1      -0.272  -0.007   2.813  0.00  0.00    -0.276 OA
ATOM     30  N   UNL     1       0.113  -0.106   0.630  0.00  0.00    -0.304 N 
ATOM     31  H   UNL     1       0.223   0.365  -0.210  0.00  0.00    +0.149 HD
ENDBRANCH  21  30
BRANCH  23  32
ATOM     32  O   UNL     1       1.847  -4.048  -1.629  0.00  0.00    -0.387 OA
ATOM     33  H   UNL     1       1.911  -5.011  -1.689  0.00  0.00    +0.210 HD
ENDBRANCH  23  32
BRANCH  22  34
ATOM     34  O   UNL     1       2.400  -1.540  -0.369  0.00  0.00    -0.387 OA
ATOM     35  H   UNL     1       2.999  -1.808  -1.080  0.00  0.00    +0.210 HD
ENDBRANCH  22  34
BRANCH  24  36
ATOM     36  C   UNL     1      -0.299  -5.648  -0.498  0.00  0.00    +0.190 C 
BRANCH  36  37
ATOM     37  O   UNL     1      -1.624  -6.154  -0.677  0.00  0.00    -0.392 OA
ATOM     38  H   UNL     1      -1.684  -7.118  -0.646  0.00  0.00    +0.210 HD
ENDBRANCH  36  37
ENDBRANCH  24  36
ENDBRANCH   1  26
TORSDOF 7
