REMARK  Name = ZINC40431004
REMARK  4 active torsions:
REMARK  status: ('A' for Active; 'I' for Inactive)
REMARK    1  A    between atoms: C_1  and  C_2
REMARK    2  A    between atoms: C_2  and  C_4
REMARK    3  A    between atoms: C_2  and  N_20
REMARK    4  A    between atoms: C_8  and  C_17
REMARK                            x       y       z     vdW  Elec       q    Type
REMARK                         _______ _______ _______ _____ _____    ______ ____
ROOT
ATOM      1  C   UNL     1       0.692  -0.550   1.115  0.00  0.00    +0.205 C 
ATOM      2  O   UNL     1       0.114  -0.269   0.086  0.00  0.00    -0.277 OA
ATOM      3  N   UNL     1       0.187  -0.154   2.300  0.00  0.00    -0.266 N 
ATOM      4  C   UNL     1       0.918  -0.392   3.557  0.00  0.00    +0.168 C 
ATOM      5  C   UNL     1      -0.103  -0.852   4.607  0.00  0.00    +0.276 C 
ATOM      6  O   UNL     1      -1.105   0.157   4.748  0.00  0.00    -0.476 OA
ATOM      7  C   UNL     1      -1.682   0.640   3.616  0.00  0.00    +0.143 A 
ATOM      8  C   UNL     1      -1.052   0.504   2.381  0.00  0.00    +0.078 A 
ATOM      9  C   UNL     1      -1.645   1.010   1.235  0.00  0.00    +0.027 A 
ATOM     10  C   UNL     1      -2.866   1.654   1.319  0.00  0.00    +0.002 A 
ATOM     11  C   UNL     1      -3.493   1.793   2.543  0.00  0.00    +0.004 A 
ATOM     12  C   UNL     1      -2.909   1.281   3.691  0.00  0.00    +0.047 A 
ENDROOT
BRANCH   5  13
ATOM     13  C   UNL     1       0.592  -1.065   5.928  0.00  0.00    +0.253 C 
ATOM     14  O   UNL     1       0.318  -0.363   6.878  0.00  0.00    -0.272 OA
ATOM     15  N   UNL     1       1.518  -2.037   6.053  0.00  0.00    -0.326 N 
ATOM     16  H   UNL     1       1.737  -2.599   5.293  0.00  0.00    +0.145 HD
ATOM     17  H   UNL     1       1.965  -2.174   6.902  0.00  0.00    +0.145 HD
ENDBRANCH   5  13
BRANCH   1  19
ATOM     18  C   UNL     1       1.672  -2.817   1.327  0.00  0.00    -0.005 C 
ATOM     19  C   UNL     1       1.974  -1.340   1.067  0.00  0.00    +0.010 C 
BRANCH  19  20
ATOM     20  N   UNL     1       2.592  -1.192  -0.257  0.00  0.00    +0.386 N 
ATOM     21  H   UNL     1       1.958  -1.536  -0.964  0.00  0.00    -0.089 HD
ATOM     22  H   UNL     1       2.791  -0.218  -0.429  0.00  0.00    -0.089 HD
ATOM     23  H   UNL     1       3.450  -1.722  -0.289  0.00  0.00    -0.089 HD
ENDBRANCH  19  20
ENDBRANCH   1  19
TORSDOF 3
