REMARK  Name = ZINC38680095
REMARK  8 active torsions:
REMARK  status: ('A' for Active; 'I' for Inactive)
REMARK    1  A    between atoms: C_3  and  O_8
REMARK    2  A    between atoms: O_8  and  C_9
REMARK    3  A    between atoms: C_9  and  C_10
REMARK    4  A    between atoms: C_10  and  O_12
REMARK    5  A    between atoms: O_12  and  C_13
REMARK    6  A    between atoms: C_20  and  N_34
REMARK    7  A    between atoms: C_21  and  C_32
REMARK    8  A    between atoms: C_22  and  C_24
REMARK                            x       y       z     vdW  Elec       q    Type
REMARK                         _______ _______ _______ _____ _____    ______ ____
ROOT
ATOM      1  C   UNL     1       8.284   2.582  -0.099  0.00  0.00    +0.135 A 
ATOM      2  C   UNL     1       8.140   3.961  -0.047  0.00  0.00    +0.047 A 
ATOM      3  C   UNL     1       9.256   4.774  -0.088  0.00  0.00    +0.012 A 
ATOM      4  C   UNL     1      10.520   4.219  -0.181  0.00  0.00    +0.008 A 
ATOM      5  C   UNL     1      10.670   2.842  -0.233  0.00  0.00    +0.138 A 
ATOM      6  C   UNL     1       9.549   2.023  -0.185  0.00  0.00    +0.093 A 
ATOM      7  O   UNL     1      11.900   2.279  -0.324  0.00  0.00    -0.441 OA
ATOM      8  C   UNL     1      12.989   2.989   0.016  0.00  0.00    +0.199 C 
ATOM      9  C   UNL     1      12.970   4.341   0.081  0.00  0.00    +0.098 C 
ATOM     10  C   UNL     1      11.724   5.122  -0.226  0.00  0.00    +0.101 C 
ENDROOT
BRANCH  10  11
ATOM     11  C   UNL     1      11.841   5.730  -1.600  0.00  0.00    +0.002 A 
ATOM     12  C   UNL     1      11.986   4.914  -2.708  0.00  0.00    +0.046 A 
ATOM     13  C   UNL     1      12.094   5.473  -3.969  0.00  0.00    +0.020 A 
ATOM     14  C   UNL     1      12.056   6.846  -4.122  0.00  0.00    +0.003 A 
ATOM     15  C   UNL     1      11.912   7.662  -3.016  0.00  0.00    +0.020 A 
ATOM     16  C   UNL     1      11.798   7.104  -1.755  0.00  0.00    +0.046 A 
ATOM     17 CL   UNL     1      11.608   8.128  -0.366  0.00  0.00    -0.083 Cl
ATOM     18 CL   UNL     1      12.034   3.189  -2.515  0.00  0.00    -0.083 Cl
ENDBRANCH  10  11
BRANCH   8  19
ATOM     19  N   UNL     1      14.154   2.324   0.306  0.00  0.00    -0.328 N 
ATOM     20  H   UNL     1      14.182   1.355   0.264  0.00  0.00    +0.145 HD
ATOM     21  H   UNL     1      14.948   2.822   0.553  0.00  0.00    +0.145 HD
ENDBRANCH   8  19
BRANCH   9  22
ATOM     22  C   UNL     1      14.164   5.042   0.451  0.00  0.00    +0.101 C 
ATOM     23  N   UNL     1      15.110   5.597   0.744  0.00  0.00    -0.191 NA
ENDBRANCH   9  22
BRANCH   1  24
ATOM     24  O   UNL     1       7.187   1.781  -0.058  0.00  0.00    -0.423 OA
BRANCH  24  25
ATOM     25  C   UNL     1       6.455   1.657  -1.177  0.00  0.00    +0.350 C 
ATOM     26  O   UNL     1       6.727   2.317  -2.152  0.00  0.00    -0.247 OA
BRANCH  25  27
ATOM     27  C   UNL     1       5.295   0.696  -1.216  0.00  0.00    +0.349 C 
BRANCH  27  28
ATOM     28  O   UNL     1       4.680   0.745  -2.505  0.00  0.00    -0.481 OA
BRANCH  28  31
ATOM     29  C   UNL     1       1.877  -0.899  -4.142  0.00  0.00    +0.005 A 
ATOM     30  C   UNL     1       2.964  -0.071  -3.937  0.00  0.00    +0.046 A 
ATOM     31  C   UNL     1       3.610  -0.068  -2.709  0.00  0.00    +0.123 A 
ATOM     32  C   UNL     1       3.162  -0.896  -1.690  0.00  0.00    +0.065 A 
ATOM     33  C   UNL     1       2.074  -1.722  -1.900  0.00  0.00    +0.044 A 
ATOM     34  C   UNL     1       1.432  -1.723  -3.126  0.00  0.00    +0.020 A 
ATOM     35 CL   UNL     1       1.513  -2.759  -0.626  0.00  0.00    -0.083 Cl
ENDBRANCH  28  31
ENDBRANCH  27  28
ENDBRANCH  25  27
ENDBRANCH  24  25
ENDBRANCH   1  24
TORSDOF 8
