REMARK  Name = ZINC67501625
REMARK  10 active torsions:
REMARK  status: ('A' for Active; 'I' for Inactive)
REMARK    1  A    between atoms: C_1  and  O_2
REMARK    2  A    between atoms: O_2  and  C_3
REMARK    3  A    between atoms: C_5  and  C_16
REMARK    4  A    between atoms: C_7  and  O_14
REMARK    5  A    between atoms: C_8  and  O_9
REMARK    6  A    between atoms: O_9  and  C_10
REMARK    7  A    between atoms: C_10  and  C_11
REMARK    8  A    between atoms: O_14  and  C_15
REMARK    9  A    between atoms: C_16  and  N_17
REMARK   10  A    between atoms: N_17  and  C_18
REMARK                            x       y       z     vdW  Elec       q    Type
REMARK                         _______ _______ _______ _____ _____    ______ ____
ROOT
ATOM      1  C   UNL     1       0.643  -0.519  -0.978  0.00  0.00    +0.165 A 
ATOM      2  C   UNL     1       1.217   0.249  -1.979  0.00  0.00    +0.051 A 
ATOM      3  C   UNL     1       1.754  -0.359  -3.098  0.00  0.00    -0.057 A 
ATOM      4  C   UNL     1       1.721  -1.735  -3.224  0.00  0.00    +0.051 A 
ATOM      5  C   UNL     1       1.149  -2.511  -2.228  0.00  0.00    +0.165 A 
ATOM      6  C   UNL     1       0.613  -1.903  -1.098  0.00  0.00    +0.204 A 
ENDROOT
BRANCH   1   8
ATOM      7  C   UNL     1       0.182   1.507   0.179  0.00  0.00    +0.277 C 
ATOM      8  O   UNL     1       0.116   0.081   0.123  0.00  0.00    -0.491 OA
ENDBRANCH   1   8
BRANCH   5   9
ATOM      9  O   UNL     1       1.116  -3.865  -2.353  0.00  0.00    -0.491 OA
ATOM     10  C   UNL     1       1.690  -4.421  -3.537  0.00  0.00    +0.277 C 
ENDBRANCH   5   9
BRANCH   6  11
ATOM     11  O   UNL     1       0.056  -2.662  -0.115  0.00  0.00    -0.476 OA
BRANCH  11  12
ATOM     12  C   UNL     1      -1.340  -2.948  -0.229  0.00  0.00    +0.324 C 
BRANCH  12  13
ATOM     13  C   UNL     1      -1.777  -3.792   0.941  0.00  0.00    +0.248 C 
ATOM     14  O   UNL     1      -0.972  -4.116   1.788  0.00  0.00    -0.272 OA
ATOM     15  N   UNL     1      -3.061  -4.186   1.045  0.00  0.00    -0.327 N 
ATOM     16  H   UNL     1      -3.705  -3.926   0.367  0.00  0.00    +0.145 HD
ATOM     17  H   UNL     1      -3.343  -4.729   1.798  0.00  0.00    +0.145 HD
ENDBRANCH  12  13
ENDBRANCH  11  12
ENDBRANCH   6  11
BRANCH   3  18
ATOM     18  C   UNL     1       2.376   0.480  -4.184  0.00  0.00    -0.046 C 
BRANCH  18  19
ATOM     19  N   UNL     1       3.806   0.665  -3.901  0.00  0.00    +0.386 N 
ATOM     20  H   UNL     1       3.914   1.203  -3.054  0.00  0.00    -0.085 HD
ATOM     21  H   UNL     1       4.245  -0.236  -3.786  0.00  0.00    -0.085 HD
BRANCH  19  22
ATOM     22  C   UNL     1       4.438   1.379  -5.019  0.00  0.00    -0.040 C 
ATOM     23  C   UNL     1       3.953   2.844  -5.061  0.00  0.00    -0.007 C 
ATOM     24  C   UNL     1       5.210   3.595  -5.550  0.00  0.00    +0.034 C 
ATOM     25  C   UNL     1       6.378   2.737  -5.114  0.00  0.00    -0.044 A 
ATOM     26  C   UNL     1       5.935   1.461  -4.811  0.00  0.00    -0.058 A 
ATOM     27  C   UNL     1       6.836   0.498  -4.388  0.00  0.00    +0.004 A 
ATOM     28  C   UNL     1       8.177   0.805  -4.270  0.00  0.00    +0.020 A 
ATOM     29  C   UNL     1       8.623   2.079  -4.574  0.00  0.00    +0.041 A 
ATOM     30  C   UNL     1       7.722   3.046  -4.994  0.00  0.00    +0.023 A 
ATOM     31 CL   UNL     1      10.309   2.468  -4.426  0.00  0.00    -0.084 Cl
ENDBRANCH  19  22
ENDBRANCH  18  19
ENDBRANCH   3  18
TORSDOF 8
