REMARK  Name = ZINC39631230
REMARK  15 active torsions:
REMARK  status: ('A' for Active; 'I' for Inactive)
REMARK    1  A    between atoms: C_1  and  C_2
REMARK    2  A    between atoms: C_2  and  C_4
REMARK    3  A    between atoms: C_2  and  N_11
REMARK    4  A    between atoms: C_4  and  C_5
REMARK    5  A    between atoms: C_5  and  C_6
REMARK    6  A    between atoms: C_6  and  C_7
REMARK    7  A    between atoms: C_7  and  C_8
REMARK    8  A    between atoms: C_7  and  C_9
REMARK    9  A    between atoms: C_7  and  O_10
REMARK   10  A    between atoms: C_12  and  C_14
REMARK   11  A    between atoms: C_25  and  C_27
REMARK   12  A    between atoms: C_29  and  O_35
REMARK   13  A    between atoms: C_31  and  O_33
REMARK   14  A    between atoms: O_33  and  C_34
REMARK   15  A    between atoms: O_35  and  C_36
REMARK                            x       y       z     vdW  Elec       q    Type
REMARK                         _______ _______ _______ _____ _____    ______ ____
ROOT
ATOM      1  C   UNL     1      -4.046  -1.424  -0.876  0.00  0.00    +0.100 C 
ATOM      2  C   UNL     1      -4.678  -0.290  -0.039  0.00  0.00    +0.121 C 
ATOM      3  N   UNL     1      -5.232   0.652  -1.041  0.00  0.00    -0.296 N 
ATOM      4  C   UNL     1      -5.797  -0.223  -2.095  0.00  0.00    +0.115 C 
ATOM      5  C   UNL     1      -4.785  -1.379  -2.224  0.00  0.00    -0.004 C 
ATOM      6  C   UNL     1      -5.516  -2.696  -2.469  0.00  0.00    -0.010 C 
ATOM      7  C   UNL     1      -6.195  -2.650  -3.841  0.00  0.00    -0.082 C 
ATOM      8  N   UNL     1      -5.185  -2.426  -4.882  0.00  0.00    +0.379 N 
ATOM      9  C   UNL     1      -4.552  -1.115  -4.692  0.00  0.00    -0.082 C 
ATOM     10  C   UNL     1      -3.803  -1.097  -3.356  0.00  0.00    -0.010 C 
ATOM     11  C   UNL     1      -5.223   1.999  -1.002  0.00  0.00    +0.247 C 
ATOM     12  O   UNL     1      -4.610   2.578  -0.126  0.00  0.00    -0.270 OA
ATOM     13  H   UNL     1      -4.483  -3.148  -4.828  0.00  0.00    -0.086 HD
ATOM     14  H   UNL     1      -5.626  -2.457  -5.789  0.00  0.00    -0.086 HD
ENDROOT
BRANCH  11  15
ATOM     15  C   UNL     1      -5.960   2.773  -2.024  0.00  0.00    +0.044 A 
ATOM     16  C   UNL     1      -6.994   2.173  -2.744  0.00  0.00    +0.059 A 
ATOM     17  C   UNL     1      -7.682   2.902  -3.700  0.00  0.00    +0.124 A 
ATOM     18  C   UNL     1      -7.345   4.226  -3.942  0.00  0.00    +0.091 A 
ATOM     19  C   UNL     1      -6.318   4.826  -3.228  0.00  0.00    +0.124 A 
ATOM     20  C   UNL     1      -5.628   4.106  -2.266  0.00  0.00    +0.059 A 
BRANCH  19  21
ATOM     21  O   UNL     1      -5.991   6.123  -3.468  0.00  0.00    -0.495 OA
ATOM     22  C   UNL     1      -6.747   6.807  -4.470  0.00  0.00    +0.277 C 
ENDBRANCH  19  21
BRANCH  17  23
ATOM     23  O   UNL     1      -8.688   2.319  -4.403  0.00  0.00    -0.495 OA
ATOM     24  C   UNL     1      -9.356   3.129  -5.373  0.00  0.00    +0.277 C 
ENDBRANCH  17  23
ENDBRANCH  11  15
BRANCH   1  26
ATOM     25  N   UNL     1      -1.738  -2.200  -1.312  0.00  0.00    -0.312 N 
ATOM     26  C   UNL     1      -2.574  -1.169  -1.077  0.00  0.00    +0.218 C 
ATOM     27  O   UNL     1      -2.142  -0.037  -1.027  0.00  0.00    -0.275 OA
ATOM     28  H   UNL     1      -2.084  -3.106  -1.352  0.00  0.00    +0.149 HD
BRANCH  25  30
ATOM     29  C   UNL     1       0.390  -1.889  -0.146  0.00  0.00    +0.028 C 
ATOM     30  C   UNL     1      -0.307  -1.953  -1.507  0.00  0.00    +0.070 C 
BRANCH  30  31
ATOM     31  C   UNL     1       0.298  -3.087  -2.337  0.00  0.00    +0.022 C 
BRANCH  31  32
ATOM     32  C   UNL     1      -0.311  -3.072  -3.741  0.00  0.00    +0.005 C 
BRANCH  32  33
ATOM     33  C   UNL     1       0.294  -4.206  -4.571  0.00  0.00    +0.034 C 
BRANCH  33  34
ATOM     34  C   UNL     1      -0.314  -4.192  -5.974  0.00  0.00    +0.061 C 
ATOM     35  C   UNL     1       0.196  -5.399  -6.764  0.00  0.00    +0.041 C 
ATOM     36  C   UNL     1      -1.839  -4.258  -5.870  0.00  0.00    +0.041 C 
BRANCH  34  37
ATOM     37  O   UNL     1       0.065  -2.988  -6.645  0.00  0.00    -0.389 OA
ATOM     38  H   UNL     1       1.020  -2.879  -6.747  0.00  0.00    +0.210 HD
ENDBRANCH  34  37
ENDBRANCH  33  34
ENDBRANCH  32  33
ENDBRANCH  31  32
ENDBRANCH  30  31
ENDBRANCH  25  30
ENDBRANCH   1  26
TORSDOF 10
