REMARK  Name = ZINC14989403
REMARK  8 active torsions:
REMARK  status: ('A' for Active; 'I' for Inactive)
REMARK    1  A    between atoms: C_1  and  C_2
REMARK    2  A    between atoms: C_2  and  C_3
REMARK    3  A    between atoms: C_2  and  C_4
REMARK    4  A    between atoms: C_2  and  C_29
REMARK    5  A    between atoms: C_4  and  N_58
REMARK    6  A    between atoms: C_5  and  N_58
REMARK    7  A    between atoms: N_16  and  C_19
REMARK    8  A    between atoms: C_29  and  O_30
REMARK                            x       y       z     vdW  Elec       q    Type
REMARK                         _______ _______ _______ _____ _____    ______ ____
ROOT
ATOM      1  C   UNL     1      -0.019   1.527   0.010  0.00  0.00    -0.067 C 
ATOM      2  C   UNL     1       0.002  -0.004   0.002  0.00  0.00    -0.011 C 
ATOM      3  C   UNL     1       0.481  -0.509  -1.359  0.00  0.00    +0.035 C 
ATOM      4  C   UNL     1       1.808   0.165  -1.698  0.00  0.00    -0.023 A 
ATOM      5  C   UNL     1       2.184   1.300  -1.063  0.00  0.00    -0.006 A 
ATOM      6  S   UNL     1       3.761   1.722  -1.761  0.00  0.00    -0.073 S 
ATOM      7  C   UNL     1       3.911   0.383  -2.900  0.00  0.00    +0.116 A 
ATOM      8  C   UNL     1       2.723  -0.355  -2.699  0.00  0.00    +0.076 A 
ATOM      9  C   UNL     1       2.545  -1.534  -3.498  0.00  0.00    +0.263 A 
ATOM     10  O   UNL     1       1.556  -2.239  -3.402  0.00  0.00    -0.267 OA
ATOM     11  N   UNL     1       3.546  -1.812  -4.366  0.00  0.00    -0.295 N 
ATOM     12  C   UNL     1       4.654  -1.041  -4.489  0.00  0.00    +0.203 A 
ATOM     13  N   UNL     1       4.853   0.045  -3.775  0.00  0.00    -0.230 NA
ATOM     14  C   UNL     1       1.429   2.038  -0.001  0.00  0.00    +0.027 C 
ENDROOT
BRANCH  11  15
ATOM     15  C   UNL     1       3.427  -3.002  -5.212  0.00  0.00    +0.100 C 
ATOM     16  C   UNL     1       4.645  -3.932  -5.026  0.00  0.00    +0.061 C 
ATOM     17  C   UNL     1       4.900  -4.524  -6.399  0.00  0.00    -0.042 A 
ATOM     18  C   UNL     1       5.639  -5.634  -6.772  0.00  0.00    +0.004 A 
ATOM     19  C   UNL     1       5.730  -5.994  -8.102  0.00  0.00    +0.000 A 
ATOM     20  C   UNL     1       5.080  -5.244  -9.065  0.00  0.00    +0.000 A 
ATOM     21  C   UNL     1       4.343  -4.137  -8.695  0.00  0.00    +0.004 A 
ATOM     22  C   UNL     1       4.250  -3.775  -7.361  0.00  0.00    -0.042 A 
ATOM     23  C   UNL     1       3.517  -2.624  -6.706  0.00  0.00    +0.061 C 
ENDBRANCH  11  15
BRANCH   1  24
ATOM     24  N   UNL     1      -0.701   1.999   1.230  0.00  0.00    +0.382 N 
ATOM     25  H   UNL     1      -1.460   1.349   1.466  0.00  0.00    -0.085 HD
ATOM     26  H   UNL     1      -0.027   2.033   2.004  0.00  0.00    -0.085 HD
BRANCH  24  27
ATOM     27  C   UNL     1      -1.263   3.346   1.014  0.00  0.00    -0.074 C 
BRANCH  27  29
ATOM     28  C   UNL     1      -3.088   2.830   2.641  0.00  0.00    +0.011 C 
ATOM     29  C   UNL     1      -1.963   3.808   2.294  0.00  0.00    -0.027 C 
ATOM     30  C   UNL     1      -0.953   3.850   3.442  0.00  0.00    +0.011 C 
BRANCH  29  31
ATOM     31  C   UNL     1      -2.549   5.205   2.079  0.00  0.00    +0.160 C 
BRANCH  31  32
ATOM     32  O   UNL     1      -3.203   5.636   3.274  0.00  0.00    -0.395 OA
ATOM     33  H   UNL     1      -3.599   6.516   3.210  0.00  0.00    +0.209 HD
ENDBRANCH  31  32
ENDBRANCH  29  31
ENDBRANCH  27  29
ENDBRANCH  24  27
ENDBRANCH   1  24
TORSDOF 6
