REMARK  Name = ZINC36500829
REMARK  12 active torsions:
REMARK  status: ('A' for Active; 'I' for Inactive)
REMARK    1  A    between atoms: C_1  and  C_2
REMARK    2  A    between atoms: C_2  and  C_3
REMARK    3  A    between atoms: C_2  and  C_4
REMARK    4  A    between atoms: C_2  and  N_5
REMARK    5  A    between atoms: C_6  and  C_8
REMARK    6  A    between atoms: C_8  and  C_10
REMARK    7  A    between atoms: C_8  and  N_18
REMARK    8  A    between atoms: N_18  and  C_19
REMARK    9  A    between atoms: C_19  and  C_20
REMARK   10  A    between atoms: C_25  and  C_27
REMARK   11  A    between atoms: C_31  and  O_34
REMARK   12  A    between atoms: C_32  and  O_33
REMARK                            x       y       z     vdW  Elec       q    Type
REMARK                         _______ _______ _______ _____ _____    ______ ____
ROOT
ATOM      1  N   UNL     1       3.830  -0.069  -2.719  0.00  0.00    -0.274 N 
ATOM      2  C   UNL     1       3.920   1.274  -2.792  0.00  0.00    +0.252 C 
ATOM      3  O   UNL     1       5.012   1.810  -2.808  0.00  0.00    -0.270 OA
ENDROOT
BRANCH   2   4
ATOM      4  C   UNL     1       2.695   2.093  -2.852  0.00  0.00    +0.082 A 
ATOM      5  C   UNL     1       1.438   1.483  -2.793  0.00  0.00    +0.017 A 
ATOM      6  C   UNL     1       0.296   2.252  -2.849  0.00  0.00    +0.005 A 
ATOM      7  C   UNL     1       0.385   3.630  -2.964  0.00  0.00    +0.049 A 
ATOM      8  C   UNL     1       1.622   4.248  -3.025  0.00  0.00    +0.159 A 
ATOM      9  C   UNL     1       2.785   3.486  -2.963  0.00  0.00    +0.171 A 
BRANCH   9  10
ATOM     10  O   UNL     1       4.000   4.089  -3.016  0.00  0.00    -0.503 OA
ATOM     11  H   UNL     1       4.348   4.194  -3.912  0.00  0.00    +0.292 HD
ENDBRANCH   9  10
BRANCH   8  12
ATOM     12  O   UNL     1       1.701   5.601  -3.138  0.00  0.00    -0.503 OA
ATOM     13  H   UNL     1       1.730   6.066  -2.291  0.00  0.00    +0.292 HD
ENDBRANCH   8  12
ENDBRANCH   2   4
BRANCH   1  14
ATOM     14  C   UNL     1       2.558  -0.699  -2.355  0.00  0.00    +0.196 C 
BRANCH  14  15
ATOM     15  C   UNL     1       2.798  -2.143  -1.996  0.00  0.00    +0.018 A 
ATOM     16  C   UNL     1       3.875  -2.488  -1.199  0.00  0.00    +0.048 A 
ATOM     17  C   UNL     1       4.094  -3.814  -0.870  0.00  0.00    +0.020 A 
ATOM     18  C   UNL     1       3.237  -4.793  -1.336  0.00  0.00    +0.003 A 
ATOM     19  C   UNL     1       2.161  -4.449  -2.132  0.00  0.00    +0.020 A 
ATOM     20  C   UNL     1       1.937  -3.123  -2.458  0.00  0.00    +0.048 A 
ATOM     21 CL   UNL     1       0.581  -2.689  -3.451  0.00  0.00    -0.083 Cl
ATOM     22 CL   UNL     1       4.951  -1.259  -0.614  0.00  0.00    -0.083 Cl
ENDBRANCH  14  15
BRANCH  14  24
ATOM     23  N   UNL     1       0.782  -0.387  -0.662  0.00  0.00    -0.309 N 
ATOM     24  C   UNL     1       1.961   0.020  -1.174  0.00  0.00    +0.239 C 
ATOM     25  O   UNL     1       2.540   0.966  -0.683  0.00  0.00    -0.273 OA
ATOM     26  H   UNL     1       0.319  -1.144  -1.054  0.00  0.00    +0.149 HD
BRANCH  23  28
ATOM     27  C   UNL     1      -0.041   1.778   0.122  0.00  0.00    +0.031 C 
ATOM     28  C   UNL     1       0.202   0.312   0.487  0.00  0.00    +0.026 C 
ATOM     29  C   UNL     1       1.166   0.235   1.672  0.00  0.00    +0.031 C 
ATOM     30  C   UNL     1      -1.127  -0.346   0.866  0.00  0.00    +0.031 C 
ENDBRANCH  23  28
ENDBRANCH  14  24
ENDBRANCH   1  14
BRANCH   1  31
ATOM     31  C   UNL     1       5.004  -0.899  -3.003  0.00  0.00    +0.183 C 
BRANCH  31  32
ATOM     32  C   UNL     1       5.551  -0.547  -4.362  0.00  0.00    +0.122 A 
ATOM     33  C   UNL     1       6.576   0.289  -4.605  0.00  0.00    +0.046 A 
ATOM     34  C   UNL     1       6.750   0.327  -6.008  0.00  0.00    +0.041 A 
ATOM     35  C   UNL     1       5.820  -0.488  -6.538  0.00  0.00    +0.195 A 
ATOM     36  O   UNL     1       5.100  -1.019  -5.536  0.00  0.00    -0.466 OA
ENDBRANCH  31  32
ENDBRANCH   1  31
TORSDOF 9
