REMARK  Name = ZINC17308032
REMARK  12 active torsions:
REMARK  status: ('A' for Active; 'I' for Inactive)
REMARK    1  A    between atoms: C_1  and  C_2
REMARK    2  A    between atoms: C_2  and  N_3
REMARK    3  A    between atoms: N_3  and  C_4
REMARK    4  A    between atoms: C_5  and  N_20
REMARK    5  A    between atoms: N_6  and  C_13
REMARK    6  A    between atoms: C_13  and  C_14
REMARK    7  A    between atoms: C_21  and  C_23
REMARK    8  A    between atoms: C_23  and  N_66
REMARK    9  A    between atoms: C_24  and  C_25
REMARK   10  A    between atoms: C_24  and  N_66
REMARK   11  A    between atoms: C_30  and  C_31
REMARK   12  A    between atoms: C_30  and  N_66
REMARK                            x       y       z     vdW  Elec       q    Type
REMARK                         _______ _______ _______ _____ _____    ______ ____
ROOT
ATOM      1  N   UNL     1      -4.109   0.373  -0.144  0.00  0.00    -0.266 N 
ATOM      2  C   UNL     1      -2.816   0.751  -0.227  0.00  0.00    +0.203 C 
ATOM      3  O   UNL     1      -2.384   1.209  -1.264  0.00  0.00    -0.277 OA
ENDROOT
BRANCH   1   4
ATOM      4  C   UNL     1      -4.929   0.406  -1.292  0.00  0.00    +0.140 A 
ATOM      5  C   UNL     1      -5.208   1.602  -1.921  0.00  0.00    +0.128 A 
ATOM      6  N   UNL     1      -6.011   1.602  -3.038  0.00  0.00    -0.276 N 
ATOM      7  C   UNL     1      -6.517   0.449  -3.513  0.00  0.00    +0.331 A 
ATOM      8  O   UNL     1      -7.223   0.470  -4.502  0.00  0.00    -0.246 OA
ATOM      9  N   UNL     1      -6.255  -0.726  -2.913  0.00  0.00    -0.273 N 
ATOM     10  H   UNL     1      -6.647  -1.568  -3.284  0.00  0.00    +0.173 HD
ATOM     11  C   UNL     1      -5.470  -0.782  -1.819  0.00  0.00    +0.277 A 
ATOM     12  O   UNL     1      -5.235  -1.853  -1.287  0.00  0.00    -0.266 OA
BRANCH   5  13
ATOM     13  N   UNL     1      -4.692   2.779  -1.436  0.00  0.00    -0.343 N 
ATOM     14  H   UNL     1      -4.093   2.769  -0.673  0.00  0.00    +0.144 HD
ATOM     15  H   UNL     1      -4.926   3.621  -1.857  0.00  0.00    +0.144 HD
ENDBRANCH   5  13
BRANCH   6  16
ATOM     16  C   UNL     1      -6.316   2.865  -3.715  0.00  0.00    +0.163 C 
BRANCH  16  17
ATOM     17  C   UNL     1      -5.338   3.079  -4.842  0.00  0.00    -0.028 A 
ATOM     18  C   UNL     1      -4.113   3.668  -4.590  0.00  0.00    +0.005 A 
ATOM     19  C   UNL     1      -3.214   3.861  -5.622  0.00  0.00    +0.000 A 
ATOM     20  C   UNL     1      -3.545   3.475  -6.908  0.00  0.00    +0.000 A 
ATOM     21  C   UNL     1      -4.772   2.891  -7.160  0.00  0.00    +0.000 A 
ATOM     22  C   UNL     1      -5.669   2.693  -6.127  0.00  0.00    +0.005 A 
ENDBRANCH  16  17
ENDBRANCH   6  16
ENDBRANCH   1   4
BRANCH   1  24
ATOM     23  C   UNL     1      -5.333   1.109   1.841  0.00  0.00    +0.025 C 
ATOM     24  C   UNL     1      -4.661  -0.072   1.138  0.00  0.00    +0.110 C 
ENDBRANCH   1  24
BRANCH   2  25
ATOM     25  C   UNL     1      -1.910   0.604   0.968  0.00  0.00    +0.020 C 
BRANCH  25  26
ATOM     26  N   UNL     1      -0.538   0.984   0.573  0.00  0.00    +0.390 N 
ATOM     27  H   UNL     1      -0.317   0.545  -0.329  0.00  0.00    -0.081 HD
BRANCH  26  28
ATOM     28  C   UNL     1      -0.442   2.452   0.429  0.00  0.00    -0.035 C 
BRANCH  28  29
ATOM     29  C   UNL     1       0.892   2.794  -0.184  0.00  0.00    -0.027 A 
ATOM     30  C   UNL     1       1.228   2.900  -1.493  0.00  0.00    +0.009 A 
ATOM     31  C   UNL     1       2.528   3.233  -1.826  0.00  0.00    +0.008 A 
ATOM     32  C   UNL     1       3.430   3.432  -0.834  0.00  0.00    +0.045 A 
ATOM     33  S   UNL     1       2.441   3.157   0.626  0.00  0.00    -0.103 S 
ENDBRANCH  28  29
ENDBRANCH  26  28
BRANCH  26  34
ATOM     34  C   UNL     1       0.429   0.511   1.586  0.00  0.00    -0.046 C 
BRANCH  34  35
ATOM     35  C   UNL     1       0.673  -0.984   1.370  0.00  0.00    +0.102 C 
ATOM     36  C   UNL     1       1.806  -1.468   2.296  0.00  0.00    +0.032 C 
ATOM     37  C   UNL     1       1.150  -2.584   3.146  0.00  0.00    +0.030 C 
ATOM     38  C   UNL     1      -0.068  -2.983   2.274  0.00  0.00    +0.160 C 
ATOM     39  O   UNL     1      -0.508  -1.726   1.716  0.00  0.00    -0.378 OA
ENDBRANCH  34  35
ENDBRANCH  26  34
ENDBRANCH  25  26
ENDBRANCH   2  25
TORSDOF 11
