REMARK  Name = ZINC43287406
REMARK  13 active torsions:
REMARK  status: ('A' for Active; 'I' for Inactive)
REMARK    1  A    between atoms: C_1  and  C_2
REMARK    2  A    between atoms: C_2  and  C_3
REMARK    3  A    between atoms: C_3  and  C_5
REMARK    4  A    between atoms: C_3  and  N_21
REMARK    5  A    between atoms: C_5  and  C_7
REMARK    6  A    between atoms: C_5  and  N_13
REMARK    7  A    between atoms: N_13  and  C_14
REMARK    8  A    between atoms: N_13  and  C_18
REMARK    9  A    between atoms: C_14  and  C_15
REMARK   10  A    between atoms: C_15  and  C_16
REMARK   11  A    between atoms: C_16  and  O_17
REMARK   12  A    between atoms: C_18  and  C_19
REMARK   13  A    between atoms: C_18  and  C_20
REMARK                            x       y       z     vdW  Elec       q    Type
REMARK                         _______ _______ _______ _____ _____    ______ ____
ROOT
ATOM      1  C   UNL     1       0.310  -2.023  -2.210  0.00  0.00    +0.079 C 
ENDROOT
BRANCH   1   2
ATOM      2  C   UNL     1      -1.036  -2.614  -1.879  0.00  0.00    +0.006 A 
ATOM      3  C   UNL     1      -1.733  -2.552  -0.718  0.00  0.00    +0.028 A 
ATOM      4  C   UNL     1      -2.964  -3.176  -0.641  0.00  0.00    +0.025 A 
ATOM      5  C   UNL     1      -3.438  -3.831  -1.729  0.00  0.00    +0.060 A 
ATOM      6  S   UNL     1      -2.131  -3.569  -2.916  0.00  0.00    -0.099 S 
ATOM      7 BR   UNL     1      -3.972  -3.117   0.958  0.00  0.00    -0.050 Br
ENDBRANCH   1   2
BRANCH   1   8
ATOM      8  C   UNL     1       0.165  -1.042  -3.374  0.00  0.00    -0.053 C 
BRANCH   8   9
ATOM      9  N   UNL     1       1.496  -0.602  -3.813  0.00  0.00    +0.381 N 
ATOM     10  H   UNL     1       1.991  -0.199  -3.032  0.00  0.00    -0.090 HD
ATOM     11  H   UNL     1       2.012  -1.393  -4.167  0.00  0.00    -0.090 HD
ATOM     12  H   UNL     1       1.398   0.090  -4.542  0.00  0.00    -0.090 HD
ENDBRANCH   8   9
BRANCH   8  14
ATOM     13  C   UNL     1      -0.902   1.092  -4.116  0.00  0.00    +0.002 C 
ATOM     14  C   UNL     1      -0.650   0.171  -2.921  0.00  0.00    -0.018 C 
ENDBRANCH   8  14
ENDBRANCH   1   8
BRANCH   1  15
ATOM     15  N   UNL     1       1.237  -3.099  -2.589  0.00  0.00    -0.294 NA
BRANCH  15  16
ATOM     16  C   UNL     1       1.775  -3.773  -1.400  0.00  0.00    +0.051 C 
ATOM     17  C   UNL     1       2.718  -2.824  -0.658  0.00  0.00    +0.024 C 
ATOM     18  C   UNL     1       0.624  -4.173  -0.475  0.00  0.00    +0.024 C 
ENDBRANCH  15  16
BRANCH  15  19
ATOM     19  C   UNL     1       0.587  -4.060  -3.490  0.00  0.00    +0.087 C 
BRANCH  19  20
ATOM     20  C   UNL     1       1.655  -4.861  -4.237  0.00  0.00    +0.043 C 
BRANCH  20  21
ATOM     21  C   UNL     1       0.984  -5.769  -5.269  0.00  0.00    +0.157 C 
BRANCH  21  22
ATOM     22  O   UNL     1       1.981  -6.517  -5.966  0.00  0.00    -0.395 OA
ATOM     23  H   UNL     1       1.626  -7.116  -6.638  0.00  0.00    +0.209 HD
ENDBRANCH  21  22
ENDBRANCH  20  21
ENDBRANCH  19  20
ENDBRANCH  15  19
ENDBRANCH   1  15
TORSDOF 10
