REMARK  Name = ZINC63375958
REMARK  7 active torsions:
REMARK  status: ('A' for Active; 'I' for Inactive)
REMARK    1  A    between atoms: C_1  and  C_2
REMARK    2  A    between atoms: C_2  and  C_3
REMARK    3  A    between atoms: C_3  and  C_5
REMARK    4  A    between atoms: C_3  and  N_6
REMARK    5  A    between atoms: C_7  and  C_9
REMARK    6  A    between atoms: C_14  and  N_15
REMARK    7  A    between atoms: C_31  and  C_36
REMARK                            x       y       z     vdW  Elec       q    Type
REMARK                         _______ _______ _______ _____ _____    ______ ____
ROOT
ATOM      1  N   UNL     1       4.724   0.392  -4.933  0.00  0.00    -0.192 N 
ATOM      2  C   UNL     1       4.065   1.344  -5.626  0.00  0.00    +0.248 C 
ATOM      3  O   UNL     1       3.979   2.522  -5.352  0.00  0.00    -0.273 OA
ATOM      4  C   UNL     1       3.456   0.635  -6.816  0.00  0.00    +0.169 C 
ATOM      5  C   UNL     1       1.927   0.809  -6.804  0.00  0.00    +0.065 C 
ATOM      6  C   UNL     1       1.361  -0.346  -7.597  0.00  0.00    -0.034 C 
ATOM      7  C   UNL     1       0.537  -0.359  -8.639  0.00  0.00    -0.001 A 
ATOM      8  C   UNL     1      -0.190   0.721  -9.326  0.00  0.00    +0.010 A 
ATOM      9  C   UNL     1      -0.947   0.350 -10.392  0.00  0.00    +0.001 A 
ATOM     10  C   UNL     1      -1.054  -0.972 -10.837  0.00  0.00    +0.002 A 
ATOM     11  C   UNL     1      -0.427  -2.028 -10.261  0.00  0.00    +0.026 A 
ATOM     12  C   UNL     1       0.393  -1.765  -9.126  0.00  0.00    +0.043 A 
ATOM     13  N   UNL     1       1.082  -2.577  -8.379  0.00  0.00    -0.375 N 
ATOM     14  C   UNL     1       1.700  -1.802  -7.302  0.00  0.00    +0.131 C 
ATOM     15  C   UNL     1       3.231  -1.919  -7.328  0.00  0.00    +0.135 C 
ATOM     16  N   UNL     1       3.778  -0.784  -6.565  0.00  0.00    -0.264 N 
ATOM     17  C   UNL     1       4.584  -0.816  -5.497  0.00  0.00    +0.317 C 
ATOM     18  O   UNL     1       5.125  -1.823  -5.084  0.00  0.00    -0.252 OA
ATOM     19  H   UNL     1       1.172  -3.533  -8.514  0.00  0.00    +0.160 HD
ENDROOT
BRANCH  15  20
ATOM     20  C   UNL     1       3.659  -3.219  -6.699  0.00  0.00    -0.025 A 
ATOM     21  C   UNL     1       3.299  -3.507  -5.395  0.00  0.00    +0.008 A 
ATOM     22  C   UNL     1       3.691  -4.700  -4.817  0.00  0.00    +0.038 A 
ATOM     23  C   UNL     1       4.443  -5.607  -5.544  0.00  0.00    +0.123 A 
ATOM     24  C   UNL     1       4.802  -5.317  -6.850  0.00  0.00    +0.038 A 
ATOM     25  C   UNL     1       4.405  -4.127  -7.427  0.00  0.00    +0.008 A 
ATOM     26  F   UNL     1       4.827  -6.773  -4.980  0.00  0.00    -0.205 F 
ENDBRANCH  15  20
BRANCH   1  32
ATOM     27  C   UNL     1       4.850   0.559  -2.516  0.00  0.00    +0.059 A 
ATOM     28  C   UNL     1       5.603   0.800  -1.365  0.00  0.00    +0.015 A 
ATOM     29  C   UNL     1       6.940   1.116  -1.471  0.00  0.00    +0.001 A 
ATOM     30  C   UNL     1       7.542   1.197  -2.716  0.00  0.00    +0.002 A 
ATOM     31  C   UNL     1       6.811   0.961  -3.863  0.00  0.00    +0.025 A 
ATOM     32  C   UNL     1       5.465   0.636  -3.774  0.00  0.00    +0.058 A 
BRANCH  27  34
ATOM     33  N   UNL     1       2.831   0.147  -1.198  0.00  0.00    -0.309 N 
ATOM     34  C   UNL     1       3.418   0.220  -2.409  0.00  0.00    +0.246 C 
ATOM     35  O   UNL     1       2.767   0.005  -3.414  0.00  0.00    -0.270 OA
ATOM     36  H   UNL     1       3.350   0.318  -0.397  0.00  0.00    +0.149 HD
BRANCH  33  37
ATOM     37  C   UNL     1       1.409  -0.190  -1.092  0.00  0.00    +0.070 C 
ATOM     38  C   UNL     1       1.244  -1.711  -1.101  0.00  0.00    +0.028 C 
BRANCH  37  40
ATOM     39  C   UNL     1       0.899   1.905   0.170  0.00  0.00    +0.005 C 
ATOM     40  C   UNL     1       0.847   0.376   0.213  0.00  0.00    +0.018 C 
ENDBRANCH  37  40
ENDBRANCH  33  37
ENDBRANCH  27  34
ENDBRANCH   1  32
TORSDOF 5
