REMARK  Name = ZINC13097010
REMARK  8 active torsions:
REMARK  status: ('A' for Active; 'I' for Inactive)
REMARK    1  A    between atoms: C_4  and  N_7
REMARK    2  A    between atoms: N_7  and  C_8
REMARK    3  A    between atoms: N_7  and  N_14
REMARK    4  A    between atoms: C_15  and  C_17
REMARK    5  A    between atoms: C_22  and  S_23
REMARK    6  A    between atoms: S_23  and  C_24
REMARK    7  A    between atoms: C_24  and  C_25
REMARK    8  A    between atoms: N_27  and  C_28
REMARK                            x       y       z     vdW  Elec       q    Type
REMARK                         _______ _______ _______ _____ _____    ______ ____
ROOT
ATOM      1  C   UNL     1      -0.501   0.893  -4.404  0.00  0.00    +0.052 A 
ATOM      2  C   UNL     1       0.129   0.365  -5.533  0.00  0.00    +0.014 A 
ATOM      3  C   UNL     1       1.157  -0.540  -5.386  0.00  0.00    +0.001 A 
ATOM      4  C   UNL     1       1.571  -0.932  -4.122  0.00  0.00    +0.001 A 
ATOM      5  C   UNL     1       0.963  -0.416  -2.997  0.00  0.00    +0.015 A 
ATOM      6  C   UNL     1      -0.080   0.495  -3.124  0.00  0.00    +0.020 A 
ENDROOT
BRANCH   1   8
ATOM      7  N   UNL     1      -2.002   2.242  -5.783  0.00  0.00    -0.225 N 
ATOM      8  C   UNL     1      -1.601   1.863  -4.554  0.00  0.00    +0.262 C 
ATOM      9  O   UNL     1      -2.147   2.321  -3.568  0.00  0.00    -0.269 OA
ATOM     10  H   UNL     1      -1.567   1.877  -6.569  0.00  0.00    +0.174 HD
BRANCH   7  11
ATOM     11  N   UNL     1      -3.048   3.163  -5.926  0.00  0.00    -0.220 N 
BRANCH  11  15
ATOM     12  C   UNL     1      -2.222   7.098  -7.010  0.00  0.00    +0.000 A 
ATOM     13  C   UNL     1      -3.019   6.839  -5.910  0.00  0.00    +0.002 A 
ATOM     14  C   UNL     1      -3.295   5.535  -5.548  0.00  0.00    +0.025 A 
ATOM     15  C   UNL     1      -2.771   4.484  -6.290  0.00  0.00    +0.053 A 
ATOM     16  C   UNL     1      -1.966   4.748  -7.391  0.00  0.00    +0.025 A 
ATOM     17  C   UNL     1      -1.698   6.055  -7.750  0.00  0.00    +0.002 A 
ENDBRANCH  11  15
BRANCH  11  18
ATOM     18  C   UNL     1      -4.368   2.762  -5.705  0.00  0.00    +0.053 A 
ATOM     19  C   UNL     1      -5.416   3.627  -5.994  0.00  0.00    +0.025 A 
ATOM     20  C   UNL     1      -6.720   3.225  -5.779  0.00  0.00    +0.002 A 
ATOM     21  C   UNL     1      -6.982   1.968  -5.267  0.00  0.00    +0.000 A 
ATOM     22  C   UNL     1      -5.940   1.106  -4.973  0.00  0.00    +0.002 A 
ATOM     23  C   UNL     1      -4.635   1.500  -5.190  0.00  0.00    +0.025 A 
ENDBRANCH  11  18
ENDBRANCH   7  11
ENDBRANCH   1   8
BRANCH   6  24
ATOM     24  S   UNL     1      -0.863   1.152  -1.689  0.00  0.00    -0.115 S 
BRANCH  24  25
ATOM     25  C   UNL     1       0.008   0.357  -0.311  0.00  0.00    +0.170 C 
BRANCH  25  26
ATOM     26  C   UNL     1      -0.572   0.838   0.994  0.00  0.00    +0.224 C 
ATOM     27  O   UNL     1      -1.483   1.638   0.995  0.00  0.00    -0.275 OA
ATOM     28  N   UNL     1      -0.078   0.378   2.161  0.00  0.00    -0.309 N 
ATOM     29  H   UNL     1       0.651  -0.262   2.160  0.00  0.00    +0.149 HD
BRANCH  28  30
ATOM     30  C   UNL     1      -0.641   0.846   3.430  0.00  0.00    +0.035 C 
ATOM     31  C   UNL     1      -0.479   2.364   3.531  0.00  0.00    +0.029 C 
ATOM     32  C   UNL     1      -1.068   2.852   4.857  0.00  0.00    -0.008 C 
ATOM     33  C   UNL     1      -0.333   2.181   6.019  0.00  0.00    +0.007 C 
ATOM     34  C   UNL     1      -0.495   0.663   5.917  0.00  0.00    -0.008 C 
ATOM     35  C   UNL     1       0.093   0.175   4.592  0.00  0.00    +0.029 C 
ATOM     36  C   UNL     1      -1.982   0.304   5.978  0.00  0.00    +0.007 C 
ATOM     37  C   UNL     1      -2.716   0.975   4.816  0.00  0.00    -0.008 C 
ATOM     38  C   UNL     1      -2.554   2.493   4.918  0.00  0.00    +0.007 C 
ATOM     39  C   UNL     1      -2.128   0.487   3.490  0.00  0.00    +0.029 C 
ENDBRANCH  28  30
ENDBRANCH  25  26
ENDBRANCH  24  25
ENDBRANCH   6  24
TORSDOF 8
