REMARK  Name = ZINC19850464
REMARK  8 active torsions:
REMARK  status: ('A' for Active; 'I' for Inactive)
REMARK    1  A    between atoms: C_1  and  C_2
REMARK    2  A    between atoms: C_2  and  C_3
REMARK    3  A    between atoms: C_6  and  C_9
REMARK    4  A    between atoms: N_10  and  N_11
REMARK    5  A    between atoms: C_12  and  C_14
REMARK    6  A    between atoms: C_14  and  N_15
REMARK    7  A    between atoms: N_18  and  S_21
REMARK    8  A    between atoms: S_21  and  C_24
REMARK                            x       y       z     vdW  Elec       q    Type
REMARK                         _______ _______ _______ _____ _____    ______ ____
ROOT
ATOM      1  N   UNL     1      -2.119   4.990  -0.430  0.00  0.00    +0.387 N 
ATOM      2  C   UNL     1      -1.254   3.805  -0.503  0.00  0.00    -0.061 C 
ATOM      3  C   UNL     1      -0.527   3.623   0.833  0.00  0.00    +0.091 C 
ATOM      4  N   UNL     1      -1.525   3.599   1.913  0.00  0.00    -0.180 NA
ATOM      5  C   UNL     1      -2.517   4.684   1.967  0.00  0.00    +0.091 C 
ATOM      6  C   UNL     1      -3.167   4.824   0.586  0.00  0.00    -0.061 C 
ATOM      7  H   UNL     1      -1.492   5.843  -0.127  0.00  0.00    -0.081 HD
ENDROOT
BRANCH   4   8
ATOM      8  S   UNL     1      -1.534   2.381   3.034  0.00  0.00    +0.061 S 
ATOM      9  O   UNL     1      -2.856   2.314   3.550  0.00  0.00    -0.153 OA
ATOM     10  O   UNL     1      -0.895   1.265   2.428  0.00  0.00    -0.153 OA
BRANCH   8  11
ATOM     11  C   UNL     1      -0.499   2.890   4.366  0.00  0.00    +0.106 A 
ATOM     12  C   UNL     1       0.849   2.581   4.351  0.00  0.00    +0.029 A 
ATOM     13  C   UNL     1       1.662   2.985   5.394  0.00  0.00    +0.017 A 
ATOM     14  C   UNL     1       1.125   3.689   6.456  0.00  0.00    +0.018 A 
ATOM     15  C   UNL     1      -0.224   3.994   6.473  0.00  0.00    +0.017 A 
ATOM     16  C   UNL     1      -1.035   3.594   5.428  0.00  0.00    +0.029 A 
ATOM     17 BR   UNL     1       2.236   4.236   7.886  0.00  0.00    -0.050 Br
ENDBRANCH   8  11
ENDBRANCH   4   8
BRANCH   1  18
ATOM     18  C   UNL     1      -2.702   5.299  -1.742  0.00  0.00    +0.020 C 
BRANCH  18  20
ATOM     19  N   UNL     1      -4.189   4.199  -3.383  0.00  0.00    -0.209 N 
ATOM     20  C   UNL     1      -3.598   4.167  -2.172  0.00  0.00    +0.216 C 
ATOM     21  O   UNL     1      -3.788   3.228  -1.429  0.00  0.00    -0.276 OA
ATOM     22  H   UNL     1      -4.017   5.051  -4.058  0.00  0.00    +0.177 HD
BRANCH  19  24
ATOM     23  C   UNL     1      -5.472   3.100  -5.000  0.00  0.00    +0.138 C 
ATOM     24  N   UNL     1      -5.023   3.146  -3.783  0.00  0.00    -0.188 NA
BRANCH  23  28
ATOM     25  C   UNL     1      -3.666   5.474  -8.019  0.00  0.00    -0.048 A 
ATOM     26  C   UNL     1      -2.964   5.179  -6.864  0.00  0.00    +0.004 A 
ATOM     27  C   UNL     1      -3.545   4.408  -5.878  0.00  0.00    +0.010 A 
ATOM     28  C   UNL     1      -4.845   3.926  -6.049  0.00  0.00    -0.005 A 
ATOM     29  C   UNL     1      -5.545   4.224  -7.220  0.00  0.00    +0.010 A 
ATOM     30  C   UNL     1      -4.954   5.000  -8.195  0.00  0.00    +0.004 A 
BRANCH  25  32
ATOM     31  C   UNL     1      -2.283   5.412 -10.077  0.00  0.00    +0.009 C 
ATOM     32  C   UNL     1      -3.025   6.317  -9.091  0.00  0.00    +0.032 C 
ENDBRANCH  25  32
ENDBRANCH  23  28
ENDBRANCH  19  24
ENDBRANCH  18  20
ENDBRANCH   1  18
TORSDOF 7
