REMARK  Name = ZINC22010511
REMARK  8 active torsions:
REMARK  status: ('A' for Active; 'I' for Inactive)
REMARK    1  A    between atoms: C_1  and  C_2
REMARK    2  A    between atoms: C_2  and  C_3
REMARK    3  A    between atoms: C_3  and  C_5
REMARK    4  A    between atoms: C_3  and  N_14
REMARK    5  A    between atoms: C_10  and  C_13
REMARK    6  A    between atoms: N_17  and  S_20
REMARK    7  A    between atoms: S_20  and  C_23
REMARK    8  A    between atoms: C_27  and  C_29
REMARK                            x       y       z     vdW  Elec       q    Type
REMARK                         _______ _______ _______ _____ _____    ______ ____
ROOT
ATOM      1  N   UNL     1       0.527   6.437   0.030  0.00  0.00    +0.389 N 
ATOM      2  C   UNL     1      -0.320   6.258   1.216  0.00  0.00    -0.060 C 
ATOM      3  C   UNL     1      -1.339   7.401   1.290  0.00  0.00    +0.091 C 
ATOM      4  N   UNL     1      -2.063   7.464   0.012  0.00  0.00    -0.180 NA
ATOM      5  C   UNL     1      -1.279   7.507  -1.231  0.00  0.00    +0.091 C 
ATOM      6  C   UNL     1      -0.263   6.360  -1.206  0.00  0.00    -0.060 C 
ATOM      7  H   UNL     1       0.968   7.444   0.083  0.00  0.00    -0.081 HD
ENDROOT
BRANCH   4   8
ATOM      8  S   UNL     1      -3.719   7.487  -0.026  0.00  0.00    +0.061 S 
ATOM      9  O   UNL     1      -4.147   7.990   1.232  0.00  0.00    -0.153 OA
ATOM     10  O   UNL     1      -4.088   8.095  -1.256  0.00  0.00    -0.153 OA
BRANCH   8  11
ATOM     11  C   UNL     1      -4.261   5.812  -0.110  0.00  0.00    +0.106 A 
ATOM     12  C   UNL     1      -4.451   5.208  -1.339  0.00  0.00    +0.030 A 
ATOM     13  C   UNL     1      -4.871   3.893  -1.405  0.00  0.00    +0.022 A 
ATOM     14  C   UNL     1      -5.112   3.184  -0.241  0.00  0.00    +0.053 A 
ATOM     15  C   UNL     1      -4.927   3.791   0.988  0.00  0.00    +0.075 A 
ATOM     16  C   UNL     1      -4.502   5.105   1.053  0.00  0.00    +0.042 A 
ATOM     17 CL   UNL     1      -5.646   1.535  -0.324  0.00  0.00    -0.083 Cl
BRANCH  15  18
ATOM     18  C   UNL     1      -5.189   3.020   2.256  0.00  0.00    +0.419 C 
ATOM     19  F   UNL     1      -4.934   3.839   3.361  0.00  0.00    -0.166 F 
ATOM     20  F   UNL     1      -6.525   2.605   2.282  0.00  0.00    -0.166 F 
ATOM     21  F   UNL     1      -4.352   1.901   2.302  0.00  0.00    -0.166 F 
ENDBRANCH  15  18
ENDBRANCH   8  11
ENDBRANCH   4   8
BRANCH   1  22
ATOM     22  C   UNL     1       1.625   5.462   0.015  0.00  0.00    +0.019 C 
BRANCH  22  23
ATOM     23  C   UNL     1       1.057   4.066   0.013  0.00  0.00    +0.205 C 
ATOM     24  O   UNL     1      -0.145   3.900   0.024  0.00  0.00    -0.277 OA
ATOM     25  N   UNL     1       1.883   3.002  -0.000  0.00  0.00    -0.269 N 
ATOM     26  C   UNL     1       1.357   1.710  -0.002  0.00  0.00    +0.168 A 
ATOM     27  C   UNL     1      -0.016   1.348   0.009  0.00  0.00    +0.091 A 
ATOM     28  C   UNL     1       0.002  -0.004   0.002  0.00  0.00    +0.136 A 
ATOM     29  O   UNL     1       1.292  -0.370  -0.012  0.00  0.00    -0.358 OA
ATOM     30  N   UNL     1       2.029   0.589  -0.014  0.00  0.00    -0.063 NA
ATOM     31  C   UNL     1      -1.194  -0.921   0.008  0.00  0.00    +0.089 C 
ATOM     32  H   UNL     1       2.973   3.152  -0.010  0.00  0.00    +0.156 HD
ENDBRANCH  22  23
BRANCH  22  34
ATOM     33  C   UNL     1       3.173   7.027   1.196  0.00  0.00    +0.002 C 
ATOM     34  C   UNL     1       2.497   5.656   1.257  0.00  0.00    -0.010 C 
ENDBRANCH  22  34
ENDBRANCH   1  22
TORSDOF 6
