REMARK  Name = ZINC39657172
REMARK  5 active torsions:
REMARK  status: ('A' for Active; 'I' for Inactive)
REMARK    1  A    between atoms: C_1  and  C_2
REMARK    2  A    between atoms: C_2  and  C_4
REMARK    3  A    between atoms: C_2  and  N_11
REMARK    4  A    between atoms: C_12  and  C_14
REMARK    5  A    between atoms: C_25  and  C_27
REMARK                            x       y       z     vdW  Elec       q    Type
REMARK                         _______ _______ _______ _____ _____    ______ ____
ROOT
ATOM      1  C   UNL     1       0.707  -1.094  -3.601  0.00  0.00    +0.100 C 
ATOM      2  C   UNL     1       1.732  -0.043  -4.085  0.00  0.00    +0.121 C 
ATOM      3  N   UNL     1       1.653  -0.096  -5.564  0.00  0.00    -0.295 N 
ATOM      4  C   UNL     1       0.208  -0.262  -5.849  0.00  0.00    +0.115 C 
ATOM      5  C   UNL     1      -0.292  -1.234  -4.762  0.00  0.00    -0.004 C 
ATOM      6  C   UNL     1      -1.692  -0.837  -4.304  0.00  0.00    -0.010 C 
ATOM      7  C   UNL     1      -2.679  -1.040  -5.458  0.00  0.00    -0.082 C 
ATOM      8  N   UNL     1      -2.659  -2.446  -5.879  0.00  0.00    +0.379 N 
ATOM      9  C   UNL     1      -1.333  -2.794  -6.404  0.00  0.00    -0.082 C 
ATOM     10  C   UNL     1      -0.291  -2.665  -5.291  0.00  0.00    -0.010 C 
ATOM     11  C   UNL     1       2.666  -0.012  -6.449  0.00  0.00    +0.265 C 
ATOM     12  O   UNL     1       2.431   0.012  -7.641  0.00  0.00    -0.268 OA
ATOM     13  H   UNL     1      -2.871  -3.036  -5.088  0.00  0.00    -0.086 HD
ATOM     14  H   UNL     1      -3.353  -2.591  -6.597  0.00  0.00    -0.086 HD
ENDROOT
BRANCH  11  15
ATOM     15  C   UNL     1       4.067   0.050  -5.968  0.00  0.00    +0.126 A 
ATOM     16  C   UNL     1       5.101   0.252  -6.895  0.00  0.00    +0.033 A 
ATOM     17  C   UNL     1       6.395   0.311  -6.465  0.00  0.00    +0.012 A 
ATOM     18  C   UNL     1       6.647   0.167  -5.088  0.00  0.00    +0.000 A 
ATOM     19  C   UNL     1       7.954   0.219  -4.576  0.00  0.00    +0.010 A 
ATOM     20  C   UNL     1       8.160   0.075  -3.238  0.00  0.00    +0.001 A 
ATOM     21  C   UNL     1       7.090  -0.123  -2.366  0.00  0.00    +0.002 A 
ATOM     22  C   UNL     1       5.811  -0.178  -2.825  0.00  0.00    +0.028 A 
ATOM     23  C   UNL     1       5.556  -0.034  -4.203  0.00  0.00    +0.072 A 
ATOM     24  N   UNL     1       4.312  -0.079  -4.679  0.00  0.00    -0.242 NA
ENDBRANCH  11  15
BRANCH   1  26
ATOM     25  N   UNL     1      -0.600  -1.490  -1.539  0.00  0.00    -0.308 N 
ATOM     26  C   UNL     1       0.005  -0.608  -2.360  0.00  0.00    +0.219 C 
ATOM     27  O   UNL     1      -0.016   0.576  -2.099  0.00  0.00    -0.275 OA
ATOM     28  H   UNL     1      -0.583  -2.437  -1.748  0.00  0.00    +0.149 HD
BRANCH  25  30
ATOM     29  C   UNL     1      -0.270  -0.878   0.806  0.00  0.00    +0.033 C 
ATOM     30  C   UNL     1      -1.283  -1.018  -0.332  0.00  0.00    +0.100 C 
BRANCH  30  31
ATOM     31  C   UNL     1      -2.348  -2.009   0.063  0.00  0.00    -0.027 A 
ATOM     32  C   UNL     1      -2.099  -3.365  -0.032  0.00  0.00    +0.006 A 
ATOM     33  C   UNL     1      -3.075  -4.274   0.331  0.00  0.00    +0.015 A 
ATOM     34  C   UNL     1      -4.301  -3.827   0.788  0.00  0.00    +0.018 A 
ATOM     35  C   UNL     1      -4.550  -2.469   0.882  0.00  0.00    +0.015 A 
ATOM     36  C   UNL     1      -3.572  -1.561   0.524  0.00  0.00    +0.006 A 
ATOM     37 BR   UNL     1      -5.637  -5.070   1.283  0.00  0.00    -0.050 Br
ENDBRANCH  30  31
ENDBRANCH  25  30
ENDBRANCH   1  26
TORSDOF 4
