REMARK  Name = ZINC55072755
REMARK  9 active torsions:
REMARK  status: ('A' for Active; 'I' for Inactive)
REMARK    1  A    between atoms: C_1  and  C_2
REMARK    2  A    between atoms: C_2  and  C_3
REMARK    3  A    between atoms: C_3  and  C_5
REMARK    4  A    between atoms: C_3  and  N_6
REMARK    5  A    between atoms: N_9  and  C_12
REMARK    6  A    between atoms: C_12  and  C_13
REMARK    7  A    between atoms: C_13  and  C_14
REMARK    8  A    between atoms: C_14  and  C_16
REMARK    9  A    between atoms: C_14  and  N_23
REMARK                            x       y       z     vdW  Elec       q    Type
REMARK                         _______ _______ _______ _____ _____    ______ ____
ROOT
ATOM      1  C   UNL     1      -1.159   2.598  -6.739  0.00  0.00    +0.004 C 
ENDROOT
BRANCH   1   2
ATOM      2  C   UNL     1      -1.313   1.118  -6.385  0.00  0.00    +0.083 C 
BRANCH   2   6
ATOM      3  N   UNL     1      -0.132  -0.230  -2.556  0.00  0.00    +0.383 N 
ATOM      4  C   UNL     1       0.432  -0.907  -3.731  0.00  0.00    -0.063 C 
ATOM      5  C   UNL     1      -0.450  -0.633  -4.951  0.00  0.00    +0.066 C 
ATOM      6  N   UNL     1      -0.520   0.817  -5.186  0.00  0.00    -0.306 NA
ATOM      7  C   UNL     1      -1.060   1.511  -4.008  0.00  0.00    +0.066 C 
ATOM      8  C   UNL     1      -0.173   1.219  -2.796  0.00  0.00    -0.063 C 
ATOM      9  H   UNL     1      -1.068  -0.569  -2.390  0.00  0.00    -0.081 HD
BRANCH   3  10
ATOM     10  C   UNL     1       0.705  -0.508  -1.381  0.00  0.00    -0.072 C 
ATOM     11  C   UNL     1       2.154  -0.124  -1.686  0.00  0.00    -0.013 C 
BRANCH  10  13
ATOM     12  C   UNL     1      -0.790  -2.354  -0.608  0.00  0.00    +0.002 C 
ATOM     13  C   UNL     1       0.632  -1.999  -1.045  0.00  0.00    -0.019 C 
ENDBRANCH  10  13
ENDBRANCH   3  10
ENDBRANCH   2   6
ENDBRANCH   1   2
BRANCH   1  14
ATOM     14  C   UNL     1      -1.986   2.912  -7.988  0.00  0.00    -0.042 C 
BRANCH  14  15
ATOM     15  C   UNL     1      -1.738   4.338  -8.409  0.00  0.00    -0.048 A 
ATOM     16  C   UNL     1      -2.591   5.341  -7.988  0.00  0.00    +0.003 A 
ATOM     17  C   UNL     1      -2.364   6.649  -8.373  0.00  0.00    +0.000 A 
ATOM     18  C   UNL     1      -1.284   6.955  -9.180  0.00  0.00    +0.001 A 
ATOM     19  C   UNL     1      -0.430   5.952  -9.601  0.00  0.00    +0.015 A 
ATOM     20  C   UNL     1      -0.654   4.644  -9.211  0.00  0.00    +0.019 A 
ATOM     21 BR   UNL     1       0.517   3.273  -9.781  0.00  0.00    -0.050 Br
ENDBRANCH  14  15
BRANCH  14  22
ATOM     22  N   UNL     1      -3.413   2.731  -7.689  0.00  0.00    +0.383 N 
ATOM     23  H   UNL     1      -3.958   2.938  -8.513  0.00  0.00    -0.089 HD
ATOM     24  H   UNL     1      -3.578   1.776  -7.407  0.00  0.00    -0.089 HD
ATOM     25  H   UNL     1      -3.682   3.353  -6.942  0.00  0.00    -0.089 HD
ENDBRANCH  14  22
ENDBRANCH   1  14
TORSDOF 7
