REMARK  Name = ZINC11912726
REMARK  9 active torsions:
REMARK  status: ('A' for Active; 'I' for Inactive)
REMARK    1  A    between atoms: C_1  and  O_2
REMARK    2  A    between atoms: O_2  and  C_3
REMARK    3  A    between atoms: C_6  and  S_9
REMARK    4  A    between atoms: S_9  and  C_10
REMARK    5  A    between atoms: C_13  and  C_24
REMARK    6  A    between atoms: C_16  and  C_17
REMARK    7  A    between atoms: C_16  and  N_69
REMARK    8  A    between atoms: C_22  and  O_23
REMARK    9  A    between atoms: N_29  and  C_32
REMARK                            x       y       z     vdW  Elec       q    Type
REMARK                         _______ _______ _______ _____ _____    ______ ____
ROOT
ATOM      1  C   UNL     1       2.549  -3.723   3.934  0.00  0.00    +0.034 C 
ATOM      2  C   UNL     1       2.614  -2.307   3.317  0.00  0.00    +0.006 C 
ATOM      3  C   UNL     1       1.397  -1.561   3.896  0.00  0.00    +0.021 C 
ATOM      4  C   UNL     1       1.687  -3.509   5.204  0.00  0.00    -0.063 C 
ATOM      5  N   UNL     1       0.697  -2.526   4.750  0.00  0.00    +0.391 N 
ATOM      6  H   UNL     1      -0.037  -2.999   4.210  0.00  0.00    -0.080 HD
ENDROOT
BRANCH   3   7
ATOM      7  C   UNL     1       0.498  -1.101   2.778  0.00  0.00    +0.202 C 
ATOM      8  O   UNL     1      -0.637  -1.521   2.701  0.00  0.00    -0.277 OA
ATOM      9  N   UNL     1       0.954  -0.223   1.863  0.00  0.00    -0.300 N 
ATOM     10  C   UNL     1       0.093   0.239   0.764  0.00  0.00    +0.126 C 
ATOM     11  C   UNL     1       0.126   1.770   0.730  0.00  0.00    +0.124 C 
ATOM     12  N   UNL     1       1.521   2.226   0.659  0.00  0.00    -0.325 N 
ATOM     13  C   UNL     1       2.272   1.828   1.857  0.00  0.00    +0.124 C 
ATOM     14  C   UNL     1       2.328   0.299   1.937  0.00  0.00    +0.126 C 
BRANCH  12  15
ATOM     15  C   UNL     1       1.587   3.608   0.462  0.00  0.00    +0.065 A 
ATOM     16  C   UNL     1       1.016   4.178  -0.667  0.00  0.00    +0.026 A 
ATOM     17  C   UNL     1       1.083   5.545  -0.860  0.00  0.00    +0.002 A 
ATOM     18  C   UNL     1       1.718   6.346   0.071  0.00  0.00    +0.003 A 
ATOM     19  C   UNL     1       2.288   5.783   1.198  0.00  0.00    +0.040 A 
ATOM     20  C   UNL     1       2.220   4.417   1.400  0.00  0.00    +0.144 A 
ATOM     21  F   UNL     1       2.773   3.867   2.504  0.00  0.00    -0.204 F 
ENDBRANCH  12  15
ENDBRANCH   3   7
BRANCH   1  22
ATOM     22  S   UNL     1       4.209  -4.307   4.376  0.00  0.00    -0.124 S 
BRANCH  22  26
ATOM     23  C   UNL     1       3.504  -8.468   6.027  0.00  0.00    +0.120 A 
ATOM     24  C   UNL     1       2.455  -7.761   5.457  0.00  0.00    +0.047 A 
ATOM     25  C   UNL     1       2.669  -6.493   4.953  0.00  0.00    +0.018 A 
ATOM     26  C   UNL     1       3.935  -5.925   5.018  0.00  0.00    +0.008 A 
ATOM     27  C   UNL     1       4.985  -6.635   5.585  0.00  0.00    +0.018 A 
ATOM     28  C   UNL     1       4.768  -7.901   6.093  0.00  0.00    +0.047 A 
BRANCH  23  30
ATOM     29  C   UNL     1       4.417 -10.386   7.096  0.00  0.00    +0.277 C 
ATOM     30  O   UNL     1       3.292  -9.716   6.523  0.00  0.00    -0.495 OA
ENDBRANCH  23  30
ENDBRANCH  22  26
ENDBRANCH   1  22
BRANCH   5  31
ATOM     31  C   UNL     1       0.075  -1.830   5.916  0.00  0.00    -0.038 C 
BRANCH  31  32
ATOM     32  C   UNL     1      -0.554  -2.846   6.834  0.00  0.00    -0.022 A 
ATOM     33  C   UNL     1       0.079  -3.201   8.009  0.00  0.00    +0.005 A 
ATOM     34  C   UNL     1      -0.498  -4.134   8.852  0.00  0.00    +0.000 A 
ATOM     35  C   UNL     1      -1.710  -4.712   8.521  0.00  0.00    +0.004 A 
ATOM     36  C   UNL     1      -2.347  -4.359   7.348  0.00  0.00    +0.045 A 
ATOM     37  C   UNL     1      -1.772  -3.421   6.502  0.00  0.00    +0.118 A 
BRANCH  37  38
ATOM     38  O   UNL     1      -2.400  -3.068   5.349  0.00  0.00    -0.507 OA
ATOM     39  H   UNL     1      -2.160  -3.614   4.588  0.00  0.00    +0.292 HD
ENDBRANCH  37  38
ENDBRANCH  31  32
ENDBRANCH   5  31
TORSDOF 8
