REMARK  Name = ZINC35919946
REMARK  5 active torsions:
REMARK  status: ('A' for Active; 'I' for Inactive)
REMARK    1  A    between atoms: C_1  and  N_2
REMARK    2  A    between atoms: C_12  and  O_14
REMARK    3  A    between atoms: O_14  and  C_15
REMARK    4  A    between atoms: N_23  and  S_26
REMARK    5  A    between atoms: S_26  and  C_29
REMARK                            x       y       z     vdW  Elec       q    Type
REMARK                         _______ _______ _______ _____ _____    ______ ____
ROOT
ATOM      1  C   UNL     1      -1.832   0.043  -0.149  0.00  0.00    -0.096 C 
ATOM      2  N   UNL     1      -1.474  -1.382  -0.143  0.00  0.00    +0.380 N 
ATOM      3  C   UNL     1      -0.676  -1.689  -1.336  0.00  0.00    -0.060 C 
ATOM      4  C   UNL     1      -0.399  -3.195  -1.390  0.00  0.00    +0.089 C 
ATOM      5  N   UNL     1       0.226  -3.600  -0.121  0.00  0.00    -0.303 N 
ATOM      6  C   UNL     1      -0.424  -3.190   1.133  0.00  0.00    +0.089 C 
ATOM      7  C   UNL     1      -0.700  -1.685   1.068  0.00  0.00    -0.060 C 
ATOM      8  C   UNL     1       1.392  -4.345  -0.108  0.00  0.00    +0.221 A 
ATOM      9  N   UNL     1       1.861  -4.790   1.046  0.00  0.00    -0.219 NA
ATOM     10  C   UNL     1       2.977  -5.513   1.105  0.00  0.00    +0.056 A 
ATOM     11  C   UNL     1       3.642  -5.801  -0.063  0.00  0.00    +0.052 A 
ATOM     12  C   UNL     1       3.128  -5.312  -1.267  0.00  0.00    +0.230 A 
ATOM     13  N   UNL     1       2.010  -4.599  -1.252  0.00  0.00    -0.179 NA
ATOM     14  C   UNL     1       4.895  -6.635  -0.097  0.00  0.00    +0.151 C 
ATOM     15  N   UNL     1       5.401  -6.817   1.268  0.00  0.00    -0.172 NA
ATOM     16  C   UNL     1       4.421  -7.150   2.315  0.00  0.00    +0.116 C 
ATOM     17  C   UNL     1       3.458  -5.972   2.454  0.00  0.00    +0.073 C 
ATOM     18  H   UNL     1      -2.315  -1.939  -0.151  0.00  0.00    -0.082 HD
ENDROOT
BRANCH  15  19
ATOM     19  S   UNL     1       7.011  -6.653   1.619  0.00  0.00    +0.061 S 
ATOM     20  O   UNL     1       7.249  -7.404   2.801  0.00  0.00    -0.153 OA
ATOM     21  O   UNL     1       7.717  -6.893   0.409  0.00  0.00    -0.153 OA
BRANCH  19  22
ATOM     22  C   UNL     1       7.285  -4.962   2.034  0.00  0.00    +0.106 A 
ATOM     23  C   UNL     1       7.611  -4.052   1.045  0.00  0.00    +0.030 A 
ATOM     24  C   UNL     1       7.826  -2.726   1.370  0.00  0.00    +0.022 A 
ATOM     25  C   UNL     1       7.713  -2.309   2.684  0.00  0.00    +0.041 A 
ATOM     26  C   UNL     1       7.387  -3.220   3.673  0.00  0.00    +0.022 A 
ATOM     27  C   UNL     1       7.167  -4.545   3.346  0.00  0.00    +0.030 A 
ATOM     28 CL   UNL     1       7.983  -0.644   3.093  0.00  0.00    -0.084 Cl
ENDBRANCH  19  22
ENDBRANCH  15  19
BRANCH  12  29
ATOM     29  O   UNL     1       3.763  -5.567  -2.437  0.00  0.00    -0.437 OA
BRANCH  29  30
ATOM     30  C   UNL     1       3.252  -5.023  -3.572  0.00  0.00    +0.133 A 
ATOM     31  C   UNL     1       2.461  -3.885  -3.502  0.00  0.00    +0.046 A 
ATOM     32  C   UNL     1       1.941  -3.333  -4.657  0.00  0.00    +0.006 A 
ATOM     33  C   UNL     1       2.208  -3.913  -5.883  0.00  0.00    +0.038 A 
ATOM     34  C   UNL     1       2.996  -5.049  -5.957  0.00  0.00    +0.127 A 
ATOM     35  C   UNL     1       3.523  -5.602  -4.803  0.00  0.00    +0.084 A 
ATOM     36  F   UNL     1       3.254  -5.615  -7.156  0.00  0.00    -0.205 F 
ENDBRANCH  29  30
ENDBRANCH  12  29
TORSDOF 4
