REMARK  Name = ZINC03411272
REMARK  11 active torsions:
REMARK  status: ('A' for Active; 'I' for Inactive)
REMARK    1  A    between atoms: C_1  and  N_2
REMARK    2  A    between atoms: C_5  and  C_18
REMARK    3  A    between atoms: C_6  and  N_17
REMARK    4  A    between atoms: N_7  and  C_10
REMARK    5  A    between atoms: C_10  and  C_11
REMARK    6  A    between atoms: C_18  and  C_20
REMARK    7  A    between atoms: C_20  and  N_21
REMARK    8  A    between atoms: N_21  and  C_22
REMARK    9  A    between atoms: N_21  and  C_23
REMARK   10  A    between atoms: C_23  and  C_24
REMARK   11  A    between atoms: N_26  and  C_27
REMARK                            x       y       z     vdW  Elec       q    Type
REMARK                         _______ _______ _______ _____ _____    ______ ____
ROOT
ATOM      1  C   UNL     1      -0.051   1.464   0.394  0.00  0.00    +0.157 C 
ATOM      2  N   UNL     1      -0.032   0.001   0.319  0.00  0.00    -0.263 N 
ATOM      3  C   UNL     1      -0.025  -0.605  -0.886  0.00  0.00    +0.269 A 
ATOM      4  O   UNL     1      -0.034   0.052  -1.911  0.00  0.00    -0.267 OA
ATOM      5  C   UNL     1      -0.006  -2.072  -0.936  0.00  0.00    +0.118 A 
ATOM      6  C   UNL     1       0.005  -2.771   0.284  0.00  0.00    +0.116 A 
ATOM      7  N   UNL     1      -0.004  -2.062   1.451  0.00  0.00    -0.277 N 
ATOM      8  C   UNL     1      -0.016  -0.720   1.452  0.00  0.00    +0.333 A 
ATOM      9  O   UNL     1      -0.018  -0.136   2.518  0.00  0.00    -0.246 OA
ENDROOT
BRANCH   6  10
ATOM     10  N   UNL     1       0.022  -4.131   0.301  0.00  0.00    -0.344 N 
ATOM     11  H   UNL     1       0.103  -4.626  -0.530  0.00  0.00    +0.144 HD
ATOM     12  H   UNL     1      -0.046  -4.607   1.144  0.00  0.00    +0.144 HD
ENDBRANCH   6  10
BRANCH   5  13
ATOM     13  C   UNL     1       0.002  -2.759  -2.169  0.00  0.00    +0.155 C 
ATOM     14  O   UNL     1       0.113  -3.968  -2.190  0.00  0.00    -0.294 OA
BRANCH  13  15
ATOM     15  C   UNL     1      -0.128  -1.992  -3.459  0.00  0.00    +0.003 C 
BRANCH  15  16
ATOM     16  N   UNL     1      -0.092  -2.928  -4.591  0.00  0.00    +0.388 N 
ATOM     17  C   UNL     1       1.226  -3.572  -4.653  0.00  0.00    -0.095 C 
ATOM     18  H   UNL     1      -0.805  -3.632  -4.468  0.00  0.00    -0.081 HD
BRANCH  16  19
ATOM     19  C   UNL     1      -0.338  -2.195  -5.840  0.00  0.00    +0.019 C 
BRANCH  19  20
ATOM     20  C   UNL     1      -0.424  -3.171  -6.986  0.00  0.00    +0.201 C 
ATOM     21  O   UNL     1      -0.293  -4.359  -6.782  0.00  0.00    -0.278 OA
ATOM     22  N   UNL     1      -0.646  -2.722  -8.238  0.00  0.00    -0.286 N 
ATOM     23  H   UNL     1      -0.670  -1.769  -8.414  0.00  0.00    +0.155 HD
BRANCH  22  24
ATOM     24  C   UNL     1      -0.843  -3.633  -9.283  0.00  0.00    +0.052 A 
ATOM     25  C   UNL     1      -1.317  -4.910  -9.013  0.00  0.00    +0.025 A 
ATOM     26  C   UNL     1      -1.510  -5.805 -10.047  0.00  0.00    +0.002 A 
ATOM     27  C   UNL     1      -1.231  -5.433 -11.349  0.00  0.00    +0.002 A 
ATOM     28  C   UNL     1      -0.759  -4.162 -11.621  0.00  0.00    +0.022 A 
ATOM     29  C   UNL     1      -0.569  -3.259 -10.592  0.00  0.00    +0.062 A 
ATOM     30 CL   UNL     1       0.018  -1.661 -10.936  0.00  0.00    -0.082 Cl
ENDBRANCH  22  24
ENDBRANCH  19  20
ENDBRANCH  16  19
ENDBRANCH  15  16
ENDBRANCH  13  15
ENDBRANCH   5  13
BRANCH   7  31
ATOM     31  C   UNL     1       0.007  -2.781   2.727  0.00  0.00    +0.163 C 
BRANCH  31  32
ATOM     32  C   UNL     1       1.431  -3.009   3.164  0.00  0.00    -0.028 A 
ATOM     33  C   UNL     1       2.100  -4.153   2.772  0.00  0.00    +0.005 A 
ATOM     34  C   UNL     1       3.406  -4.362   3.172  0.00  0.00    +0.000 A 
ATOM     35  C   UNL     1       4.045  -3.426   3.964  0.00  0.00    +0.000 A 
ATOM     36  C   UNL     1       3.376  -2.281   4.356  0.00  0.00    +0.000 A 
ATOM     37  C   UNL     1       2.071  -2.070   3.952  0.00  0.00    +0.005 A 
ENDBRANCH  31  32
ENDBRANCH   7  31
TORSDOF 9
