REMARK  Name = ZINC66802252
REMARK  11 active torsions:
REMARK  status: ('A' for Active; 'I' for Inactive)
REMARK    1  A    between atoms: C_1  and  C_2
REMARK    2  A    between atoms: C_7  and  C_8
REMARK    3  A    between atoms: C_8  and  C_10
REMARK    4  A    between atoms: C_8  and  N_27
REMARK    5  A    between atoms: C_10  and  C_11
REMARK    6  A    between atoms: N_13  and  C_14
REMARK    7  A    between atoms: C_19  and  S_20
REMARK    8  A    between atoms: S_20  and  C_21
REMARK    9  A    between atoms: C_21  and  C_23
REMARK   10  A    between atoms: C_21  and  C_24
REMARK   11  A    between atoms: C_24  and  C_25
REMARK                            x       y       z     vdW  Elec       q    Type
REMARK                         _______ _______ _______ _____ _____    ______ ____
ROOT
ATOM      1  C   UNL     1      -1.459   0.651   2.869  0.00  0.00    +0.123 C 
ENDROOT
BRANCH   1   2
ATOM      2  C   UNL     1      -1.416   1.753   3.896  0.00  0.00    +0.219 C 
ATOM      3  O   UNL     1      -0.352   2.120   4.347  0.00  0.00    -0.275 OA
ATOM      4  N   UNL     1      -2.560   2.331   4.312  0.00  0.00    -0.285 N 
ATOM      5  H   UNL     1      -3.416   1.987   4.010  0.00  0.00    +0.155 HD
BRANCH   4   6
ATOM      6  C   UNL     1      -2.514   3.429   5.181  0.00  0.00    +0.047 A 
ATOM      7  C   UNL     1      -1.377   4.219   5.244  0.00  0.00    +0.024 A 
ATOM      8  C   UNL     1      -1.333   5.302   6.102  0.00  0.00    +0.002 A 
ATOM      9  C   UNL     1      -2.423   5.602   6.900  0.00  0.00    +0.001 A 
ATOM     10  C   UNL     1      -3.561   4.821   6.844  0.00  0.00    +0.016 A 
ATOM     11  C   UNL     1      -3.616   3.735   5.982  0.00  0.00    +0.029 A 
BRANCH  11  12
ATOM     12  S   UNL     1      -5.068   2.740   5.903  0.00  0.00    -0.119 S 
BRANCH  12  13
ATOM     13  C   UNL     1      -6.254   3.611   6.965  0.00  0.00    +0.062 C 
ATOM     14  C   UNL     1      -6.683   4.914   6.288  0.00  0.00    +0.020 C 
BRANCH  13  15
ATOM     15  C   UNL     1      -7.481   2.725   7.192  0.00  0.00    +0.132 C 
BRANCH  15  16
ATOM     16  C   UNL     1      -7.087   1.526   7.949  0.00  0.00    +0.064 C 
ATOM     17  N   UNL     1      -6.783   0.601   8.534  0.00  0.00    -0.197 NA
ENDBRANCH  15  16
ENDBRANCH  13  15
ENDBRANCH  12  13
ENDBRANCH  11  12
ENDBRANCH   4   6
ENDBRANCH   1   2
BRANCH   1  18
ATOM     18  C   UNL     1      -0.036   0.172   2.574  0.00  0.00    +0.114 C 
BRANCH  18  25
ATOM     19  C   UNL     1       2.409  -0.573   1.228  0.00  0.00    +0.044 C 
ATOM     20  C   UNL     1       1.102  -1.199   0.817  0.00  0.00    -0.045 A 
ATOM     21  C   UNL     1       1.074  -2.134  -0.201  0.00  0.00    +0.004 A 
ATOM     22  C   UNL     1      -0.125  -2.708  -0.579  0.00  0.00    +0.000 A 
ATOM     23  C   UNL     1      -1.296  -2.348   0.062  0.00  0.00    +0.000 A 
ATOM     24  C   UNL     1      -1.268  -1.414   1.080  0.00  0.00    +0.006 A 
ATOM     25  C   UNL     1      -0.068  -0.843   1.460  0.00  0.00    -0.024 A 
ENDBRANCH  18  25
BRANCH  18  26
ATOM     26  N   UNL     1       0.532  -0.441   3.777  0.00  0.00    -0.292 N 
ATOM     27  C   UNL     1      -0.031  -1.548   4.299  0.00  0.00    +0.298 C 
ATOM     28  O   UNL     1      -0.950  -2.095   3.719  0.00  0.00    -0.253 OA
ATOM     29  N   UNL     1       0.424  -2.051   5.464  0.00  0.00    -0.313 N 
ATOM     30  H   UNL     1       1.313  -0.050   4.198  0.00  0.00    +0.151 HD
ATOM     31  H   UNL     1       1.157  -1.615   5.927  0.00  0.00    +0.146 HD
ATOM     32  H   UNL     1       0.019  -2.848   5.840  0.00  0.00    +0.146 HD
ENDBRANCH  18  26
ENDBRANCH   1  18
TORSDOF 9
