REMARK  Name = ZINC36500568
REMARK  13 active torsions:
REMARK  status: ('A' for Active; 'I' for Inactive)
REMARK    1  A    between atoms: C_1  and  C_2
REMARK    2  A    between atoms: C_2  and  C_3
REMARK    3  A    between atoms: C_2  and  C_4
REMARK    4  A    between atoms: C_2  and  N_5
REMARK    5  A    between atoms: C_6  and  C_8
REMARK    6  A    between atoms: C_8  and  C_10
REMARK    7  A    between atoms: C_8  and  N_20
REMARK    8  A    between atoms: C_12  and  N_17
REMARK    9  A    between atoms: N_20  and  C_21
REMARK   10  A    between atoms: C_21  and  C_22
REMARK   11  A    between atoms: C_27  and  C_29
REMARK   12  A    between atoms: C_30  and  O_36
REMARK   13  A    between atoms: C_34  and  O_35
REMARK                            x       y       z     vdW  Elec       q    Type
REMARK                         _______ _______ _______ _____ _____    ______ ____
ROOT
ATOM      1  C   UNL     1       2.772  -0.471  -2.605  0.00  0.00    +0.194 C 
ENDROOT
BRANCH   1   2
ATOM      2  C   UNL     1       2.242   0.140  -3.876  0.00  0.00    +0.002 A 
ATOM      3  C   UNL     1       1.669   1.398  -3.852  0.00  0.00    +0.040 A 
ATOM      4  C   UNL     1       1.183   1.958  -5.019  0.00  0.00    +0.127 A 
ATOM      5  C   UNL     1       1.268   1.261  -6.209  0.00  0.00    +0.034 A 
ATOM      6  C   UNL     1       1.841   0.004  -6.235  0.00  0.00    +0.022 A 
ATOM      7  C   UNL     1       2.333  -0.555  -5.069  0.00  0.00    +0.047 A 
ATOM      8 CL   UNL     1       3.059  -2.132  -5.101  0.00  0.00    -0.083 Cl
BRANCH   4   9
ATOM      9  N   UNL     1       0.570   3.305  -4.992  0.00  0.00    +0.056 N 
ATOM     10  O   UNL     1       0.494   3.915  -3.951  0.00  0.00    -0.126 OA
ATOM     11  O   UNL     1       0.144   3.796  -6.012  0.00  0.00    -0.126 OA
ENDBRANCH   4   9
ENDBRANCH   1   2
BRANCH   1  13
ATOM     12  N   UNL     1       0.981   0.003  -0.966  0.00  0.00    -0.309 N 
ATOM     13  C   UNL     1       2.220   0.278  -1.419  0.00  0.00    +0.239 C 
ATOM     14  O   UNL     1       2.890   1.128  -0.873  0.00  0.00    -0.273 OA
ATOM     15  H   UNL     1       0.418  -0.627  -1.444  0.00  0.00    +0.149 HD
BRANCH  12  17
ATOM     16  C   UNL     1       0.475   2.171   0.046  0.00  0.00    +0.031 C 
ATOM     17  C   UNL     1       0.484   0.654   0.248  0.00  0.00    +0.026 C 
ATOM     18  C   UNL     1       1.395   0.302   1.426  0.00  0.00    +0.031 C 
ATOM     19  C   UNL     1      -0.938   0.170   0.541  0.00  0.00    +0.031 C 
ENDBRANCH  12  17
ENDBRANCH   1  13
BRANCH   1  20
ATOM     20  N   UNL     1       4.235  -0.389  -2.596  0.00  0.00    -0.274 N 
ATOM     21  C   UNL     1       4.938  -1.001  -1.623  0.00  0.00    +0.255 C 
ATOM     22  O   UNL     1       4.359  -1.621  -0.752  0.00  0.00    -0.270 OA
BRANCH  21  23
ATOM     23  C   UNL     1       6.408  -0.918  -1.615  0.00  0.00    +0.119 A 
ATOM     24  C   UNL     1       7.053   0.123  -0.930  0.00  0.00    +0.133 A 
ATOM     25  C   UNL     1       8.437   0.191  -0.928  0.00  0.00    +0.046 A 
ATOM     26  C   UNL     1       9.182  -0.763  -1.597  0.00  0.00    +0.007 A 
ATOM     27  C   UNL     1       8.556  -1.792  -2.275  0.00  0.00    +0.046 A 
ATOM     28  C   UNL     1       7.174  -1.883  -2.286  0.00  0.00    +0.133 A 
BRANCH  28  29
ATOM     29  O   UNL     1       6.563  -2.898  -2.946  0.00  0.00    -0.506 OA
ATOM     30  H   UNL     1       6.362  -2.700  -3.872  0.00  0.00    +0.292 HD
ENDBRANCH  28  29
BRANCH  24  31
ATOM     31  O   UNL     1       6.325   1.060  -0.273  0.00  0.00    -0.506 OA
ATOM     32  H   UNL     1       6.136   0.836   0.649  0.00  0.00    +0.292 HD
ENDBRANCH  24  31
ENDBRANCH  21  23
BRANCH  20  33
ATOM     33  C   UNL     1       4.932   0.359  -3.645  0.00  0.00    +0.183 C 
BRANCH  33  34
ATOM     34  C   UNL     1       5.008   1.813  -3.260  0.00  0.00    +0.122 A 
ATOM     35  C   UNL     1       6.053   2.417  -2.665  0.00  0.00    +0.046 A 
ATOM     36  C   UNL     1       5.697   3.773  -2.489  0.00  0.00    +0.041 A 
ATOM     37  C   UNL     1       4.456   3.918  -2.987  0.00  0.00    +0.195 A 
ATOM     38  O   UNL     1       4.046   2.729  -3.458  0.00  0.00    -0.466 OA
ENDBRANCH  33  34
ENDBRANCH  20  33
ENDBRANCH   1  20
TORSDOF 10
