REMARK  Name = ZINC48000348
REMARK  10 active torsions:
REMARK  status: ('A' for Active; 'I' for Inactive)
REMARK    1  A    between atoms: C_1  and  C_2
REMARK    2  A    between atoms: C_2  and  C_3
REMARK    3  A    between atoms: C_2  and  C_4
REMARK    4  A    between atoms: C_2  and  C_5
REMARK    5  A    between atoms: C_5  and  C_6
REMARK    6  A    between atoms: C_6  and  C_8
REMARK    7  A    between atoms: C_6  and  N_15
REMARK    8  A    between atoms: C_16  and  C_18
REMARK    9  A    between atoms: N_20  and  C_21
REMARK   10  A    between atoms: C_22  and  C_26
REMARK                            x       y       z     vdW  Elec       q    Type
REMARK                         _______ _______ _______ _____ _____    ______ ____
ROOT
ATOM      1  N   UNL     1       2.698  -0.816  -0.004  0.00  0.00    -0.301 N 
ATOM      2  C   UNL     1       2.447  -0.252   1.194  0.00  0.00    +0.300 C 
ATOM      3  O   UNL     1       1.575   0.586   1.299  0.00  0.00    -0.265 OA
ATOM      4  H   UNL     1       3.342  -1.538  -0.075  0.00  0.00    +0.150 HD
ENDROOT
BRANCH   2   5
ATOM      5  C   UNL     1       3.242  -0.657   2.391  0.00  0.00    +0.304 C 
ATOM      6  O   UNL     1       4.114  -1.494   2.285  0.00  0.00    -0.265 OA
ATOM      7  N   UNL     1       2.991  -0.092   3.589  0.00  0.00    -0.272 N 
ATOM      8  H   UNL     1       2.295   0.577   3.673  0.00  0.00    +0.156 HD
BRANCH   7   9
ATOM      9  C   UNL     1       3.728  -0.467   4.698  0.00  0.00    +0.084 A 
ATOM     10  C   UNL     1       3.607  -0.002   6.000  0.00  0.00    +0.065 A 
ATOM     11  C   UNL     1       4.511  -0.567   6.975  0.00  0.00    +0.022 A 
ATOM     12  C   UNL     1       5.375  -1.488   6.509  0.00  0.00    +0.048 A 
ATOM     13  S   UNL     1       4.968  -1.595   4.780  0.00  0.00    -0.081 S 
BRANCH  10  14
ATOM     14  C   UNL     1       2.613   1.012   6.367  0.00  0.00    +0.244 C 
ATOM     15  O   UNL     1       1.867   1.468   5.520  0.00  0.00    -0.270 OA
ATOM     16  N   UNL     1       2.526   1.440   7.643  0.00  0.00    -0.325 N 
ATOM     17  H   UNL     1       3.120   1.077   8.318  0.00  0.00    +0.145 HD
ATOM     18  H   UNL     1       1.868   2.110   7.885  0.00  0.00    +0.145 HD
ENDBRANCH  10  14
ENDBRANCH   7   9
ENDBRANCH   2   5
BRANCH   1  19
ATOM     19  C   UNL     1       1.998  -0.340  -1.200  0.00  0.00    +0.104 C 
BRANCH  19  20
ATOM     20  C   UNL     1       2.821  -0.653  -2.422  0.00  0.00    -0.027 A 
ATOM     21  C   UNL     1       3.200  -1.956  -2.684  0.00  0.00    +0.008 A 
ATOM     22  C   UNL     1       3.955  -2.245  -3.806  0.00  0.00    +0.038 A 
ATOM     23  C   UNL     1       4.331  -1.228  -4.667  0.00  0.00    +0.123 A 
ATOM     24  C   UNL     1       3.951   0.077  -4.403  0.00  0.00    +0.038 A 
ATOM     25  C   UNL     1       3.192   0.362  -3.284  0.00  0.00    +0.008 A 
ATOM     26  F   UNL     1       5.069  -1.508  -5.763  0.00  0.00    -0.205 F 
ENDBRANCH  19  20
BRANCH  19  27
ATOM     27  C   UNL     1       0.640  -1.037  -1.307  0.00  0.00    +0.033 C 
BRANCH  27  29
ATOM     28  C   UNL     1       0.521  -0.666  -3.775  0.00  0.00    +0.010 C 
ATOM     29  C   UNL     1      -0.172  -0.401  -2.437  0.00  0.00    -0.036 C 
ATOM     30  C   UNL     1      -0.273   1.108  -2.205  0.00  0.00    +0.010 C 
ATOM     31  C   UNL     1      -1.576  -1.009  -2.461  0.00  0.00    +0.010 C 
ENDBRANCH  27  29
ENDBRANCH  19  27
ENDBRANCH   1  19
TORSDOF 7
