REMARK  Name = ZINC41712448
REMARK  9 active torsions:
REMARK  status: ('A' for Active; 'I' for Inactive)
REMARK    1  A    between atoms: C_1  and  C_2
REMARK    2  A    between atoms: C_5  and  C_7
REMARK    3  A    between atoms: C_7  and  C_9
REMARK    4  A    between atoms: C_7  and  N_10
REMARK    5  A    between atoms: C_11  and  C_13
REMARK    6  A    between atoms: C_13  and  C_23
REMARK    7  A    between atoms: C_14  and  C_15
REMARK    8  A    between atoms: C_18  and  O_22
REMARK    9  A    between atoms: C_19  and  O_21
REMARK                            x       y       z     vdW  Elec       q    Type
REMARK                         _______ _______ _______ _____ _____    ______ ____
ROOT
ATOM      1  C   UNL     1       4.628  -3.689  -2.375  0.00  0.00    +0.114 C 
ATOM      2  C   UNL     1       5.324  -4.726  -2.958  0.00  0.00    +0.032 C 
ENDROOT
BRANCH   2   3
ATOM      3  C   UNL     1       6.378  -4.443  -3.933  0.00  0.00    -0.020 A 
ATOM      4  C   UNL     1       6.581  -5.306  -5.020  0.00  0.00    +0.012 A 
ATOM      5  C   UNL     1       7.574  -5.036  -5.935  0.00  0.00    +0.050 A 
ATOM      6  C   UNL     1       8.376  -3.912  -5.785  0.00  0.00    +0.158 A 
ATOM      7  C   UNL     1       8.181  -3.048  -4.706  0.00  0.00    +0.159 A 
ATOM      8  C   UNL     1       7.186  -3.306  -3.787  0.00  0.00    +0.057 A 
BRANCH   7   9
ATOM      9  O   UNL     1       8.970  -1.949  -4.565  0.00  0.00    -0.503 OA
ATOM     10  H   UNL     1       8.627  -1.160  -5.005  0.00  0.00    +0.292 HD
ENDBRANCH   7   9
BRANCH   6  11
ATOM     11  O   UNL     1       9.354  -3.653  -6.691  0.00  0.00    -0.503 OA
ATOM     12  H   UNL     1       9.066  -3.106  -7.435  0.00  0.00    +0.292 HD
ENDBRANCH   6  11
ENDBRANCH   2   3
BRANCH   1  14
ATOM     13  N   UNL     1       3.007  -2.946  -0.706  0.00  0.00    -0.301 N 
ATOM     14  C   UNL     1       3.688  -3.960  -1.276  0.00  0.00    +0.255 C 
ATOM     15  O   UNL     1       3.524  -5.099  -0.883  0.00  0.00    -0.269 OA
ATOM     16  H   UNL     1       3.138  -2.037  -1.020  0.00  0.00    +0.150 HD
BRANCH  13  17
ATOM     17  C   UNL     1       2.071  -3.216   0.388  0.00  0.00    +0.136 C 
ATOM     18  C   UNL     1       2.833  -3.256   1.714  0.00  0.00    +0.036 C 
BRANCH  17  23
ATOM     19  C   UNL     1      -0.066   1.351   0.232  0.00  0.00    +0.086 C 
ATOM     20  C   UNL     1       0.102  -0.140   0.372  0.00  0.00    +0.102 A 
ATOM     21  C   UNL     1      -0.880  -1.021   0.636  0.00  0.00    +0.045 A 
ATOM     22  C   UNL     1      -0.281  -2.301   0.679  0.00  0.00    +0.047 A 
ATOM     23  C   UNL     1       1.031  -2.126   0.439  0.00  0.00    +0.125 A 
ATOM     24  O   UNL     1       1.256  -0.816   0.248  0.00  0.00    -0.463 OA
ENDBRANCH  17  23
ENDBRANCH  13  17
ENDBRANCH   1  14
BRANCH   1  25
ATOM     25  C   UNL     1       4.821  -2.348  -2.838  0.00  0.00    +0.104 C 
ATOM     26  N   UNL     1       4.974  -1.284  -3.205  0.00  0.00    -0.191 NA
ENDBRANCH   1  25
TORSDOF 7
