REMARK  Name = ZINC51053571
REMARK  10 active torsions:
REMARK  status: ('A' for Active; 'I' for Inactive)
REMARK    1  A    between atoms: C_1  and  C_2
REMARK    2  A    between atoms: C_2  and  C_3
REMARK    3  A    between atoms: C_3  and  C_4
REMARK    4  A    between atoms: C_4  and  C_6
REMARK    5  A    between atoms: C_4  and  N_7
REMARK    6  A    between atoms: C_8  and  C_10
REMARK    7  A    between atoms: N_15  and  C_17
REMARK    8  A    between atoms: C_17  and  C_19
REMARK    9  A    between atoms: C_17  and  C_20
REMARK   10  A    between atoms: N_22  and  C_23
REMARK                            x       y       z     vdW  Elec       q    Type
REMARK                         _______ _______ _______ _____ _____    ______ ____
ROOT
ATOM      1  C   UNL     1       1.522  -3.984  -2.302  0.00  0.00    +0.058 C 
ATOM      2  C   UNL     1       2.975  -3.528  -2.461  0.00  0.00    +0.009 C 
ATOM      3  C   UNL     1       3.559  -4.151  -3.733  0.00  0.00    -0.018 C 
ATOM      4  C   UNL     1       3.434  -5.673  -3.653  0.00  0.00    -0.078 C 
ATOM      5  N   UNL     1       2.020  -6.046  -3.528  0.00  0.00    +0.388 N 
ATOM      6  C   UNL     1       1.472  -5.513  -2.275  0.00  0.00    -0.065 C 
ATOM      7  H   UNL     1       1.503  -5.668  -4.308  0.00  0.00    -0.081 HD
ENDROOT
BRANCH   1   9
ATOM      8  N   UNL     1       0.907  -2.108  -0.811  0.00  0.00    -0.313 N 
ATOM      9  C   UNL     1       0.962  -3.440  -1.013  0.00  0.00    +0.215 C 
ATOM     10  O   UNL     1       0.560  -4.200  -0.158  0.00  0.00    -0.276 OA
ATOM     11  H   UNL     1       1.228  -1.500  -1.496  0.00  0.00    +0.149 HD
BRANCH   8  12
ATOM     12  C   UNL     1       0.363  -1.579   0.441  0.00  0.00    +0.070 C 
ATOM     13  C   UNL     1      -1.160  -1.477   0.333  0.00  0.00    +0.028 C 
BRANCH  12  14
ATOM     14  C   UNL     1       0.949  -0.191   0.706  0.00  0.00    +0.022 C 
BRANCH  14  16
ATOM     15  C   UNL     1       3.043   1.078   1.203  0.00  0.00    +0.004 C 
ATOM     16  C   UNL     1       2.457  -0.310   0.938  0.00  0.00    -0.002 C 
ENDBRANCH  14  16
ENDBRANCH  12  14
ENDBRANCH   8  12
ENDBRANCH   1   9
BRANCH   5  17
ATOM     17  C   UNL     1       1.899  -7.511  -3.530  0.00  0.00    +0.016 C 
ATOM     18  C   UNL     1       0.433  -7.902  -3.334  0.00  0.00    -0.004 C 
BRANCH  17  19
ATOM     19  C   UNL     1       2.392  -8.054  -4.846  0.00  0.00    +0.203 C 
ATOM     20  O   UNL     1       2.322  -7.373  -5.848  0.00  0.00    -0.277 OA
ATOM     21  N   UNL     1       2.911  -9.296  -4.911  0.00  0.00    -0.285 N 
ATOM     22  H   UNL     1       2.909  -9.864  -4.124  0.00  0.00    +0.155 HD
BRANCH  21  23
ATOM     23  C   UNL     1       3.453  -9.767  -6.114  0.00  0.00    +0.069 A 
ATOM     24  C   UNL     1       2.966  -9.299  -7.326  0.00  0.00    +0.027 A 
ATOM     25  C   UNL     1       3.503  -9.764  -8.511  0.00  0.00    +0.022 A 
ATOM     26  C   UNL     1       4.524 -10.697  -8.491  0.00  0.00    +0.044 A 
ATOM     27  C   UNL     1       5.013 -11.167  -7.285  0.00  0.00    +0.060 A 
ATOM     28  C   UNL     1       4.484 -10.700  -6.095  0.00  0.00    +0.146 A 
ATOM     29  F   UNL     1       4.964 -11.155  -4.917  0.00  0.00    -0.203 F 
ATOM     30 CL   UNL     1       5.194 -11.280  -9.983  0.00  0.00    -0.083 Cl
ENDBRANCH  21  23
ENDBRANCH  17  19
ENDBRANCH   5  17
TORSDOF 7
