REMARK  Name = ZINC59250216
REMARK  7 active torsions:
REMARK  status: ('A' for Active; 'I' for Inactive)
REMARK    1  A    between atoms: C_1  and  C_2
REMARK    2  A    between atoms: C_7  and  C_8
REMARK    3  A    between atoms: C_7  and  C_9
REMARK    4  A    between atoms: N_12  and  N_13
REMARK    5  A    between atoms: C_14  and  C_16
REMARK    6  A    between atoms: N_24  and  C_25
REMARK    7  A    between atoms: N_24  and  C_26
REMARK                            x       y       z     vdW  Elec       q    Type
REMARK                         _______ _______ _______ _____ _____    ______ ____
ROOT
ATOM      1  N   UNL     1      -0.518   0.743  -2.635  0.00  0.00    -0.207 N 
ATOM      2  C   UNL     1      -0.519   1.162  -3.917  0.00  0.00    +0.235 C 
ATOM      3  O   UNL     1      -0.628   0.357  -4.818  0.00  0.00    -0.274 OA
ATOM      4  H   UNL     1      -0.431   1.386  -1.915  0.00  0.00    +0.177 HD
ENDROOT
BRANCH   1  15
ATOM      5  C   UNL     1      -0.349   1.311  -0.033  0.00  0.00    +0.018 C 
ATOM      6  C   UNL     1      -0.835  -0.131   0.125  0.00  0.00    +0.013 C 
ATOM      7  C   UNL     1      -2.297  -0.304   0.638  0.00  0.00    +0.013 C 
ATOM      8  C   UNL     1      -2.350  -1.748   1.188  0.00  0.00    +0.005 C 
ATOM      9  C   UNL     1      -0.915  -2.309   0.945  0.00  0.00    +0.001 C 
ATOM     10  C   UNL     1      -0.057  -1.013   1.164  0.00  0.00    -0.021 C 
ATOM     11  C   UNL     1      -0.186  -0.472   2.589  0.00  0.00    +0.012 C 
ATOM     12  C   UNL     1       1.406  -1.217   0.764  0.00  0.00    +0.012 C 
ATOM     13  C   UNL     1      -0.821  -2.470  -0.604  0.00  0.00    +0.057 C 
ATOM     14  C   UNL     1      -0.740  -1.011  -1.129  0.00  0.00    +0.044 C 
ATOM     15  N   UNL     1      -0.642  -0.622  -2.345  0.00  0.00    -0.189 NA
ENDBRANCH   1  15
BRANCH   2  16
ATOM     16  C   UNL     1      -0.386   2.630  -4.229  0.00  0.00    +0.080 C 
ATOM     17  C   UNL     1      -1.545   3.395  -3.587  0.00  0.00    +0.032 C 
ATOM     18  C   UNL     1      -1.388   4.891  -3.878  0.00  0.00    +0.110 C 
ATOM     19  N   UNL     1      -1.270   5.081  -5.330  0.00  0.00    -0.285 N 
ATOM     20  C   UNL     1      -0.246   4.322  -6.061  0.00  0.00    +0.110 C 
ATOM     21  C   UNL     1      -0.416   2.833  -5.746  0.00  0.00    +0.032 C 
ATOM     22  C   UNL     1      -2.087   5.934  -5.979  0.00  0.00    +0.304 C 
ATOM     23  O   UNL     1      -3.142   6.269  -5.475  0.00  0.00    -0.252 OA
ATOM     24  N   UNL     1      -1.735   6.415  -7.188  0.00  0.00    -0.292 N 
ATOM     25  C   UNL     1      -2.680   7.232  -7.954  0.00  0.00    +0.133 C 
ATOM     26  C   UNL     1      -0.408   6.123  -7.735  0.00  0.00    +0.133 C 
ENDBRANCH   2  16
TORSDOF 2
