REMARK  Name = ZINC63506924
REMARK  11 active torsions:
REMARK  status: ('A' for Active; 'I' for Inactive)
REMARK    1  A    between atoms: C_1  and  C_2
REMARK    2  A    between atoms: C_6  and  C_37
REMARK    3  A    between atoms: C_7  and  N_8
REMARK    4  A    between atoms: C_9  and  C_11
REMARK    5  A    between atoms: C_11  and  C_13
REMARK    6  A    between atoms: C_11  and  N_20
REMARK    7  A    between atoms: N_20  and  C_21
REMARK    8  A    between atoms: C_21  and  C_22
REMARK    9  A    between atoms: C_22  and  C_23
REMARK   10  A    between atoms: C_31  and  C_33
REMARK   11  A    between atoms: C_34  and  C_36
REMARK                            x       y       z     vdW  Elec       q    Type
REMARK                         _______ _______ _______ _____ _____    ______ ____
ROOT
ATOM      1  C   UNL     1       0.242  -0.140   4.924  0.00  0.00    +0.192 C 
ENDROOT
BRANCH   1   2
ATOM      2  C   UNL     1       1.508   0.569   5.333  0.00  0.00    -0.018 A 
ATOM      3  C   UNL     1       2.554  -0.147   5.883  0.00  0.00    +0.007 A 
ATOM      4  C   UNL     1       3.715   0.502   6.258  0.00  0.00    +0.020 A 
ATOM      5  C   UNL     1       3.830   1.870   6.083  0.00  0.00    +0.041 A 
ATOM      6  C   UNL     1       2.782   2.586   5.533  0.00  0.00    +0.020 A 
ATOM      7  C   UNL     1       1.624   1.935   5.153  0.00  0.00    +0.007 A 
ATOM      8 CL   UNL     1       5.287   2.686   6.555  0.00  0.00    -0.084 Cl
ENDBRANCH   1   2
BRANCH   1  10
ATOM      9  N   UNL     1      -0.053  -0.346   2.477  0.00  0.00    -0.283 N 
ATOM     10  C   UNL     1       0.465  -0.850   3.614  0.00  0.00    +0.242 C 
ATOM     11  O   UNL     1       1.111  -1.876   3.583  0.00  0.00    -0.273 OA
ATOM     12  H   UNL     1      -0.515   0.507   2.491  0.00  0.00    +0.155 HD
BRANCH   9  19
ATOM     13  C   UNL     1       1.479   0.826   0.384  0.00  0.00    +0.045 C 
ATOM     14  C   UNL     1       0.814  -0.517   0.229  0.00  0.00    -0.029 A 
ATOM     15  C   UNL     1       0.943  -1.220  -0.953  0.00  0.00    +0.005 A 
ATOM     16  C   UNL     1       0.333  -2.452  -1.097  0.00  0.00    +0.001 A 
ATOM     17  C   UNL     1      -0.408  -2.986  -0.058  0.00  0.00    +0.005 A 
ATOM     18  C   UNL     1      -0.541  -2.288   1.126  0.00  0.00    -0.029 A 
ATOM     19  C   UNL     1       0.075  -1.052   1.276  0.00  0.00    +0.039 A 
ATOM     20  C   UNL     1      -1.350  -2.869   2.257  0.00  0.00    +0.045 C 
ENDBRANCH   9  19
ENDBRANCH   1  10
BRANCH   1  21
ATOM     21  N   UNL     1      -0.125  -1.116   5.953  0.00  0.00    -0.286 N 
ATOM     22  C   UNL     1      -0.390  -0.704   7.208  0.00  0.00    +0.213 C 
ATOM     23  O   UNL     1      -0.598  -1.519   8.082  0.00  0.00    -0.276 OA
ATOM     24  C   UNL     1      -0.427   0.768   7.527  0.00  0.00    +0.109 C 
BRANCH  21  25
ATOM     25  C   UNL     1      -0.204  -2.539   5.616  0.00  0.00    +0.113 C 
BRANCH  25  26
ATOM     26  C   UNL     1       1.145  -3.205   5.894  0.00  0.00    +0.052 C 
BRANCH  26  27
ATOM     27  C   UNL     1       1.092  -4.647   5.460  0.00  0.00    -0.037 C 
ATOM     28  C   UNL     1       0.041  -5.291   4.903  0.00  0.00    -0.001 A 
ATOM     29  C   UNL     1      -1.316  -4.858   4.549  0.00  0.00    +0.010 A 
ATOM     30  C   UNL     1      -2.165  -5.751   3.992  0.00  0.00    +0.001 A 
ATOM     31  C   UNL     1      -1.783  -7.077   3.746  0.00  0.00    +0.002 A 
ATOM     32  C   UNL     1      -0.554  -7.549   4.043  0.00  0.00    +0.026 A 
ATOM     33  C   UNL     1       0.420  -6.696   4.632  0.00  0.00    +0.043 A 
ATOM     34  N   UNL     1       1.658  -6.913   5.007  0.00  0.00    -0.378 N 
ATOM     35  C   UNL     1       2.206  -5.666   5.553  0.00  0.00    +0.103 C 
ATOM     36  C   UNL     1       2.615  -5.869   7.014  0.00  0.00    +0.035 C 
ATOM     37  H   UNL     1       2.133  -7.755   4.932  0.00  0.00    +0.160 HD
ENDBRANCH  26  27
ENDBRANCH  25  26
ENDBRANCH  21  25
ENDBRANCH   1  21
TORSDOF 7
