REMARK  Name = ZINC65055016
REMARK  10 active torsions:
REMARK  status: ('A' for Active; 'I' for Inactive)
REMARK    1  A    between atoms: C_1  and  C_2
REMARK    2  A    between atoms: C_2  and  O_3
REMARK    3  A    between atoms: O_3  and  C_4
REMARK    4  A    between atoms: C_9  and  C_10
REMARK    5  A    between atoms: C_10  and  N_11
REMARK    6  A    between atoms: C_12  and  C_14
REMARK    7  A    between atoms: C_17  and  C_19
REMARK    8  A    between atoms: C_20  and  C_29
REMARK    9  A    between atoms: N_23  and  C_24
REMARK   10  A    between atoms: C_32  and  C_35
REMARK                            x       y       z     vdW  Elec       q    Type
REMARK                         _______ _______ _______ _____ _____    ______ ____
ROOT
ATOM      1  C   UNL     1      -5.543   0.310  -2.906  0.00  0.00    +0.190 A 
ATOM      2  C   UNL     1      -6.564   1.161  -3.273  0.00  0.00    +0.055 A 
ATOM      3  C   UNL     1      -6.445   1.369  -4.648  0.00  0.00    +0.052 A 
ATOM      4  C   UNL     1      -5.353   0.637  -5.073  0.00  0.00    +0.154 A 
ATOM      5  O   UNL     1      -4.821   0.012  -4.007  0.00  0.00    -0.449 OA
ENDROOT
BRANCH   4   6
ATOM      6  C   UNL     1      -4.856   0.560  -6.449  0.00  0.00    +0.110 A 
ATOM      7  C   UNL     1      -5.611   0.387  -7.602  0.00  0.00    +0.075 A 
ATOM      8  N   UNL     1      -4.757   0.373  -8.641  0.00  0.00    -0.345 N 
ATOM      9  C   UNL     1      -3.536   0.524  -8.207  0.00  0.00    +0.175 A 
ATOM     10  N   UNL     1      -3.543   0.649  -6.863  0.00  0.00    -0.326 N 
ATOM     11  H   UNL     1      -5.011   0.266  -9.571  0.00  0.00    +0.167 HD
BRANCH   7  12
ATOM     12  C   UNL     1      -7.083   0.246  -7.674  0.00  0.00    +0.000 A 
ATOM     13  C   UNL     1      -7.750  -0.592  -6.780  0.00  0.00    +0.010 A 
ATOM     14  C   UNL     1      -9.122  -0.719  -6.851  0.00  0.00    +0.004 A 
ATOM     15  C   UNL     1      -9.836  -0.019  -7.808  0.00  0.00    -0.050 A 
ATOM     16  C   UNL     1      -9.180   0.813  -8.698  0.00  0.00    +0.004 A 
ATOM     17  C   UNL     1      -7.809   0.954  -8.632  0.00  0.00    +0.010 A 
ATOM     18  C   UNL     1     -11.334  -0.163  -7.881  0.00  0.00    +0.044 C 
ENDBRANCH   7  12
BRANCH  10  19
ATOM     19  C   UNL     1      -2.373   0.842  -6.003  0.00  0.00    +0.089 C 
ATOM     20  C   UNL     1      -1.602   2.106  -6.436  0.00  0.00    +0.025 C 
ATOM     21  C   UNL     1      -0.113   1.728  -6.239  0.00  0.00    +0.002 C 
ATOM     22  C   UNL     1      -0.075   0.245  -6.685  0.00  0.00    +0.002 C 
ATOM     23  C   UNL     1      -1.402  -0.341  -6.162  0.00  0.00    +0.025 C 
ENDBRANCH  10  19
ENDBRANCH   4   6
BRANCH   1  25
ATOM     24  N   UNL     1      -4.242  -1.006  -1.324  0.00  0.00    -0.305 N 
ATOM     25  C   UNL     1      -5.282  -0.180  -1.552  0.00  0.00    +0.280 C 
ATOM     26  O   UNL     1      -6.004   0.159  -0.632  0.00  0.00    -0.267 OA
ATOM     27  H   UNL     1      -3.667  -1.276  -2.057  0.00  0.00    +0.149 HD
BRANCH  24  28
ATOM     28  C   UNL     1      -3.981  -1.497   0.032  0.00  0.00    +0.143 C 
BRANCH  28  34
ATOM     29  C   UNL     1      -1.498  -1.848   0.006  0.00  0.00    +0.125 A 
ATOM     30  C   UNL     1      -0.387  -2.679  -0.003  0.00  0.00    +0.046 A 
ATOM     31  C   UNL     1      -0.552  -4.051  -0.008  0.00  0.00    +0.004 A 
ATOM     32  C   UNL     1      -1.823  -4.596  -0.004  0.00  0.00    +0.001 A 
ATOM     33  C   UNL     1      -2.932  -3.769   0.004  0.00  0.00    +0.009 A 
ATOM     34  C   UNL     1      -2.772  -2.397   0.016  0.00  0.00    +0.011 A 
BRANCH  29  35
ATOM     35  O   UNL     1      -1.339  -0.499   0.012  0.00  0.00    -0.492 OA
BRANCH  35  37
ATOM     36  C   UNL     1      -0.019   1.526   0.010  0.00  0.00    +0.048 C 
ATOM     37  C   UNL     1       0.002  -0.004   0.002  0.00  0.00    +0.225 C 
ENDBRANCH  35  37
ENDBRANCH  29  35
ENDBRANCH  28  34
ENDBRANCH  24  28
ENDBRANCH   1  25
TORSDOF 8
