REMARK  Name = ZINC59409349
REMARK  12 active torsions:
REMARK  status: ('A' for Active; 'I' for Inactive)
REMARK    1  A    between atoms: C_1  and  C_2
REMARK    2  A    between atoms: C_2  and  C_3
REMARK    3  A    between atoms: C_3  and  C_4
REMARK    4  A    between atoms: C_4  and  N_5
REMARK    5  A    between atoms: C_6  and  N_34
REMARK    6  A    between atoms: C_7  and  N_14
REMARK    7  A    between atoms: N_14  and  C_15
REMARK    8  A    between atoms: C_20  and  C_22
REMARK    9  A    between atoms: C_22  and  N_23
REMARK   10  A    between atoms: N_23  and  C_24
REMARK   11  A    between atoms: N_23  and  C_31
REMARK   12  A    between atoms: C_24  and  C_25
REMARK                            x       y       z     vdW  Elec       q    Type
REMARK                         _______ _______ _______ _____ _____    ______ ____
ROOT
ATOM      1  N   UNL     1       0.666  -4.141  -5.490  0.00  0.00    -0.263 N 
ATOM      2  C   UNL     1      -0.561  -3.608  -5.662  0.00  0.00    +0.204 C 
ATOM      3  O   UNL     1      -1.185  -3.199  -4.704  0.00  0.00    -0.277 OA
ENDROOT
BRANCH   1   6
ATOM      4  N   UNL     1       2.182  -2.975  -2.352  0.00  0.00    -0.280 N 
ATOM      5  C   UNL     1       1.600  -2.947  -3.599  0.00  0.00    +0.127 A 
ATOM      6  C   UNL     1       1.264  -4.137  -4.212  0.00  0.00    +0.140 A 
ATOM      7  C   UNL     1       1.528  -5.346  -3.541  0.00  0.00    +0.277 A 
ATOM      8  O   UNL     1       1.242  -6.411  -4.060  0.00  0.00    -0.266 OA
ATOM      9  N   UNL     1       2.100  -5.317  -2.321  0.00  0.00    -0.273 N 
ATOM     10  H   UNL     1       2.283  -6.150  -1.858  0.00  0.00    +0.173 HD
ATOM     11  C   UNL     1       2.426  -4.149  -1.741  0.00  0.00    +0.331 A 
ATOM     12  O   UNL     1       2.946  -4.152  -0.642  0.00  0.00    -0.246 OA
BRANCH   5  13
ATOM     13  N   UNL     1       1.356  -1.749  -4.225  0.00  0.00    -0.343 N 
ATOM     14  H   UNL     1       1.522  -0.915  -3.758  0.00  0.00    +0.144 HD
ATOM     15  H   UNL     1       1.018  -1.737  -5.134  0.00  0.00    +0.144 HD
ENDBRANCH   5  13
BRANCH   4  16
ATOM     16  C   UNL     1       2.544  -1.720  -1.690  0.00  0.00    +0.128 C 
BRANCH  16  17
ATOM     17  C   UNL     1       3.974  -1.333  -2.075  0.00  0.00    +0.021 C 
BRANCH  17  19
ATOM     18  C   UNL     1       5.781   0.364  -1.768  0.00  0.00    +0.004 C 
ATOM     19  C   UNL     1       4.351  -0.022  -1.383  0.00  0.00    -0.002 C 
ENDBRANCH  17  19
ENDBRANCH  16  17
ENDBRANCH   4  16
ENDBRANCH   1   6
BRANCH   1  20
ATOM     20  C   UNL     1       1.377  -4.725  -6.630  0.00  0.00    +0.082 C 
ATOM     21  C   UNL     1       2.716  -5.333  -6.162  0.00  0.00    +0.023 C 
ATOM     22  C   UNL     1       3.697  -5.026  -7.320  0.00  0.00    +0.002 C 
ATOM     23  C   UNL     1       3.263  -3.609  -7.769  0.00  0.00    +0.002 C 
ATOM     24  C   UNL     1       1.725  -3.629  -7.651  0.00  0.00    +0.023 C 
ENDBRANCH   1  20
BRANCH   2  25
ATOM     25  C   UNL     1      -1.158  -3.519  -7.043  0.00  0.00    +0.020 C 
BRANCH  25  26
ATOM     26  N   UNL     1      -2.425  -2.778  -6.982  0.00  0.00    +0.387 N 
ATOM     27  H   UNL     1      -3.036  -3.212  -6.307  0.00  0.00    -0.081 HD
BRANCH  26  28
ATOM     28  C   UNL     1      -2.161  -1.389  -6.584  0.00  0.00    -0.068 C 
ATOM     29  C   UNL     1      -2.470  -0.999  -5.137  0.00  0.00    -0.017 C 
ATOM     30  C   UNL     1      -3.368  -0.503  -6.271  0.00  0.00    -0.017 C 
ENDBRANCH  26  28
BRANCH  26  31
ATOM     31  C   UNL     1      -3.065  -2.795  -8.305  0.00  0.00    -0.074 C 
BRANCH  31  32
ATOM     32  C   UNL     1      -4.472  -2.203  -8.197  0.00  0.00    -0.028 C 
ATOM     33  C   UNL     1      -5.288  -3.009  -7.184  0.00  0.00    +0.002 C 
ATOM     34  C   UNL     1      -6.695  -2.417  -7.077  0.00  0.00    +0.000 C 
ATOM     35  C   UNL     1      -7.379  -2.476  -8.444  0.00  0.00    +0.000 C 
ATOM     36  C   UNL     1      -6.563  -1.671  -9.457  0.00  0.00    +0.000 C 
ATOM     37  C   UNL     1      -5.156  -2.262  -9.565  0.00  0.00    +0.002 C 
ENDBRANCH  31  32
ENDBRANCH  26  31
ENDBRANCH  25  26
ENDBRANCH   2  25
TORSDOF 11
