REMARK  Name = ZINC62069447
REMARK  8 active torsions:
REMARK  status: ('A' for Active; 'I' for Inactive)
REMARK    1  A    between atoms: C_1  and  C_2
REMARK    2  A    between atoms: C_2  and  C_4
REMARK    3  A    between atoms: C_2  and  C_17
REMARK    4  A    between atoms: C_4  and  N_5
REMARK    5  A    between atoms: N_5  and  S_6
REMARK    6  A    between atoms: S_6  and  C_9
REMARK    7  A    between atoms: C_14  and  N_15
REMARK    8  A    between atoms: C_17  and  N_18
REMARK                            x       y       z     vdW  Elec       q    Type
REMARK                         _______ _______ _______ _____ _____    ______ ____
ROOT
ATOM      1  S   UNL     1      -0.151  -0.736   4.761  0.00  0.00    +0.060 S 
ATOM      2  O   UNL     1      -1.131  -0.103   5.572  0.00  0.00    -0.153 OA
ATOM      3  O   UNL     1      -0.061  -2.149   4.638  0.00  0.00    -0.153 OA
ENDROOT
BRANCH   1   4
ATOM      4  C   UNL     1       1.417  -0.180   5.342  0.00  0.00    +0.127 A 
ATOM      5  C   UNL     1       2.414  -1.094   5.622  0.00  0.00    +0.045 A 
ATOM      6  C   UNL     1       3.645  -0.659   6.078  0.00  0.00    +0.020 A 
ATOM      7  C   UNL     1       3.882   0.693   6.254  0.00  0.00    +0.017 A 
ATOM      8  C   UNL     1       2.890   1.611   5.975  0.00  0.00    +0.026 A 
ATOM      9  C   UNL     1       1.654   1.178   5.512  0.00  0.00    +0.051 A 
ATOM     10 BR   UNL     1       5.007  -1.914   6.462  0.00  0.00    -0.050 Br
BRANCH   9  11
ATOM     11  N   UNL     1       0.650   2.105   5.223  0.00  0.00    -0.356 N 
ATOM     12  H   UNL     1      -0.234   1.799   4.965  0.00  0.00    +0.142 HD
ATOM     13  H   UNL     1       0.836   3.055   5.281  0.00  0.00    +0.142 HD
ENDBRANCH   9  11
ENDBRANCH   1   4
BRANCH   1  14
ATOM     14  N   UNL     1      -0.346  -0.138   3.229  0.00  0.00    -0.190 NA
ATOM     15  H   UNL     1      -1.061   0.489   3.041  0.00  0.00    +0.148 HD
BRANCH  14  16
ATOM     16  C   UNL     1       0.562  -0.557   2.159  0.00  0.00    +0.107 C 
BRANCH  16  18
ATOM     17  C   UNL     1      -0.170   1.307   0.665  0.00  0.00    +0.007 C 
ATOM     18  C   UNL     1      -0.056  -0.212   0.802  0.00  0.00    -0.015 C 
BRANCH  18  19
ATOM     19  C   UNL     1       0.832  -0.760  -0.317  0.00  0.00    -0.074 C 
BRANCH  19  20
ATOM     20  N   UNL     1       0.835  -2.228  -0.266  0.00  0.00    +0.380 N 
ATOM     21  C   UNL     1      -0.500  -2.756  -0.648  0.00  0.00    -0.079 C 
ATOM     22  C   UNL     1      -0.194  -4.209  -1.089  0.00  0.00    -0.020 C 
ATOM     23  C   UNL     1       1.166  -4.072  -1.810  0.00  0.00    -0.020 C 
ATOM     24  C   UNL     1       1.783  -2.772  -1.262  0.00  0.00    -0.079 C 
ATOM     25  H   UNL     1       1.083  -2.544   0.660  0.00  0.00    -0.082 HD
ENDBRANCH  19  20
ENDBRANCH  18  19
ENDBRANCH  16  18
ENDBRANCH  14  16
ENDBRANCH   1  14
TORSDOF 7
