REMARK  Name = ZINC09793944
REMARK  8 active torsions:
REMARK  status: ('A' for Active; 'I' for Inactive)
REMARK    1  A    between atoms: C_1  and  C_2
REMARK    2  A    between atoms: N_4  and  C_5
REMARK    3  A    between atoms: C_8  and  O_31
REMARK    4  A    between atoms: C_9  and  S_11
REMARK    5  A    between atoms: S_11  and  N_14
REMARK    6  A    between atoms: N_14  and  C_15
REMARK    7  A    between atoms: C_23  and  N_61
REMARK    8  A    between atoms: O_31  and  C_32
REMARK                            x       y       z     vdW  Elec       q    Type
REMARK                         _______ _______ _______ _____ _____    ______ ____
ROOT
ATOM      1  N   UNL     1       3.416   0.473   1.923  0.00  0.00    -0.182 NA
ATOM      2  H   UNL     1       3.410   1.001   2.736  0.00  0.00    +0.149 HD
ENDROOT
BRANCH   1   3
ATOM      3  C   UNL     1       2.533   0.831   0.810  0.00  0.00    +0.114 C 
ATOM      4  C   UNL     1       1.076   0.765   1.275  0.00  0.00    +0.073 C 
ATOM      5  C   UNL     1       0.197   1.420   0.203  0.00  0.00    +0.109 C 
ATOM      6  C   UNL     1       0.436   0.735  -1.143  0.00  0.00    +0.029 C 
ATOM      7  C   UNL     1      -0.493   1.347  -2.195  0.00  0.00    -0.075 C 
ATOM      8  C   UNL     1      -2.152   1.872  -0.509  0.00  0.00    -0.075 C 
ATOM      9  C   UNL     1      -1.275   1.275   0.594  0.00  0.00    +0.029 C 
ATOM     10  C   UNL     1      -2.814   1.626  -2.825  0.00  0.00    -0.096 C 
ATOM     11  O   UNL     1       0.539   2.801   0.112  0.00  0.00    -0.485 OA
ATOM     12  C   UNL     1       1.854   3.129   0.021  0.00  0.00    +0.126 A 
ATOM     13  C   UNL     1       2.854   2.228   0.345  0.00  0.00    +0.013 A 
ATOM     14  C   UNL     1       4.182   2.608   0.245  0.00  0.00    +0.009 A 
ATOM     15  C   UNL     1       4.514   3.880  -0.182  0.00  0.00    +0.001 A 
ATOM     16  C   UNL     1       3.517   4.779  -0.511  0.00  0.00    +0.004 A 
ATOM     17  C   UNL     1       2.192   4.408  -0.410  0.00  0.00    +0.046 A 
ATOM     18  N   UNL     1      -1.895   1.147  -1.771  0.00  0.00    +0.378 N 
ATOM     19  H   UNL     1      -2.058   0.145  -1.618  0.00  0.00    -0.082 HD
ENDBRANCH   1   3
BRANCH   1  20
ATOM     20  S   UNL     1       4.424  -0.835   1.792  0.00  0.00    +0.062 S 
ATOM     21  O   UNL     1       5.085  -0.964   3.043  0.00  0.00    -0.153 OA
ATOM     22  O   UNL     1       3.655  -1.886   1.224  0.00  0.00    -0.153 OA
BRANCH  20  27
ATOM     23  C   UNL     1       7.931   0.158   0.089  0.00  0.00    +0.035 A 
ATOM     24  C   UNL     1       7.605   0.228  -1.260  0.00  0.00    +0.027 A 
ATOM     25  C   UNL     1       6.312  -0.026  -1.671  0.00  0.00    +0.049 A 
ATOM     26  C   UNL     1       5.339  -0.356  -0.739  0.00  0.00    +0.146 A 
ATOM     27  C   UNL     1       5.662  -0.421   0.608  0.00  0.00    +0.148 A 
ATOM     28  C   UNL     1       6.955  -0.168   1.022  0.00  0.00    +0.055 A 
BRANCH  23  32
ATOM     29  C   UNL     1      11.134   0.084   2.066  0.00  0.00    +0.109 C 
ATOM     30  C   UNL     1       9.767  -0.271   1.542  0.00  0.00    +0.214 C 
ATOM     31  O   UNL     1       9.138  -1.175   2.050  0.00  0.00    -0.276 OA
ATOM     32  N   UNL     1       9.243   0.415   0.507  0.00  0.00    -0.286 N 
ATOM     33  H   UNL     1       9.774   1.088   0.053  0.00  0.00    +0.155 HD
ENDBRANCH  23  32
BRANCH  26  34
ATOM     34  O   UNL     1       4.067  -0.611  -1.146  0.00  0.00    -0.493 OA
ATOM     35  C   UNL     1       3.805  -0.526  -2.548  0.00  0.00    +0.277 C 
ENDBRANCH  26  34
ENDBRANCH  20  27
ENDBRANCH   1  20
TORSDOF 5
