REMARK  Name = ZINC58615547
REMARK  5 active torsions:
REMARK  status: ('A' for Active; 'I' for Inactive)
REMARK    1  A    between atoms: C_1  and  C_2
REMARK    2  A    between atoms: N_4  and  C_9
REMARK    3  A    between atoms: C_6  and  C_8
REMARK    4  A    between atoms: C_9  and  C_10
REMARK    5  A    between atoms: C_9  and  C_11
REMARK                            x       y       z     vdW  Elec       q    Type
REMARK                         _______ _______ _______ _____ _____    ______ ____
ROOT
ATOM      1  C   UNL     1      -2.722  -2.552   0.075  0.00  0.00    +0.140 C 
ATOM      2  C   UNL     1      -3.356  -2.286   1.442  0.00  0.00    +0.034 C 
ENDROOT
BRANCH   1   6
ATOM      3  C   UNL     1      -0.012   1.548  -0.192  0.00  0.00    +0.039 C 
ATOM      4  C   UNL     1       0.021   0.019  -0.154  0.00  0.00    +0.130 C 
ATOM      5  C   UNL     1      -1.408  -0.522  -0.067  0.00  0.00    +0.116 C 
ATOM      6  N   UNL     1      -1.367  -1.987   0.046  0.00  0.00    -0.287 NA
ATOM      7  C   UNL     1      -0.600  -2.396   1.232  0.00  0.00    +0.116 C 
ATOM      8  C   UNL     1       0.822  -1.837   1.132  0.00  0.00    +0.130 C 
ATOM      9  O   UNL     1       0.760  -0.415   0.991  0.00  0.00    -0.371 OA
ATOM     10  C   UNL     1       1.601  -2.191   2.401  0.00  0.00    +0.039 C 
ENDBRANCH   1   6
BRANCH   1  11
ATOM     11  C   UNL     1      -2.653  -4.038  -0.165  0.00  0.00    +0.233 C 
ATOM     12  O   UNL     1      -1.631  -4.644   0.076  0.00  0.00    -0.274 OA
ATOM     13  N   UNL     1      -3.727  -4.693  -0.649  0.00  0.00    -0.300 N 
ATOM     14  C   UNL     1      -5.002  -3.992  -0.852  0.00  0.00    +0.108 C 
ATOM     15  C   UNL     1      -5.462  -4.214  -2.297  0.00  0.00    +0.019 C 
ATOM     16  C   UNL     1      -5.516  -5.715  -2.586  0.00  0.00    +0.003 C 
ATOM     17  C   UNL     1      -4.119  -6.319  -2.425  0.00  0.00    +0.019 C 
ATOM     18  C   UNL     1      -3.643  -6.120  -0.988  0.00  0.00    +0.108 C 
ENDBRANCH   1  11
TORSDOF 2
