REMARK  Name = ZINC08767667
REMARK  6 active torsions:
REMARK  status: ('A' for Active; 'I' for Inactive)
REMARK    1  A    between atoms: C_1  and  C_2
REMARK    2  A    between atoms: C_2  and  C_31
REMARK    3  A    between atoms: C_3  and  N_28
REMARK    4  A    between atoms: C_5  and  C_21
REMARK    5  A    between atoms: C_7  and  C_14
REMARK    6  A    between atoms: C_9  and  N_11
REMARK                            x       y       z     vdW  Elec       q    Type
REMARK                         _______ _______ _______ _____ _____    ______ ____
ROOT
ATOM      1  C   UNL     1       0.083   6.392  -0.264  0.00  0.00    +0.015 C 
ATOM      2  C   UNL     1       1.470   6.079  -0.830  0.00  0.00    +0.017 C 
ATOM      3  C   UNL     1       2.257   5.240   0.180  0.00  0.00    +0.168 C 
ATOM      4  C   UNL     1       1.535   3.909   0.404  0.00  0.00    -0.010 C 
ATOM      5  C   UNL     1       0.628   3.957  -1.843  0.00  0.00    -0.010 C 
ATOM      6  C   UNL     1       1.324   5.289  -2.134  0.00  0.00    +0.168 C 
ATOM      7  C   UNL     1       2.217   7.385  -1.103  0.00  0.00    +0.015 C 
ATOM      8  N   UNL     1       1.426   3.181  -0.875  0.00  0.00    +0.391 N 
ATOM      9  H   UNL     1       0.971   2.275  -0.710  0.00  0.00    -0.084 HD
ATOM     10  H   UNL     1       2.367   3.027  -1.257  0.00  0.00    -0.084 HD
ENDROOT
BRANCH   5  11
ATOM     11  C   UNL     1       0.500   3.168  -3.120  0.00  0.00    -0.059 A 
ATOM     12  C   UNL     1      -0.403   3.564  -4.089  0.00  0.00    +0.003 A 
ATOM     13  C   UNL     1      -0.521   2.840  -5.261  0.00  0.00    +0.015 A 
ATOM     14  C   UNL     1       0.265   1.720  -5.464  0.00  0.00    +0.018 A 
ATOM     15  C   UNL     1       1.169   1.325  -4.495  0.00  0.00    +0.015 A 
ATOM     16  C   UNL     1       1.286   2.049  -3.323  0.00  0.00    +0.003 A 
ATOM     17 BR   UNL     1       0.104   0.730  -7.067  0.00  0.00    -0.050 Br
ENDBRANCH   5  11
BRANCH   4  18
ATOM     18  C   UNL     1       2.318   3.072   1.383  0.00  0.00    -0.059 A 
ATOM     19  C   UNL     1       3.175   2.090   0.921  0.00  0.00    +0.003 A 
ATOM     20  C   UNL     1       3.897   1.325   1.818  0.00  0.00    +0.015 A 
ATOM     21  C   UNL     1       3.753   1.535   3.178  0.00  0.00    +0.018 A 
ATOM     22  C   UNL     1       2.890   2.513   3.639  0.00  0.00    +0.015 A 
ATOM     23  C   UNL     1       2.173   3.281   2.741  0.00  0.00    +0.003 A 
ATOM     24 BR   UNL     1       4.734   0.484   4.406  0.00  0.00    -0.050 Br
ENDBRANCH   4  18
BRANCH   6  25
ATOM     25  N   UNL     1       2.649   5.035  -2.703  0.00  0.00    +0.025 N 
ATOM     26  O   UNL     1       2.977   3.900  -2.999  0.00  0.00    -0.131 OA
ATOM     27  O   UNL     1       3.424   5.959  -2.879  0.00  0.00    -0.131 OA
ENDBRANCH   6  25
BRANCH   3  28
ATOM     28  N   UNL     1       3.603   4.984  -0.339  0.00  0.00    +0.025 N 
ATOM     29  O   UNL     1       3.876   3.897  -0.815  0.00  0.00    -0.131 OA
ATOM     30  O   UNL     1       4.449   5.860  -0.295  0.00  0.00    -0.131 OA
ENDBRANCH   3  28
TORSDOF 4
