REMARK  Name = ZINC59238565
REMARK  11 active torsions:
REMARK  status: ('A' for Active; 'I' for Inactive)
REMARK    1  A    between atoms: C_1  and  C_2
REMARK    2  A    between atoms: C_3  and  C_24
REMARK    3  A    between atoms: C_4  and  C_10
REMARK    4  A    between atoms: C_13  and  O_16
REMARK    5  A    between atoms: O_16  and  C_17
REMARK    6  A    between atoms: C_17  and  C_18
REMARK    7  A    between atoms: N_26  and  C_27
REMARK    8  A    between atoms: C_29  and  O_35
REMARK    9  A    between atoms: C_32  and  O_33
REMARK   10  A    between atoms: O_33  and  C_34
REMARK   11  A    between atoms: O_35  and  C_36
REMARK                            x       y       z     vdW  Elec       q    Type
REMARK                         _______ _______ _______ _____ _____    ______ ____
ROOT
ATOM      1  C   UNL     1      -0.042   1.792   0.382  0.00  0.00    +0.061 C 
ATOM      2  C   UNL     1       0.059   0.309   0.132  0.00  0.00    +0.017 C 
ATOM      3  C   UNL     1      -1.067  -0.412  -0.048  0.00  0.00    +0.056 C 
ATOM      4  C   UNL     1      -0.920  -1.900  -0.297  0.00  0.00    +0.139 C 
ATOM      5  N   UNL     1       0.450  -2.440  -0.321  0.00  0.00    -0.315 N 
ATOM      6  C   UNL     1       1.477  -1.591  -0.123  0.00  0.00    +0.135 C 
ATOM      7  S   UNL     1       3.075  -2.204  -0.148  0.00  0.00    -0.019 S 
ATOM      8  N   UNL     1       1.290  -0.282   0.087  0.00  0.00    -0.300 N 
ATOM      9  H   UNL     1       0.608  -3.384  -0.474  0.00  0.00    +0.149 HD
ATOM     10  H   UNL     1       2.071   0.278   0.219  0.00  0.00    +0.154 HD
ENDROOT
BRANCH   4  11
ATOM     11  C   UNL     1      -1.687  -2.628   0.777  0.00  0.00    -0.022 A 
ATOM     12  C   UNL     1      -1.174  -2.708   2.058  0.00  0.00    +0.009 A 
ATOM     13  C   UNL     1      -1.875  -3.376   3.044  0.00  0.00    +0.046 A 
ATOM     14  C   UNL     1      -3.095  -3.965   2.747  0.00  0.00    +0.121 A 
ATOM     15  C   UNL     1      -3.608  -3.883   1.461  0.00  0.00    +0.046 A 
ATOM     16  C   UNL     1      -2.906  -3.209   0.480  0.00  0.00    +0.009 A 
BRANCH  14  17
ATOM     17  O   UNL     1      -3.787  -4.623   3.715  0.00  0.00    -0.487 OA
BRANCH  17  18
ATOM     18  C   UNL     1      -5.036  -5.205   3.338  0.00  0.00    +0.264 C 
BRANCH  18  19
ATOM     19  C   UNL     1      -5.654  -5.886   4.532  0.00  0.00    -0.010 A 
ATOM     20  C   UNL     1      -5.371  -7.214   4.793  0.00  0.00    +0.007 A 
ATOM     21  C   UNL     1      -5.937  -7.839   5.888  0.00  0.00    +0.000 A 
ATOM     22  C   UNL     1      -6.786  -7.136   6.722  0.00  0.00    +0.000 A 
ATOM     23  C   UNL     1      -7.068  -5.808   6.462  0.00  0.00    +0.000 A 
ATOM     24  C   UNL     1      -6.498  -5.182   5.369  0.00  0.00    +0.007 A 
ENDBRANCH  18  19
ENDBRANCH  17  18
ENDBRANCH  14  17
ENDBRANCH   4  11
BRANCH   3  25
ATOM     25  C   UNL     1      -2.344   0.201  -0.007  0.00  0.00    +0.248 C 
ATOM     26  O   UNL     1      -2.914   0.490  -1.043  0.00  0.00    -0.270 OA
ATOM     27  N   UNL     1      -2.927   0.464   1.180  0.00  0.00    -0.279 N 
ATOM     28  H   UNL     1      -2.457   0.266   2.005  0.00  0.00    +0.155 HD
BRANCH  27  29
ATOM     29  C   UNL     1      -4.210   1.023   1.220  0.00  0.00    +0.079 A 
ATOM     30  C   UNL     1      -4.944   1.164   0.052  0.00  0.00    +0.072 A 
ATOM     31  C   UNL     1      -6.214   1.718   0.096  0.00  0.00    +0.122 A 
ATOM     32  C   UNL     1      -6.751   2.131   1.306  0.00  0.00    +0.049 A 
ATOM     33  C   UNL     1      -6.021   1.990   2.472  0.00  0.00    +0.051 A 
ATOM     34  C   UNL     1      -4.754   1.433   2.435  0.00  0.00    +0.141 A 
BRANCH  34  35
ATOM     35  O   UNL     1      -4.039   1.290   3.584  0.00  0.00    -0.493 OA
ATOM     36  C   UNL     1      -4.660   1.732   4.793  0.00  0.00    +0.277 C 
ENDBRANCH  34  35
BRANCH  31  37
ATOM     37  O   UNL     1      -6.934   1.858  -1.050  0.00  0.00    -0.495 OA
ATOM     38  C   UNL     1      -8.235   2.436  -0.931  0.00  0.00    +0.277 C 
ENDBRANCH  31  37
ENDBRANCH  27  29
ENDBRANCH   3  25
TORSDOF 8
