REMARK  Name = ZINC35172428
REMARK  7 active torsions:
REMARK  status: ('A' for Active; 'I' for Inactive)
REMARK    1  A    between atoms: C_1  and  C_2
REMARK    2  A    between atoms: C_9  and  C_11
REMARK    3  A    between atoms: C_11  and  S_12
REMARK    4  A    between atoms: S_12  and  C_13
REMARK    5  A    between atoms: C_16  and  C_26
REMARK    6  A    between atoms: N_17  and  C_18
REMARK    7  A    between atoms: C_26  and  C_27
REMARK                            x       y       z     vdW  Elec       q    Type
REMARK                         _______ _______ _______ _____ _____    ______ ____
ROOT
ATOM      1  C   UNL     1       0.409  -6.912  -2.858  0.00  0.00    +0.197 A 
ATOM      2  N   UNL     1       0.932  -7.614  -1.880  0.00  0.00    -0.122 NA
ATOM      3  N   UNL     1       0.860  -8.867  -2.154  0.00  0.00    -0.133 NA
ATOM      4  C   UNL     1       0.292  -9.041  -3.313  0.00  0.00    +0.143 A 
ATOM      5  N   UNL     1      -0.022  -7.801  -3.803  0.00  0.00    -0.274 N 
ENDROOT
BRANCH   5   6
ATOM      6  C   UNL     1      -0.652  -7.506  -5.021  0.00  0.00    +0.052 A 
ATOM      7  C   UNL     1      -1.978  -7.864  -5.223  0.00  0.00    +0.028 A 
ATOM      8  C   UNL     1      -2.596  -7.573  -6.423  0.00  0.00    +0.023 A 
ATOM      9  C   UNL     1      -1.896  -6.923  -7.424  0.00  0.00    +0.059 A 
ATOM     10  C   UNL     1      -0.573  -6.564  -7.226  0.00  0.00    +0.061 A 
ATOM     11  C   UNL     1       0.048  -6.849  -6.024  0.00  0.00    +0.047 A 
ATOM     12 CL   UNL     1       0.303  -5.750  -8.484  0.00  0.00    -0.082 Cl
ATOM     13 CL   UNL     1      -2.676  -6.559  -8.932  0.00  0.00    -0.082 Cl
ENDBRANCH   5   6
BRANCH   1  14
ATOM     14  S   UNL     1       0.281  -5.156  -2.936  0.00  0.00    -0.076 S 
BRANCH  14  15
ATOM     15  C   UNL     1       1.034  -4.592  -1.385  0.00  0.00    +0.173 C 
BRANCH  15  23
ATOM     16  C   UNL     1       0.949   0.944   1.351  0.00  0.00    -0.012 C 
ATOM     17  C   UNL     1       0.870  -0.575   1.185  0.00  0.00    -0.057 C 
ATOM     18  C   UNL     1       1.462  -0.972  -0.172  0.00  0.00    +0.092 C 
ATOM     19  N   UNL     1       1.495  -2.441  -0.254  0.00  0.00    -0.304 N 
ATOM     20  C   UNL     1       2.096  -3.184   0.864  0.00  0.00    +0.089 C 
ATOM     21  C   UNL     1       1.474  -2.683   2.171  0.00  0.00    -0.063 C 
ATOM     22  N   UNL     1       1.630  -1.225   2.259  0.00  0.00    +0.383 N 
ATOM     23  C   UNL     1       0.989  -3.087  -1.323  0.00  0.00    +0.226 C 
ATOM     24  O   UNL     1       0.497  -2.457  -2.235  0.00  0.00    -0.275 OA
ATOM     25  H   UNL     1       2.607  -0.987   2.170  0.00  0.00    -0.085 HD
ATOM     26  H   UNL     1       1.289  -0.905   3.153  0.00  0.00    -0.085 HD
ENDBRANCH  15  23
ENDBRANCH  14  15
ENDBRANCH   1  14
BRANCH   4  27
ATOM     27  C   UNL     1       0.024 -10.362  -3.987  0.00  0.00    +0.111 C 
BRANCH  27  28
ATOM     28  C   UNL     1       1.251 -10.796  -4.748  0.00  0.00    -0.040 A 
ATOM     29  C   UNL     1       1.368 -10.505  -6.094  0.00  0.00    +0.004 A 
ATOM     30  C   UNL     1       2.493 -10.903  -6.792  0.00  0.00    +0.000 A 
ATOM     31  C   UNL     1       3.501 -11.591  -6.143  0.00  0.00    +0.000 A 
ATOM     32  C   UNL     1       3.384 -11.882  -4.797  0.00  0.00    +0.000 A 
ATOM     33  C   UNL     1       2.261 -11.480  -4.098  0.00  0.00    +0.004 A 
ENDBRANCH  27  28
ENDBRANCH   4  27
TORSDOF 6
