REMARK  Name = ZINC30732593
REMARK  8 active torsions:
REMARK  status: ('A' for Active; 'I' for Inactive)
REMARK    1  A    between atoms: C_3  and  C_8
REMARK    2  A    between atoms: C_5  and  O_7
REMARK    3  A    between atoms: N_9  and  N_10
REMARK    4  A    between atoms: C_11  and  C_13
REMARK    5  A    between atoms: C_13  and  S_14
REMARK    6  A    between atoms: S_14  and  C_15
REMARK    7  A    between atoms: C_18  and  C_27
REMARK    8  A    between atoms: N_19  and  C_20
REMARK                            x       y       z     vdW  Elec       q    Type
REMARK                         _______ _______ _______ _____ _____    ______ ____
ROOT
ATOM      1  C   UNL     1      -0.210   1.420  -1.719  0.00  0.00    +0.197 A 
ATOM      2  N   UNL     1      -0.298   0.215  -2.236  0.00  0.00    -0.122 NA
ATOM      3  N   UNL     1       0.847  -0.158  -2.685  0.00  0.00    -0.128 NA
ATOM      4  C   UNL     1       1.738   0.785  -2.483  0.00  0.00    +0.169 A 
ATOM      5  N   UNL     1       1.089   1.827  -1.857  0.00  0.00    -0.270 N 
ENDROOT
BRANCH   5   6
ATOM      6  C   UNL     1       1.643   3.048  -1.448  0.00  0.00    +0.051 A 
ATOM      7  C   UNL     1       2.136   3.938  -2.392  0.00  0.00    +0.028 A 
ATOM      8  C   UNL     1       2.676   5.143  -1.987  0.00  0.00    +0.022 A 
ATOM      9  C   UNL     1       2.737   5.458  -0.641  0.00  0.00    +0.041 A 
ATOM     10  C   UNL     1       2.251   4.570   0.302  0.00  0.00    +0.022 A 
ATOM     11  C   UNL     1       1.704   3.366  -0.098  0.00  0.00    +0.028 A 
ATOM     12 CL   UNL     1       3.424   6.970  -0.134  0.00  0.00    -0.084 Cl
ENDBRANCH   5   6
BRANCH   4  13
ATOM     13  C   UNL     1       3.167   0.738  -2.856  0.00  0.00    +0.020 A 
ATOM     14  C   UNL     1       4.063   1.664  -2.318  0.00  0.00    +0.013 A 
ATOM     15  C   UNL     1       5.396   1.612  -2.666  0.00  0.00    +0.021 A 
ATOM     16  C   UNL     1       5.846   0.651  -3.556  0.00  0.00    +0.041 A 
ATOM     17  C   UNL     1       4.961  -0.267  -4.097  0.00  0.00    +0.021 A 
ATOM     18  C   UNL     1       3.626  -0.229  -3.752  0.00  0.00    +0.013 A 
ATOM     19 CL   UNL     1       7.524   0.597  -3.995  0.00  0.00    -0.084 Cl
ENDBRANCH   4  13
BRANCH   1  20
ATOM     20  S   UNL     1      -1.523   2.342  -0.990  0.00  0.00    -0.076 S 
BRANCH  20  21
ATOM     21  C   UNL     1      -2.882   1.164  -1.187  0.00  0.00    +0.174 C 
BRANCH  21  23
ATOM     22  N   UNL     1      -5.295   1.052  -0.654  0.00  0.00    -0.206 N 
ATOM     23  C   UNL     1      -4.146   1.756  -0.618  0.00  0.00    +0.242 C 
ATOM     24  O   UNL     1      -4.129   2.865  -0.127  0.00  0.00    -0.273 OA
ATOM     25  H   UNL     1      -5.311   0.046  -1.099  0.00  0.00    +0.177 HD
BRANCH  22  27
ATOM     26  C   UNL     1      -7.548   0.883  -0.051  0.00  0.00    +0.138 C 
ATOM     27  N   UNL     1      -6.470   1.602  -0.125  0.00  0.00    -0.188 NA
BRANCH  26  30
ATOM     28  C   UNL     1      -6.136  -2.591   0.131  0.00  0.00    +0.004 A 
ATOM     29  C   UNL     1      -6.219  -1.214   0.135  0.00  0.00    +0.010 A 
ATOM     30  C   UNL     1      -7.453  -0.589  -0.060  0.00  0.00    -0.002 A 
ATOM     31  C   UNL     1      -8.596  -1.364  -0.267  0.00  0.00    +0.054 A 
ATOM     32  C   UNL     1      -8.500  -2.744  -0.274  0.00  0.00    +0.117 A 
ATOM     33  C   UNL     1      -7.269  -3.356  -0.075  0.00  0.00    +0.045 A 
BRANCH  32  34
ATOM     34  O   UNL     1      -9.610  -3.502  -0.476  0.00  0.00    -0.507 OA
ATOM     35  H   UNL     1      -9.534  -4.599  -0.481  0.00  0.00    +0.292 HD
ENDBRANCH  32  34
ENDBRANCH  26  30
ENDBRANCH  22  27
ENDBRANCH  21  23
ENDBRANCH  20  21
ENDBRANCH   1  20
TORSDOF 8
