REMARK  Name = ZINC65479478
REMARK  11 active torsions:
REMARK  status: ('A' for Active; 'I' for Inactive)
REMARK    1  A    between atoms: C_1  and  C_2
REMARK    2  A    between atoms: N_7  and  C_8
REMARK    3  A    between atoms: C_8  and  C_9
REMARK    4  A    between atoms: C_9  and  C_10
REMARK    5  A    between atoms: C_10  and  N_11
REMARK    6  A    between atoms: N_14  and  C_15
REMARK    7  A    between atoms: C_15  and  C_16
REMARK    8  A    between atoms: C_15  and  C_17
REMARK    9  A    between atoms: C_20  and  S_23
REMARK   10  A    between atoms: S_23  and  N_26
REMARK   11  A    between atoms: N_26  and  C_27
REMARK                            x       y       z     vdW  Elec       q    Type
REMARK                         _______ _______ _______ _____ _____    ______ ____
ROOT
ATOM      1  N   UNL     1       0.989  -0.176   6.067  0.00  0.00    -0.299 N 
ATOM      2  C   UNL     1       0.587   0.209   7.295  0.00  0.00    +0.300 C 
ATOM      3  O   UNL     1      -0.421   0.877   7.421  0.00  0.00    -0.253 OA
ATOM      4  N   UNL     1       1.301  -0.145   8.381  0.00  0.00    -0.293 N 
ATOM      5  H   UNL     1       1.793  -0.710   5.966  0.00  0.00    +0.150 HD
ATOM      6  H   UNL     1       2.106  -0.678   8.280  0.00  0.00    +0.151 HD
ENDROOT
BRANCH   4   7
ATOM      7  C   UNL     1       0.864   0.274   9.714  0.00  0.00    +0.102 C 
ATOM      8  C   UNL     1       1.393   1.680  10.006  0.00  0.00    +0.033 C 
BRANCH   7   9
ATOM      9  C   UNL     1       1.398  -0.688  10.744  0.00  0.00    -0.027 A 
ATOM     10  C   UNL     1       2.685  -1.180  10.628  0.00  0.00    +0.007 A 
ATOM     11  C   UNL     1       3.175  -2.062  11.573  0.00  0.00    +0.029 A 
ATOM     12  C   UNL     1       2.379  -2.452  12.633  0.00  0.00    +0.105 A 
ATOM     13  C   UNL     1       1.092  -1.959  12.750  0.00  0.00    +0.029 A 
ATOM     14  C   UNL     1       0.604  -1.073  11.808  0.00  0.00    +0.007 A 
BRANCH  12  15
ATOM     15  S   UNL     1       3.003  -3.578  13.837  0.00  0.00    +0.058 S 
ATOM     16  O   UNL     1       1.875  -4.207  14.429  0.00  0.00    -0.153 OA
ATOM     17  O   UNL     1       4.041  -4.314  13.204  0.00  0.00    -0.153 OA
BRANCH  15  18
ATOM     18  N   UNL     1       3.720  -2.675  15.026  0.00  0.00    -0.193 NA
ATOM     19  C   UNL     1       2.910  -1.778  15.853  0.00  0.00    +0.127 C 
ATOM     20  H   UNL     1       4.676  -2.741  15.174  0.00  0.00    +0.148 HD
ENDBRANCH  15  18
ENDBRANCH  12  15
ENDBRANCH   7   9
ENDBRANCH   4   7
BRANCH   1  21
ATOM     21  C   UNL     1       0.212   0.209   4.887  0.00  0.00    +0.104 C 
BRANCH  21  22
ATOM     22  C   UNL     1       0.881  -0.353   3.631  0.00  0.00    +0.000 C 
BRANCH  22  23
ATOM     23  C   UNL     1       0.070   0.050   2.397  0.00  0.00    -0.077 C 
BRANCH  23  30
ATOM     24  C   UNL     1      -0.019   1.526   0.010  0.00  0.00    -0.013 C 
ATOM     25  C   UNL     1       0.002  -0.004   0.002  0.00  0.00    -0.072 C 
ATOM     26  C   UNL     1       0.715  -0.497  -1.259  0.00  0.00    -0.016 C 
ATOM     27  C   UNL     1       0.733  -2.028  -1.263  0.00  0.00    -0.003 C 
ATOM     28  C   UNL     1       1.410  -2.524   0.018  0.00  0.00    -0.019 C 
ATOM     29  C   UNL     1       0.671  -1.956   1.232  0.00  0.00    -0.078 C 
ATOM     30  N   UNL     1       0.712  -0.490   1.191  0.00  0.00    +0.381 N 
ATOM     31  H   UNL     1       1.672  -0.182   1.158  0.00  0.00    -0.081 HD
ENDBRANCH  23  30
ENDBRANCH  22  23
ENDBRANCH  21  22
ENDBRANCH   1  21
TORSDOF 8
