REMARK  Name = ZINC29153687
REMARK  12 active torsions:
REMARK  status: ('A' for Active; 'I' for Inactive)
REMARK    1  A    between atoms: C_1  and  C_2
REMARK    2  A    between atoms: C_4  and  C_27
REMARK    3  A    between atoms: C_6  and  O_8
REMARK    4  A    between atoms: O_8  and  C_9
REMARK    5  A    between atoms: C_9  and  C_10
REMARK    6  A    between atoms: C_10  and  N_11
REMARK    7  A    between atoms: N_11  and  C_12
REMARK    8  A    between atoms: N_11  and  C_13
REMARK    9  A    between atoms: C_13  and  C_15
REMARK   10  A    between atoms: C_13  and  C_16
REMARK   11  A    between atoms: N_18  and  C_19
REMARK   12  A    between atoms: C_20  and  C_24
REMARK                            x       y       z     vdW  Elec       q    Type
REMARK                         _______ _______ _______ _____ _____    ______ ____
ROOT
ATOM      1  C   UNL     1       1.348  -4.594   5.949  0.00  0.00    +0.016 C 
ATOM      2  C   UNL     1       2.688  -5.166   5.481  0.00  0.00    -0.004 C 
ENDROOT
BRANCH   1   3
ATOM      3  C   UNL     1       0.273  -5.638   5.789  0.00  0.00    +0.204 C 
ATOM      4  O   UNL     1      -0.378  -5.687   4.766  0.00  0.00    -0.277 OA
ATOM      5  N   UNL     1       0.034  -6.517   6.782  0.00  0.00    -0.281 N 
ATOM      6  H   UNL     1       0.554  -6.478   7.599  0.00  0.00    +0.155 HD
BRANCH   5   7
ATOM      7  C   UNL     1      -0.955  -7.478   6.634  0.00  0.00    +0.084 A 
ATOM      8  C   UNL     1      -1.340  -8.452   7.544  0.00  0.00    +0.065 A 
ATOM      9  C   UNL     1      -2.409  -9.333   7.133  0.00  0.00    +0.022 A 
ATOM     10  C   UNL     1      -2.915  -9.110   5.906  0.00  0.00    +0.048 A 
ATOM     11  S   UNL     1      -1.966  -7.724   5.318  0.00  0.00    -0.081 S 
BRANCH   8  12
ATOM     12  C   UNL     1      -0.696  -8.580   8.855  0.00  0.00    +0.244 C 
ATOM     13  O   UNL     1       0.202  -7.821   9.169  0.00  0.00    -0.270 OA
ATOM     14  N   UNL     1      -1.098  -9.540   9.712  0.00  0.00    -0.325 N 
ATOM     15  H   UNL     1      -1.813 -10.145   9.462  0.00  0.00    +0.145 HD
ATOM     16  H   UNL     1      -0.671  -9.625  10.579  0.00  0.00    +0.145 HD
ENDBRANCH   8  12
ENDBRANCH   5   7
ENDBRANCH   1   3
BRANCH   1  17
ATOM     17  N   UNL     1       1.010  -3.415   5.140  0.00  0.00    +0.387 N 
ATOM     18  C   UNL     1       2.108  -2.442   5.210  0.00  0.00    -0.095 C 
ATOM     19  H   UNL     1       0.868  -3.694   4.181  0.00  0.00    -0.081 HD
BRANCH  17  20
ATOM     20  C   UNL     1      -0.221  -2.802   5.659  0.00  0.00    -0.037 C 
BRANCH  20  21
ATOM     21  C   UNL     1      -0.652  -1.663   4.733  0.00  0.00    +0.210 C 
BRANCH  21  22
ATOM     22  O   UNL     1      -1.005  -2.197   3.455  0.00  0.00    -0.494 OA
BRANCH  22  28
ATOM     23  C   UNL     1      -1.958   2.412   2.161  0.00  0.00    +0.044 C 
ATOM     24  C   UNL     1      -1.892   0.941   1.840  0.00  0.00    -0.047 A 
ATOM     25  C   UNL     1      -2.248   0.491   0.582  0.00  0.00    +0.007 A 
ATOM     26  C   UNL     1      -2.188  -0.858   0.285  0.00  0.00    -0.047 A 
ATOM     27  C   UNL     1      -1.772  -1.760   1.245  0.00  0.00    +0.049 A 
ATOM     28  C   UNL     1      -1.415  -1.311   2.508  0.00  0.00    +0.121 A 
ATOM     29  C   UNL     1      -1.470   0.043   2.802  0.00  0.00    +0.049 A 
ATOM     30  C   UNL     1      -2.576  -1.345  -1.087  0.00  0.00    +0.044 C 
ENDBRANCH  22  28
ENDBRANCH  21  22
ENDBRANCH  20  21
ENDBRANCH  17  20
ENDBRANCH   1  17
TORSDOF 8
