REMARK  Name = ZINC20292161
REMARK  8 active torsions:
REMARK  status: ('A' for Active; 'I' for Inactive)
REMARK    1  A    between atoms: C_4  and  N_28
REMARK    2  A    between atoms: C_5  and  N_7
REMARK    3  A    between atoms: C_8  and  C_10
REMARK    4  A    between atoms: C_10  and  S_11
REMARK    5  A    between atoms: S_11  and  C_12
REMARK    6  A    between atoms: N_16  and  N_17
REMARK    7  A    between atoms: N_18  and  N_19
REMARK    8  A    between atoms: C_20  and  C_21
REMARK                            x       y       z     vdW  Elec       q    Type
REMARK                         _______ _______ _______ _____ _____    ______ ____
ROOT
ATOM      1  C   UNL     1      -1.531  -6.542   0.034  0.00  0.00    +0.210 A 
ATOM      2  N   UNL     1      -0.416  -7.210   0.209  0.00  0.00    -0.119 NA
ATOM      3  N   UNL     1      -0.734  -8.573   0.274  0.00  0.00    -0.109 NA
ATOM      4  C   UNL     1      -2.032  -8.693   0.137  0.00  0.00    +0.254 A 
ATOM      5  N   UNL     1      -2.559  -7.440  -0.009  0.00  0.00    -0.211 N 
ATOM      6  N   UNL     1      -2.747  -9.882   0.144  0.00  0.00    -0.204 N 
ATOM      7  H   UNL     1      -3.711  -9.870   0.035  0.00  0.00    +0.177 HD
ENDROOT
BRANCH   5   8
ATOM      8  N   UNL     1      -3.882  -7.139  -0.172  0.00  0.00    -0.294 N 
ATOM      9  H   UNL     1      -4.133  -7.128  -1.149  0.00  0.00    +0.163 HD
ATOM     10  H   UNL     1      -4.465  -7.780   0.345  0.00  0.00    +0.163 HD
ENDBRANCH   5   8
BRANCH   6  11
ATOM     11  N   UNL     1      -2.077 -11.101   0.310  0.00  0.00    -0.188 NA
ATOM     12  C   UNL     1      -2.745 -12.214   0.318  0.00  0.00    +0.138 C 
BRANCH  12  13
ATOM     13  C   UNL     1      -2.040 -13.497   0.492  0.00  0.00    -0.004 A 
ATOM     14  C   UNL     1      -0.652 -13.519   0.656  0.00  0.00    +0.009 A 
ATOM     15  C   UNL     1       0.001 -14.722   0.819  0.00  0.00    +0.002 A 
ATOM     16  C   UNL     1      -0.713 -15.907   0.820  0.00  0.00    +0.015 A 
ATOM     17  C   UNL     1      -2.088 -15.894   0.659  0.00  0.00    +0.018 A 
ATOM     18  C   UNL     1      -2.756 -14.696   0.500  0.00  0.00    +0.024 A 
ATOM     19 BR   UNL     1      -3.054 -17.520   0.662  0.00  0.00    -0.050 Br
ENDBRANCH  12  13
ENDBRANCH   6  11
BRANCH   1  20
ATOM     20  S   UNL     1      -1.677  -4.792  -0.112  0.00  0.00    -0.075 S 
BRANCH  20  21
ATOM     21  C   UNL     1       0.030  -4.196   0.026  0.00  0.00    +0.173 C 
BRANCH  21  23
ATOM     22  N   UNL     1       1.217  -2.026  -0.008  0.00  0.00    -0.283 N 
ATOM     23  C   UNL     1       0.048  -2.693  -0.084  0.00  0.00    +0.228 C 
ATOM     24  O   UNL     1      -0.989  -2.084  -0.239  0.00  0.00    -0.275 OA
ATOM     25  H   UNL     1       2.053  -2.515   0.039  0.00  0.00    +0.155 HD
BRANCH  22  30
ATOM     26  C   UNL     1       0.212   1.452   0.639  0.00  0.00    +0.002 A 
ATOM     27  C   UNL     1       1.238   2.140   0.017  0.00  0.00    +0.002 A 
ATOM     28  C   UNL     1       2.256   1.449  -0.613  0.00  0.00    +0.034 A 
ATOM     29  C   UNL     1       2.252   0.068  -0.623  0.00  0.00    +0.147 A 
ATOM     30  C   UNL     1       1.224  -0.626   0.001  0.00  0.00    +0.064 A 
ATOM     31  C   UNL     1       0.203   0.071   0.633  0.00  0.00    +0.025 A 
BRANCH  29  32
ATOM     32  N   UNL     1       3.342  -0.671  -1.299  0.00  0.00    +0.058 N 
ATOM     33  O   UNL     1       4.188  -0.068  -1.918  0.00  0.00    -0.126 OA
ATOM     34  O   UNL     1       3.387  -1.877  -1.231  0.00  0.00    -0.126 OA
ENDBRANCH  29  32
ENDBRANCH  22  30
ENDBRANCH  21  23
ENDBRANCH  20  21
ENDBRANCH   1  20
TORSDOF 8
