REMARK  Name = ZINC67584543
REMARK  10 active torsions:
REMARK  status: ('A' for Active; 'I' for Inactive)
REMARK    1  A    between atoms: C_1  and  C_2
REMARK    2  A    between atoms: C_2  and  C_3
REMARK    3  A    between atoms: C_3  and  C_4
REMARK    4  A    between atoms: N_6  and  C_7
REMARK    5  A    between atoms: C_11  and  N_14
REMARK    6  A    between atoms: C_12  and  C_13
REMARK    7  A    between atoms: N_17  and  C_18
REMARK    8  A    between atoms: C_18  and  C_19
REMARK    9  A    between atoms: C_19  and  C_21
REMARK   10  A    between atoms: C_19  and  N_26
REMARK                            x       y       z     vdW  Elec       q    Type
REMARK                         _______ _______ _______ _____ _____    ______ ____
ROOT
ATOM      1  N   UNL     1       3.054  -6.716  -4.039  0.00  0.00    -0.269 N 
ATOM      2  C   UNL     1       2.995  -8.061  -4.109  0.00  0.00    +0.304 C 
ATOM      3  O   UNL     1       2.413  -8.690  -3.246  0.00  0.00    -0.253 OA
ATOM      4  N   UNL     1       3.582  -8.708  -5.135  0.00  0.00    -0.300 N 
ATOM      5  H   UNL     1       3.571  -6.219  -4.691  0.00  0.00    +0.156 HD
ATOM      6  H   UNL     1       4.046  -8.207  -5.824  0.00  0.00    +0.150 HD
ENDROOT
BRANCH   1  11
ATOM      7  C   UNL     1       1.130  -4.124  -2.270  0.00  0.00    +0.038 A 
ATOM      8  C   UNL     1       1.012  -4.701  -1.012  0.00  0.00    +0.024 A 
ATOM      9  C   UNL     1       1.569  -5.941  -0.764  0.00  0.00    +0.004 A 
ATOM     10  C   UNL     1       2.246  -6.610  -1.765  0.00  0.00    +0.024 A 
ATOM     11  C   UNL     1       2.368  -6.038  -3.025  0.00  0.00    +0.039 A 
ATOM     12  C   UNL     1       1.804  -4.796  -3.279  0.00  0.00    -0.008 A 
ATOM     13  C   UNL     1       1.928  -4.176  -4.647  0.00  0.00    +0.047 C 
BRANCH   7  16
ATOM     14  C   UNL     1      -0.471  -2.435  -1.775  0.00  0.00    +0.217 C 
ATOM     15  O   UNL     1      -0.976  -3.170  -0.953  0.00  0.00    -0.275 OA
ATOM     16  N   UNL     1       0.565  -2.869  -2.520  0.00  0.00    -0.285 N 
ATOM     17  H   UNL     1       0.918  -2.310  -3.230  0.00  0.00    +0.155 HD
BRANCH  14  18
ATOM     18  C   UNL     1      -1.001  -1.037  -1.962  0.00  0.00    +0.096 C 
BRANCH  18  20
ATOM     19  C   UNL     1      -2.706   0.619  -1.191  0.00  0.00    +0.004 C 
ATOM     20  C   UNL     1      -2.168  -0.800  -1.001  0.00  0.00    +0.006 C 
ENDBRANCH  18  20
ENDBRANCH  14  18
ENDBRANCH   7  16
ENDBRANCH   1  11
BRANCH   4  21
ATOM     21  C   UNL     1       3.518 -10.170  -5.212  0.00  0.00    +0.098 C 
BRANCH  21  22
ATOM     22  C   UNL     1       4.361 -10.656  -6.392  0.00  0.00    +0.016 C 
BRANCH  22  23
ATOM     23  N   UNL     1       4.187 -12.106  -6.554  0.00  0.00    +0.387 N 
ATOM     24  C   UNL     1       2.805 -12.408  -7.007  0.00  0.00    -0.078 C 
ATOM     25  C   UNL     1       2.943 -13.809  -7.654  0.00  0.00    -0.020 C 
ATOM     26  C   UNL     1       4.321 -13.735  -8.350  0.00  0.00    -0.020 C 
ATOM     27  C   UNL     1       5.080 -12.611  -7.620  0.00  0.00    -0.078 C 
ATOM     28  H   UNL     1       4.380 -12.579  -5.684  0.00  0.00    -0.081 HD
ENDBRANCH  22  23
BRANCH  22  29
ATOM     29  C   UNL     1       5.814 -10.351  -6.132  0.00  0.00    +0.093 A 
ATOM     30  C   UNL     1       6.501  -9.310  -6.635  0.00  0.00    +0.043 A 
ATOM     31  C   UNL     1       7.820  -9.410  -6.135  0.00  0.00    +0.041 A 
ATOM     32  C   UNL     1       7.859 -10.506  -5.357  0.00  0.00    +0.195 A 
ATOM     33  O   UNL     1       6.640 -11.069  -5.354  0.00  0.00    -0.469 OA
ENDBRANCH  22  29
ENDBRANCH  21  22
ENDBRANCH   4  21
TORSDOF 8
