REMARK  Name = ZINC39674655
REMARK  11 active torsions:
REMARK  status: ('A' for Active; 'I' for Inactive)
REMARK    1  A    between atoms: C_1  and  C_2
REMARK    2  A    between atoms: C_4  and  C_14
REMARK    3  A    between atoms: C_7  and  C_12
REMARK    4  A    between atoms: C_14  and  C_15
REMARK    5  A    between atoms: C_15  and  N_16
REMARK    6  A    between atoms: C_17  and  C_19
REMARK    7  A    between atoms: C_30  and  C_32
REMARK    8  A    between atoms: C_35  and  O_40
REMARK    9  A    between atoms: C_36  and  O_38
REMARK   10  A    between atoms: O_38  and  C_39
REMARK   11  A    between atoms: O_40  and  C_41
REMARK                            x       y       z     vdW  Elec       q    Type
REMARK                         _______ _______ _______ _____ _____    ______ ____
ROOT
ATOM      1  C   UNL     1       1.006  -0.783  -7.933  0.00  0.00    +0.100 C 
ATOM      2  C   UNL     1       1.155   0.754  -7.936  0.00  0.00    +0.121 C 
ATOM      3  N   UNL     1       2.524   0.997  -8.447  0.00  0.00    -0.296 N 
ATOM      4  C   UNL     1       2.701  -0.009  -9.521  0.00  0.00    +0.115 C 
ATOM      5  C   UNL     1       2.019  -1.280  -8.977  0.00  0.00    -0.004 C 
ATOM      6  C   UNL     1       1.300  -2.017 -10.103  0.00  0.00    -0.010 C 
ATOM      7  C   UNL     1       2.333  -2.552 -11.098  0.00  0.00    -0.082 C 
ATOM      8  N   UNL     1       3.259  -3.458 -10.407  0.00  0.00    +0.379 N 
ATOM      9  C   UNL     1       4.014  -2.719  -9.388  0.00  0.00    -0.082 C 
ATOM     10  C   UNL     1       3.052  -2.191  -8.320  0.00  0.00    -0.010 C 
ATOM     11  C   UNL     1       3.410   1.923  -8.029  0.00  0.00    +0.247 C 
ATOM     12  O   UNL     1       3.165   2.599  -7.048  0.00  0.00    -0.270 OA
ATOM     13  H   UNL     1       2.735  -4.199  -9.965  0.00  0.00    -0.086 HD
ATOM     14  H   UNL     1       3.900  -3.856 -11.076  0.00  0.00    -0.086 HD
ENDROOT
BRANCH  11  15
ATOM     15  C   UNL     1       4.676   2.118  -8.762  0.00  0.00    +0.041 A 
ATOM     16  C   UNL     1       4.787   1.698 -10.090  0.00  0.00    +0.017 A 
ATOM     17  C   UNL     1       5.970   1.881 -10.773  0.00  0.00    +0.050 A 
ATOM     18  C   UNL     1       7.053   2.481 -10.145  0.00  0.00    +0.162 A 
ATOM     19  C   UNL     1       6.948   2.901  -8.820  0.00  0.00    +0.162 A 
ATOM     20  C   UNL     1       5.764   2.727  -8.132  0.00  0.00    +0.062 A 
BRANCH  19  21
ATOM     21  O   UNL     1       8.011   3.488  -8.207  0.00  0.00    -0.491 OA
ATOM     22  C   UNL     1       7.834   3.895  -6.849  0.00  0.00    +0.277 C 
ENDBRANCH  19  21
BRANCH  18  23
ATOM     23  O   UNL     1       8.216   2.658 -10.823  0.00  0.00    -0.491 OA
ATOM     24  C   UNL     1       8.254   2.204 -12.177  0.00  0.00    +0.277 C 
ENDBRANCH  18  23
ENDBRANCH  11  15
BRANCH   1  26
ATOM     25  N   UNL     1       0.840  -2.533  -6.192  0.00  0.00    -0.315 N 
ATOM     26  C   UNL     1       1.338  -1.340  -6.572  0.00  0.00    +0.218 C 
ATOM     27  O   UNL     1       2.055  -0.715  -5.820  0.00  0.00    -0.275 OA
ATOM     28  H   UNL     1       0.267  -3.033  -6.794  0.00  0.00    +0.149 HD
BRANCH  25  29
ATOM     29  C   UNL     1       1.163  -3.074  -4.870  0.00  0.00    +0.108 C 
BRANCH  29  30
ATOM     30  C   UNL     1       0.475  -4.429  -4.691  0.00  0.00    +0.052 C 
BRANCH  30  33
ATOM     31  C   UNL     1      -1.188  -6.316  -2.648  0.00  0.00    +0.035 C 
ATOM     32  C   UNL     1       0.338  -6.299  -2.746  0.00  0.00    +0.103 C 
ATOM     33  C   UNL     1       0.808  -4.986  -3.331  0.00  0.00    -0.037 C 
ATOM     34  C   UNL     1       1.589  -4.410  -2.382  0.00  0.00    +0.000 A 
ATOM     35  C   UNL     1       2.301  -3.182  -2.358  0.00  0.00    +0.028 A 
ATOM     36  C   UNL     1       3.032  -2.829  -1.248  0.00  0.00    +0.052 A 
ATOM     37  C   UNL     1       3.097  -3.696  -0.077  0.00  0.00    +0.021 A 
ATOM     38  C   UNL     1       2.440  -4.875  -0.042  0.00  0.00    +0.027 A 
ATOM     39  C   UNL     1       1.646  -5.299  -1.200  0.00  0.00    +0.043 A 
ATOM     40  N   UNL     1       0.932  -6.380  -1.408  0.00  0.00    -0.378 N 
ATOM     41  H   UNL     1       0.815  -7.111  -0.781  0.00  0.00    +0.160 HD
BRANCH  36  42
ATOM     42  C   UNL     1       3.744  -1.587  -1.242  0.00  0.00    +0.099 C 
ATOM     43  N   UNL     1       4.309  -0.601  -1.237  0.00  0.00    -0.191 NA
ENDBRANCH  36  42
ENDBRANCH  30  33
ENDBRANCH  29  30
ENDBRANCH  25  29
ENDBRANCH   1  26
TORSDOF 8
