REMARK  Name = ZINC39544874
REMARK  8 active torsions:
REMARK  status: ('A' for Active; 'I' for Inactive)
REMARK    1  A    between atoms: C_1  and  C_2
REMARK    2  A    between atoms: C_2  and  C_3
REMARK    3  A    between atoms: C_2  and  C_4
REMARK    4  A    between atoms: C_4  and  N_5
REMARK    5  A    between atoms: N_5  and  O_24
REMARK    6  A    between atoms: C_6  and  C_8
REMARK    7  A    between atoms: C_11  and  S_22
REMARK    8  A    between atoms: S_22  and  C_23
REMARK                            x       y       z     vdW  Elec       q    Type
REMARK                         _______ _______ _______ _____ _____    ______ ____
ROOT
ATOM      1  C   UNL     1       4.514  -0.116  -0.347  0.00  0.00    +0.151 C 
ATOM      2  C   UNL     1       5.134  -0.218  -1.754  0.00  0.00    +0.075 C 
ATOM      3  C   UNL     1       6.376  -1.056  -1.550  0.00  0.00    +0.022 C 
ATOM      4  C   UNL     1       6.481  -1.378  -0.280  0.00  0.00    +0.084 C 
ATOM      5  N   UNL     1       7.490  -2.188   0.298  0.00  0.00    -0.303 N 
ATOM      6  C   UNL     1       7.052  -3.023   1.338  0.00  0.00    +0.037 A 
ATOM      7  C   UNL     1       7.928  -3.939   1.902  0.00  0.00    +0.023 A 
ATOM      8  C   UNL     1       7.500  -4.754   2.932  0.00  0.00    +0.002 A 
ATOM      9  C   UNL     1       6.201  -4.652   3.395  0.00  0.00    +0.000 A 
ATOM     10  C   UNL     1       5.327  -3.744   2.830  0.00  0.00    +0.007 A 
ATOM     11  C   UNL     1       5.744  -2.925   1.793  0.00  0.00    -0.010 A 
ATOM     12  C   UNL     1       4.760  -1.964   1.182  0.00  0.00    +0.124 C 
ATOM     13  N   UNL     1       5.449  -0.854   0.517  0.00  0.00    -0.369 NA
ATOM     14  H   UNL     1       8.413  -2.166  -0.002  0.00  0.00    +0.153 HD
ATOM     15  H   UNL     1       5.836  -0.230   1.209  0.00  0.00    +0.129 HD
ENDROOT
BRANCH   1  17
ATOM     16  N   UNL     1       2.117  -0.130   0.265  0.00  0.00    -0.182 N 
ATOM     17  C   UNL     1       3.152  -0.762  -0.323  0.00  0.00    +0.257 C 
ATOM     18  O   UNL     1       2.988  -1.850  -0.833  0.00  0.00    -0.272 OA
BRANCH  16  19
ATOM     19  O   UNL     1       2.331   1.085   0.959  0.00  0.00    -0.292 OA
ATOM     20  H   UNL     1       3.236   1.421   0.895  0.00  0.00    +0.242 HD
ENDBRANCH  16  19
BRANCH  16  21
ATOM     21  C   UNL     1       0.770  -0.701   0.185  0.00  0.00    +0.142 C 
BRANCH  21  23
ATOM     22  C   UNL     1       0.818  -1.419   2.577  0.00  0.00    +0.009 C 
ATOM     23  C   UNL     1       0.666  -1.898   1.132  0.00  0.00    +0.003 C 
ATOM     24  C   UNL     1      -0.698  -2.569   0.958  0.00  0.00    +0.009 C 
ENDBRANCH  21  23
ENDBRANCH  16  21
ENDBRANCH   1  17
BRANCH   3  25
ATOM     25  S   UNL     1       7.507  -1.527  -2.817  0.00  0.00    -0.130 S 
ATOM     26  C   UNL     1       6.533  -2.618  -3.890  0.00  0.00    +0.089 C 
ENDBRANCH   3  25
TORSDOF 5
