REMARK  Name = ZINC34747575
REMARK  8 active torsions:
REMARK  status: ('A' for Active; 'I' for Inactive)
REMARK    1  A    between atoms: C_1  and  C_2
REMARK    2  A    between atoms: C_5  and  N_8
REMARK    3  A    between atoms: C_9  and  C_11
REMARK    4  A    between atoms: C_11  and  N_12
REMARK    5  A    between atoms: N_31  and  C_32
REMARK    6  A    between atoms: C_32  and  C_33
REMARK    7  A    between atoms: C_33  and  C_34
REMARK    8  A    between atoms: C_33  and  C_35
REMARK                            x       y       z     vdW  Elec       q    Type
REMARK                         _______ _______ _______ _____ _____    ______ ____
ROOT
ATOM      1  N   UNL     1       1.246  -7.021   2.166  0.00  0.00    +0.387 N 
ATOM      2  C   UNL     1       2.461  -6.578   2.862  0.00  0.00    -0.059 C 
ATOM      3  C   UNL     1       2.319  -6.854   4.362  0.00  0.00    +0.089 C 
ATOM      4  N   UNL     1       1.999  -8.279   4.546  0.00  0.00    -0.304 N 
ATOM      5  C   UNL     1       0.893  -8.848   3.760  0.00  0.00    +0.089 C 
ATOM      6  C   UNL     1       1.103  -8.478   2.288  0.00  0.00    -0.059 C 
ATOM      7  C   UNL     1       2.712  -9.054   5.426  0.00  0.00    +0.202 A 
ATOM      8  N   UNL     1       3.149 -10.236   5.042  0.00  0.00    -0.208 NA
ATOM      9  C   UNL     1       3.842 -11.007   5.873  0.00  0.00    +0.117 A 
ATOM     10  C   UNL     1       4.142 -10.610   7.186  0.00  0.00    +0.076 A 
ATOM     11  C   UNL     1       4.912 -11.566   7.984  0.00  0.00    -0.023 A 
ATOM     12  C   UNL     1       5.256 -12.724   7.385  0.00  0.00    -0.004 A 
ATOM     13  S   UNL     1       4.586 -12.614   5.748  0.00  0.00    -0.073 S 
ATOM     14  C   UNL     1       6.037 -13.857   7.980  0.00  0.00    +0.043 C 
ATOM     15  C   UNL     1       6.714 -13.356   9.264  0.00  0.00    +0.005 C 
ATOM     16  C   UNL     1       5.677 -12.606  10.106  0.00  0.00    +0.005 C 
ATOM     17  C   UNL     1       5.316 -11.284   9.428  0.00  0.00    +0.037 C 
ATOM     18  C   UNL     1       3.654  -9.322   7.574  0.00  0.00    +0.264 A 
ATOM     19  O   UNL     1       3.866  -8.892   8.695  0.00  0.00    -0.267 OA
ATOM     20  N   UNL     1       2.963  -8.588   6.682  0.00  0.00    -0.280 N 
ATOM     21  H   UNL     1       0.442  -6.570   2.577  0.00  0.00    -0.081 HD
ENDROOT
BRANCH   1  22
ATOM     22  C   UNL     1       1.337  -6.657   0.746  0.00  0.00    +0.019 C 
BRANCH  22  24
ATOM     23  N   UNL     1       1.440  -4.589  -0.607  0.00  0.00    -0.287 N 
ATOM     24  C   UNL     1       1.360  -5.156   0.613  0.00  0.00    +0.201 C 
ATOM     25  O   UNL     1       1.306  -4.459   1.603  0.00  0.00    -0.278 OA
ATOM     26  H   UNL     1       1.416  -5.144  -1.403  0.00  0.00    +0.155 HD
BRANCH  23  31
ATOM     27  C   UNL     1       1.922   1.043  -1.090  0.00  0.00    +0.044 C 
ATOM     28  C   UNL     1       1.794  -0.453  -0.962  0.00  0.00    -0.050 A 
ATOM     29  C   UNL     1       1.024  -0.996   0.050  0.00  0.00    +0.005 A 
ATOM     30  C   UNL     1       0.905  -2.366   0.171  0.00  0.00    +0.023 A 
ATOM     31  C   UNL     1       1.559  -3.200  -0.727  0.00  0.00    +0.033 A 
ATOM     32  C   UNL     1       2.331  -2.652  -1.743  0.00  0.00    +0.023 A 
ATOM     33  C   UNL     1       2.442  -1.281  -1.861  0.00  0.00    +0.005 A 
ENDBRANCH  23  31
ENDBRANCH  22  24
ENDBRANCH   1  22
BRANCH  20  34
ATOM     34  C   UNL     1       2.466  -7.266   7.071  0.00  0.00    +0.131 C 
BRANCH  34  35
ATOM     35  C   UNL     1       1.132  -7.419   7.806  0.00  0.00    +0.003 C 
ATOM     36  C   UNL     1       0.672  -6.052   8.317  0.00  0.00    +0.009 C 
ATOM     37  C   UNL     1       0.083  -7.984   6.846  0.00  0.00    +0.009 C 
ENDBRANCH  34  35
ENDBRANCH  20  34
TORSDOF 5
