REMARK  Name = ZINC63144696
REMARK  8 active torsions:
REMARK  status: ('A' for Active; 'I' for Inactive)
REMARK    1  A    between atoms: C_1  and  C_2
REMARK    2  A    between atoms: C_5  and  C_8
REMARK    3  A    between atoms: C_8  and  N_9
REMARK    4  A    between atoms: N_9  and  C_10
REMARK    5  A    between atoms: C_10  and  C_12
REMARK    6  A    between atoms: C_10  and  C_13
REMARK    7  A    between atoms: C_16  and  S_19
REMARK    8  A    between atoms: S_19  and  N_22
REMARK                            x       y       z     vdW  Elec       q    Type
REMARK                         _______ _______ _______ _____ _____    ______ ____
ROOT
ATOM      1  C   UNL     1      -2.175  -0.164   6.166  0.00  0.00    -0.044 C 
ATOM      2  C   UNL     1      -3.610  -0.693   6.177  0.00  0.00    -0.009 C 
ENDROOT
BRANCH   1   3
ATOM      3  C   UNL     1      -1.446  -0.663   7.387  0.00  0.00    -0.062 A 
ATOM      4  C   UNL     1      -0.930  -1.945   7.408  0.00  0.00    +0.004 A 
ATOM      5  C   UNL     1      -0.262  -2.403   8.528  0.00  0.00    +0.029 A 
ATOM      6  C   UNL     1      -0.108  -1.579   9.626  0.00  0.00    +0.105 A 
ATOM      7  C   UNL     1      -0.623  -0.296   9.605  0.00  0.00    +0.029 A 
ATOM      8  C   UNL     1      -1.288   0.164   8.484  0.00  0.00    +0.004 A 
BRANCH   6   9
ATOM      9  S   UNL     1       0.743  -2.163  11.054  0.00  0.00    +0.056 S 
ATOM     10  O   UNL     1       0.276  -1.388  12.150  0.00  0.00    -0.153 OA
ATOM     11  O   UNL     1       0.652  -3.580  11.030  0.00  0.00    -0.153 OA
BRANCH   9  12
ATOM     12  N   UNL     1       2.344  -1.788  10.857  0.00  0.00    -0.204 NA
ATOM     13  H   UNL     1       2.639  -1.327  10.056  0.00  0.00    +0.144 HD
ATOM     14  H   UNL     1       2.986  -2.028  11.543  0.00  0.00    +0.144 HD
ENDBRANCH   9  12
ENDBRANCH   6   9
ENDBRANCH   1   3
BRANCH   1  15
ATOM     15  N   UNL     1      -1.487  -0.637   4.957  0.00  0.00    +0.384 N 
ATOM     16  H   UNL     1      -1.545  -1.643   4.910  0.00  0.00    -0.085 HD
ATOM     17  H   UNL     1      -0.518  -0.357   4.990  0.00  0.00    -0.085 HD
BRANCH  15  18
ATOM     18  C   UNL     1      -2.126  -0.054   3.770  0.00  0.00    -0.078 C 
BRANCH  18  23
ATOM     19  C   UNL     1      -0.019   1.526   0.010  0.00  0.00    +0.007 C 
ATOM     20  C   UNL     1       0.002  -0.004   0.002  0.00  0.00    -0.014 C 
ATOM     21  C   UNL     1      -1.433  -0.534   0.013  0.00  0.00    +0.003 C 
ATOM     22  C   UNL     1      -2.149  -0.040   1.272  0.00  0.00    +0.002 C 
ATOM     23  C   UNL     1      -1.409  -0.547   2.511  0.00  0.00    -0.028 C 
ATOM     24  C   UNL     1       0.026  -0.018   2.500  0.00  0.00    +0.002 C 
ATOM     25  C   UNL     1       0.742  -0.511   1.242  0.00  0.00    +0.003 C 
ENDBRANCH  18  23
ENDBRANCH  15  18
ENDBRANCH   1  15
TORSDOF 6
