REMARK  Name = ZINC64131265
REMARK  12 active torsions:
REMARK  status: ('A' for Active; 'I' for Inactive)
REMARK    1  A    between atoms: C_1  and  C_2
REMARK    2  A    between atoms: C_2  and  C_3
REMARK    3  A    between atoms: C_2  and  C_4
REMARK    4  A    between atoms: C_2  and  O_5
REMARK    5  A    between atoms: O_5  and  C_6
REMARK    6  A    between atoms: N_8  and  C_9
REMARK    7  A    between atoms: C_9  and  C_11
REMARK    8  A    between atoms: C_9  and  C_18
REMARK    9  A    between atoms: C_11  and  C_12
REMARK   10  A    between atoms: N_20  and  N_21
REMARK   11  A    between atoms: C_22  and  C_24
REMARK   12  A    between atoms: C_24  and  C_25
REMARK                            x       y       z     vdW  Elec       q    Type
REMARK                         _______ _______ _______ _____ _____    ______ ____
ROOT
ATOM      1  C   UNL     1       4.382  -0.091  -4.068  0.00  0.00    +0.250 C 
ATOM      2  O   UNL     1       3.547  -0.419  -4.884  0.00  0.00    -0.272 OA
ATOM      3  N   UNL     1       5.620   0.255  -4.472  0.00  0.00    -0.233 N 
ATOM      4  H   UNL     1       6.288   0.516  -3.819  0.00  0.00    +0.173 HD
ENDROOT
BRANCH   3   5
ATOM      5  N   UNL     1       5.943   0.236  -5.835  0.00  0.00    -0.234 N 
ATOM      6  C   UNL     1       7.182   0.582  -6.239  0.00  0.00    +0.233 C 
ATOM      7  O   UNL     1       8.017   0.909  -5.422  0.00  0.00    -0.274 OA
ATOM      8  H   UNL     1       5.276  -0.026  -6.488  0.00  0.00    +0.173 HD
BRANCH   6   9
ATOM      9  C   UNL     1       7.529   0.562  -7.705  0.00  0.00    +0.130 C 
BRANCH   9  10
ATOM     10  C   UNL     1       8.963   0.987  -7.888  0.00  0.00    -0.033 C 
ATOM     11  C   UNL     1      10.043   0.180  -7.996  0.00  0.00    -0.001 A 
ATOM     12  C   UNL     1      10.200  -1.279  -7.976  0.00  0.00    +0.010 A 
ATOM     13  C   UNL     1      11.438  -1.807  -8.110  0.00  0.00    +0.001 A 
ATOM     14  C   UNL     1      12.572  -0.998  -8.266  0.00  0.00    +0.002 A 
ATOM     15  C   UNL     1      12.508   0.350  -8.294  0.00  0.00    +0.026 A 
ATOM     16  C   UNL     1      11.256   1.013  -8.163  0.00  0.00    +0.043 A 
ATOM     17  N   UNL     1      10.938   2.284  -8.158  0.00  0.00    -0.380 N 
ATOM     18  C   UNL     1       9.485   2.403  -7.993  0.00  0.00    +0.145 C 
ATOM     19  H   UNL     1      11.560   3.023  -8.252  0.00  0.00    +0.160 HD
ENDBRANCH   9  10
ENDBRANCH   6   9
ENDBRANCH   3   5
BRANCH   1  20
ATOM     20  C   UNL     1       4.035  -0.071  -2.601  0.00  0.00    +0.168 C 
BRANCH  20  23
ATOM     21  C   UNL     1       1.952  -0.085  -1.337  0.00  0.00    +0.401 C 
ATOM     22  O   UNL     1       2.488   0.619  -0.503  0.00  0.00    -0.226 OA
ATOM     23  N   UNL     1       2.641  -0.485  -2.424  0.00  0.00    -0.269 N 
ATOM     24  H   UNL     1       2.213  -1.047  -3.089  0.00  0.00    +0.153 HD
BRANCH  21  25
ATOM     25  O   UNL     1       0.671  -0.465  -1.174  0.00  0.00    -0.445 OA
BRANCH  25  27
ATOM     26  C   UNL     1      -0.019   1.526   0.010  0.00  0.00    +0.055 C 
ATOM     27  C   UNL     1       0.002  -0.004   0.002  0.00  0.00    +0.107 C 
ATOM     28  C   UNL     1       0.742  -0.511   1.242  0.00  0.00    +0.055 C 
ATOM     29  C   UNL     1      -1.433  -0.534   0.013  0.00  0.00    +0.055 C 
ENDBRANCH  25  27
ENDBRANCH  21  25
ENDBRANCH  20  23
BRANCH  20  30
ATOM     30  C   UNL     1       4.953  -1.035  -1.847  0.00  0.00    +0.067 C 
BRANCH  30  31
ATOM     31  C   UNL     1       4.689  -0.925  -0.367  0.00  0.00    -0.045 A 
ATOM     32  C   UNL     1       5.396  -0.013   0.395  0.00  0.00    +0.004 A 
ATOM     33  C   UNL     1       5.154   0.088   1.752  0.00  0.00    +0.000 A 
ATOM     34  C   UNL     1       4.206  -0.722   2.348  0.00  0.00    +0.000 A 
ATOM     35  C   UNL     1       3.499  -1.633   1.586  0.00  0.00    +0.000 A 
ATOM     36  C   UNL     1       3.737  -1.732   0.228  0.00  0.00    +0.004 A 
ENDBRANCH  30  31
ENDBRANCH  20  30
ENDBRANCH   1  20
TORSDOF 9
