REMARK  Name = ZINC67588630
REMARK  4 active torsions:
REMARK  status: ('A' for Active; 'I' for Inactive)
REMARK    1  A    between atoms: C_10  and  C_11
REMARK    2  A    between atoms: N_19  and  C_21
REMARK    3  A    between atoms: C_21  and  C_22
REMARK    4  A    between atoms: C_27  and  N_28
REMARK                            x       y       z     vdW  Elec       q    Type
REMARK                         _______ _______ _______ _____ _____    ______ ____
ROOT
ATOM      1  C   UNL     1       5.002   0.173  -0.391  0.00  0.00    +0.098 A 
ATOM      2  C   UNL     1       6.242  -0.405  -0.086  0.00  0.00    +0.015 A 
ATOM      3  C   UNL     1       7.098   0.593   0.250  0.00  0.00    +0.042 A 
ATOM      4  N   UNL     1       6.436   1.758   0.160  0.00  0.00    -0.281 N 
ATOM      5  H   UNL     1       6.803   2.637   0.342  0.00  0.00    +0.189 HD
ATOM      6  N   UNL     1       5.122   1.480  -0.247  0.00  0.00    -0.173 NA
ATOM      7  C   UNL     1       8.534   0.350   0.645  0.00  0.00    +0.070 C 
ATOM      8  C   UNL     1       8.685  -1.141   0.975  0.00  0.00    +0.091 C 
ATOM      9  N   UNL     1       8.101  -1.948  -0.105  0.00  0.00    -0.293 NA
ATOM     10  C   UNL     1       6.631  -1.862  -0.107  0.00  0.00    +0.124 C 
ENDROOT
BRANCH   1  20
ATOM     11  C   UNL     1       1.548   0.697  -4.123  0.00  0.00    +0.001 A 
ATOM     12  C   UNL     1       2.696   1.394  -3.751  0.00  0.00    +0.001 A 
ATOM     13  C   UNL     1       3.434   1.003  -2.675  0.00  0.00    +0.009 A 
ATOM     14  C   UNL     1       3.037  -0.116  -1.929  0.00  0.00    -0.009 A 
ATOM     15  C   UNL     1       1.871  -0.826  -2.307  0.00  0.00    -0.017 A 
ATOM     16  C   UNL     1       1.133  -0.394  -3.423  0.00  0.00    +0.008 A 
ATOM     17  C   UNL     1       1.471  -1.948  -1.561  0.00  0.00    +0.008 A 
ATOM     18  C   UNL     1       2.203  -2.346  -0.483  0.00  0.00    +0.001 A 
ATOM     19  C   UNL     1       3.350  -1.661  -0.099  0.00  0.00    +0.011 A 
ATOM     20  C   UNL     1       3.779  -0.551  -0.806  0.00  0.00    +0.010 A 
ENDBRANCH   1  20
BRANCH   9  21
ATOM     21  C   UNL     1       8.547  -3.345  -0.019  0.00  0.00    +0.123 C 
BRANCH  21  22
ATOM     22  C   UNL     1       9.969  -3.450  -0.508  0.00  0.00    +0.004 A 
ATOM     23  C   UNL     1      11.007  -3.626   0.389  0.00  0.00    +0.009 A 
ATOM     24  C   UNL     1      12.301  -3.717  -0.105  0.00  0.00    +0.018 A 
ATOM     25  C   UNL     1      12.513  -3.630  -1.467  0.00  0.00    +0.084 A 
ATOM     26  N   UNL     1      11.503  -3.461  -2.299  0.00  0.00    -0.350 N 
ATOM     27  C   UNL     1      10.254  -3.376  -1.867  0.00  0.00    +0.098 A 
ATOM     28  H   UNL     1      11.680  -3.402  -3.251  0.00  0.00    +0.166 HD
BRANCH  27  29
ATOM     29  N   UNL     1       9.220  -3.204  -2.780  0.00  0.00    -0.344 N 
ATOM     30  H   UNL     1       8.304  -3.136  -2.468  0.00  0.00    +0.144 HD
ATOM     31  H   UNL     1       9.414  -3.152  -3.729  0.00  0.00    +0.144 HD
ENDBRANCH  27  29
ENDBRANCH  21  22
ENDBRANCH   9  21
TORSDOF 4
