REMARK  Name = ZINC14541362
REMARK  11 active torsions:
REMARK  status: ('A' for Active; 'I' for Inactive)
REMARK    1  A    between atoms: C_1  and  N_2
REMARK    2  A    between atoms: N_2  and  C_3
REMARK    3  A    between atoms: C_4  and  C_6
REMARK    4  A    between atoms: N_9  and  C_11
REMARK    5  A    between atoms: C_11  and  C_12
REMARK    6  A    between atoms: C_20  and  N_70
REMARK    7  A    between atoms: C_23  and  C_24
REMARK    8  A    between atoms: C_23  and  N_70
REMARK    9  A    between atoms: C_24  and  C_25
REMARK   10  A    between atoms: C_28  and  S_31
REMARK   11  A    between atoms: S_31  and  N_34
REMARK                            x       y       z     vdW  Elec       q    Type
REMARK                         _______ _______ _______ _____ _____    ______ ____
ROOT
ATOM      1  C   UNL     1       2.561   0.570   3.284  0.00  0.00    +0.151 A 
ATOM      2  C   UNL     1       2.763  -0.636   2.591  0.00  0.00    +0.004 A 
ATOM      3  C   UNL     1       2.046  -0.531   1.445  0.00  0.00    +0.043 A 
ATOM      4  N   UNL     1       1.448   0.672   1.458  0.00  0.00    -0.267 N 
ATOM      5  N   UNL     1       1.760   1.308   2.534  0.00  0.00    -0.166 NA
ATOM      6  C   UNL     1       1.981  -1.609   0.393  0.00  0.00    +0.054 C 
ATOM      7  C   UNL     1       3.139  -2.586   0.631  0.00  0.00    -0.009 C 
ATOM      8  C   UNL     1       3.155  -3.017   2.100  0.00  0.00    -0.067 C 
ATOM      9  C   UNL     1       3.586  -1.833   2.977  0.00  0.00    +0.023 C 
ENDROOT
BRANCH   1  13
ATOM     10  C   UNL     1       3.556   2.568   6.358  0.00  0.00    +0.132 C 
ATOM     11  N   UNL     1       2.935   2.179   5.090  0.00  0.00    -0.302 N 
ATOM     12  C   UNL     1       2.096   3.133   4.361  0.00  0.00    +0.132 C 
ATOM     13  C   UNL     1       3.136   0.942   4.592  0.00  0.00    +0.267 C 
ATOM     14  O   UNL     1       3.790   0.133   5.221  0.00  0.00    -0.268 OA
ENDBRANCH   1  13
BRANCH   8  15
ATOM     15  N   UNL     1       4.113  -4.125   2.278  0.00  0.00    +0.381 N 
ATOM     16  H   UNL     1       4.442  -4.135   3.250  0.00  0.00    -0.086 HD
ATOM     17  H   UNL     1       4.911  -3.986   1.648  0.00  0.00    -0.086 HD
BRANCH  15  18
ATOM     18  C   UNL     1       3.467  -5.414   1.969  0.00  0.00    -0.078 C 
BRANCH  18  19
ATOM     19  C   UNL     1       4.482  -6.542   2.161  0.00  0.00    +0.016 C 
BRANCH  19  20
ATOM     20  C   UNL     1       3.830  -7.864   1.847  0.00  0.00    -0.049 A 
ATOM     21  C   UNL     1       3.201  -8.580   2.849  0.00  0.00    +0.005 A 
ATOM     22  C   UNL     1       2.599  -9.790   2.560  0.00  0.00    +0.029 A 
ATOM     23  C   UNL     1       2.635 -10.290   1.271  0.00  0.00    +0.105 A 
ATOM     24  C   UNL     1       3.269  -9.577   0.271  0.00  0.00    +0.029 A 
ATOM     25  C   UNL     1       3.867  -8.364   0.559  0.00  0.00    +0.005 A 
BRANCH  23  26
ATOM     26  S   UNL     1       1.871 -11.835   0.904  0.00  0.00    +0.056 S 
ATOM     27  O   UNL     1       0.875 -12.042   1.896  0.00  0.00    -0.153 OA
ATOM     28  O   UNL     1       1.571 -11.819  -0.485  0.00  0.00    -0.153 OA
BRANCH  26  29
ATOM     29  N   UNL     1       3.015 -13.011   1.128  0.00  0.00    -0.204 NA
ATOM     30  H   UNL     1       3.910 -12.770   1.413  0.00  0.00    +0.144 HD
ATOM     31  H   UNL     1       2.789 -13.942   0.975  0.00  0.00    +0.144 HD
ENDBRANCH  26  29
ENDBRANCH  23  26
ENDBRANCH  19  20
ENDBRANCH  18  19
ENDBRANCH  15  18
ENDBRANCH   8  15
BRANCH   4  32
ATOM     32  C   UNL     1       0.573   1.187   0.402  0.00  0.00    +0.147 C 
BRANCH  32  33
ATOM     33  C   UNL     1      -0.874   0.790   0.700  0.00  0.00    +0.010 C 
ATOM     34  C   UNL     1      -1.339   1.482   1.983  0.00  0.00    +0.005 C 
ATOM     35  C   UNL     1      -2.786   1.086   2.280  0.00  0.00    +0.000 C 
ATOM     36  C   UNL     1      -3.682   1.515   1.117  0.00  0.00    +0.000 C 
ATOM     37  C   UNL     1      -3.218   0.823  -0.167  0.00  0.00    +0.000 C 
ATOM     38  C   UNL     1      -1.770   1.219  -0.464  0.00  0.00    +0.005 C 
ENDBRANCH  32  33
ENDBRANCH   4  32
TORSDOF 9
