REMARK  Name = ZINC03447849
REMARK  10 active torsions:
REMARK  status: ('A' for Active; 'I' for Inactive)
REMARK    1  A    between atoms: C_4  and  C_7
REMARK    2  A    between atoms: C_7  and  C_8
REMARK    3  A    between atoms: C_7  and  C_14
REMARK    4  A    between atoms: C_7  and  O_35
REMARK    5  A    between atoms: C_14  and  O_16
REMARK    6  A    between atoms: O_16  and  C_17
REMARK    7  A    between atoms: C_17  and  C_18
REMARK    8  A    between atoms: N_20  and  C_21
REMARK    9  A    between atoms: C_26  and  S_27
REMARK   10  A    between atoms: S_27  and  C_28
REMARK                            x       y       z     vdW  Elec       q    Type
REMARK                         _______ _______ _______ _____ _____    ______ ____
ROOT
ATOM      1  C   UNL     1       6.407   3.264   3.981  0.00  0.00    +0.328 C 
ENDROOT
BRANCH   1   2
ATOM      2  C   UNL     1       5.318   3.916   4.793  0.00  0.00    +0.255 C 
ATOM      3  O   UNL     1       4.220   4.088   4.307  0.00  0.00    -0.272 OA
ATOM      4  N   UNL     1       5.565   4.312   6.057  0.00  0.00    -0.282 N 
ATOM      5  H   UNL     1       6.416   4.104   6.473  0.00  0.00    +0.155 HD
BRANCH   4   6
ATOM      6  C   UNL     1       4.593   5.027   6.770  0.00  0.00    +0.047 A 
ATOM      7  C   UNL     1       3.477   5.525   6.116  0.00  0.00    +0.024 A 
ATOM      8  C   UNL     1       2.519   6.229   6.821  0.00  0.00    +0.002 A 
ATOM      9  C   UNL     1       2.670   6.439   8.180  0.00  0.00    +0.001 A 
ATOM     10  C   UNL     1       3.779   5.947   8.841  0.00  0.00    +0.017 A 
ATOM     11  C   UNL     1       4.743   5.234   8.142  0.00  0.00    +0.034 A 
BRANCH  11  12
ATOM     12  S   UNL     1       6.155   4.598   8.983  0.00  0.00    -0.088 S 
BRANCH  12  13
ATOM     13  C   UNL     1       5.999   5.234  10.618  0.00  0.00    +0.013 A 
ATOM     14  C   UNL     1       6.622   6.428  10.964  0.00  0.00    +0.016 A 
ATOM     15  C   UNL     1       6.493   6.926  12.245  0.00  0.00    +0.021 A 
ATOM     16  C   UNL     1       5.754   6.233  13.188  0.00  0.00    +0.041 A 
ATOM     17  C   UNL     1       5.138   5.041  12.848  0.00  0.00    +0.021 A 
ATOM     18  C   UNL     1       5.258   4.541  11.567  0.00  0.00    +0.016 A 
ATOM     19 CL   UNL     1       5.600   6.860  14.800  0.00  0.00    -0.084 Cl
ENDBRANCH  12  13
ENDBRANCH  11  12
ENDBRANCH   4   6
ENDBRANCH   1   2
BRANCH   1  20
ATOM     20  O   UNL     1       5.898   2.937   2.661  0.00  0.00    -0.453 OA
BRANCH  20  21
ATOM     21  C   UNL     1       6.750   2.347   1.808  0.00  0.00    +0.349 C 
ATOM     22  O   UNL     1       7.883   2.111   2.153  0.00  0.00    -0.247 OA
BRANCH  21  23
ATOM     23  C   UNL     1       6.292   1.978   0.421  0.00  0.00    +0.213 C 
BRANCH  23  27
ATOM     24  C   UNL     1       9.664   1.819  -2.197  0.00  0.00    +0.000 A 
ATOM     25  C   UNL     1       9.577   0.948  -1.127  0.00  0.00    +0.000 A 
ATOM     26  C   UNL     1       8.486   0.999  -0.280  0.00  0.00    +0.007 A 
ATOM     27  C   UNL     1       7.481   1.922  -0.503  0.00  0.00    -0.001 A 
ATOM     28  C   UNL     1       7.565   2.790  -1.575  0.00  0.00    +0.007 A 
ATOM     29  C   UNL     1       8.659   2.742  -2.420  0.00  0.00    +0.000 A 
ENDBRANCH  23  27
BRANCH  23  30
ATOM     30  C   UNL     1       5.619   0.630   0.455  0.00  0.00    -0.001 A 
ATOM     31  C   UNL     1       6.124  -0.374   1.260  0.00  0.00    +0.007 A 
ATOM     32  C   UNL     1       5.504  -1.609   1.296  0.00  0.00    +0.000 A 
ATOM     33  C   UNL     1       4.385  -1.843   0.519  0.00  0.00    +0.000 A 
ATOM     34  C   UNL     1       3.883  -0.841  -0.290  0.00  0.00    +0.000 A 
ATOM     35  C   UNL     1       4.500   0.396  -0.322  0.00  0.00    +0.007 A 
ENDBRANCH  23  30
BRANCH  23  36
ATOM     36  O   UNL     1       5.367   2.960  -0.052  0.00  0.00    -0.370 OA
ATOM     37  H   UNL     1       5.733   3.853  -0.101  0.00  0.00    +0.212 HD
ENDBRANCH  23  36
ENDBRANCH  21  23
ENDBRANCH  20  21
ENDBRANCH   1  20
TORSDOF 10
