REMARK  Name = ZINC22635746
REMARK  7 active torsions:
REMARK  status: ('A' for Active; 'I' for Inactive)
REMARK    1  A    between atoms: C_1  and  C_2
REMARK    2  A    between atoms: C_2  and  N_3
REMARK    3  A    between atoms: C_11  and  O_25
REMARK    4  A    between atoms: C_13  and  C_16
REMARK    5  A    between atoms: C_19  and  O_24
REMARK    6  A    between atoms: C_20  and  O_22
REMARK    7  A    between atoms: O_22  and  C_23
REMARK                            x       y       z     vdW  Elec       q    Type
REMARK                         _______ _______ _______ _____ _____    ______ ____
ROOT
ATOM      1  N   UNL     1      -5.234   0.810  -0.870  0.00  0.00    +0.383 N 
ATOM      2  C   UNL     1      -4.412  -0.161  -0.133  0.00  0.00    -0.074 C 
ATOM      3  C   UNL     1      -2.928   0.082  -0.420  0.00  0.00    +0.018 C 
ATOM      4  C   UNL     1      -2.629   1.555  -0.169  0.00  0.00    -0.027 A 
ATOM      5  C   UNL     1      -3.643   2.451  -0.115  0.00  0.00    -0.021 A 
ATOM      6  S   UNL     1      -2.857   4.010   0.193  0.00  0.00    -0.080 S 
ATOM      7  C   UNL     1      -1.231   3.480   0.250  0.00  0.00    +0.080 A 
ATOM      8  C   UNL     1      -1.298   2.099   0.019  0.00  0.00    +0.067 A 
ATOM      9  C   UNL     1      -0.016   1.349   0.009  0.00  0.00    +0.220 C 
ATOM     10  N   UNL     1       1.091   2.038   0.003  0.00  0.00    -0.223 NA
ATOM     11  C   UNL     1       1.166   3.490  -0.091  0.00  0.00    +0.224 C 
ATOM     12  N   UNL     1      -0.041   4.135   0.459  0.00  0.00    -0.313 N 
ATOM     13  C   UNL     1      -5.100   2.157  -0.285  0.00  0.00    -0.035 C 
ATOM     14  H   UNL     1       0.043   5.088   1.001  0.00  0.00    +0.149 HD
ATOM     15  H   UNL     1      -4.871   0.845  -1.907  0.00  0.00    -0.081 HD
ENDROOT
BRANCH  11  16
ATOM     16  C   UNL     1       1.316   3.882  -1.538  0.00  0.00    -0.002 A 
ATOM     17  C   UNL     1       0.805   5.087  -1.984  0.00  0.00    +0.011 A 
ATOM     18  C   UNL     1       0.945   5.454  -3.309  0.00  0.00    +0.049 A 
ATOM     19  C   UNL     1       1.590   4.608  -4.197  0.00  0.00    +0.158 A 
ATOM     20  C   UNL     1       2.100   3.393  -3.750  0.00  0.00    +0.162 A 
ATOM     21  C   UNL     1       1.961   3.034  -2.419  0.00  0.00    +0.056 A 
BRANCH  20  22
ATOM     22  O   UNL     1       2.734   2.560  -4.618  0.00  0.00    -0.491 OA
ATOM     23  C   UNL     1       3.233   1.329  -4.089  0.00  0.00    +0.277 C 
ENDBRANCH  20  22
BRANCH  19  24
ATOM     24  O   UNL     1       1.724   4.965  -5.503  0.00  0.00    -0.503 OA
ATOM     25  H   UNL     1       2.236   4.292  -6.207  0.00  0.00    +0.292 HD
ENDBRANCH  19  24
ENDBRANCH  11  16
BRANCH   1  27
ATOM     26  C   UNL     1      -7.158   0.218   0.525  0.00  0.00    -0.017 C 
ATOM     27  C   UNL     1      -6.641   0.389  -0.904  0.00  0.00    -0.082 C 
ENDBRANCH   1  27
BRANCH   9  28
ATOM     28  O   UNL     1       0.002  -0.004   0.002  0.00  0.00    -0.492 OA
ATOM     29  H   UNL     1       0.962  -0.541  -0.005  0.00  0.00    +0.294 HD
ENDBRANCH   9  28
TORSDOF 5
