REMARK  Name = ZINC43035151
REMARK  11 active torsions:
REMARK  status: ('A' for Active; 'I' for Inactive)
REMARK    1  A    between atoms: C_1  and  O_2
REMARK    2  A    between atoms: O_2  and  C_3
REMARK    3  A    between atoms: C_3  and  C_4
REMARK    4  A    between atoms: N_6  and  C_7
REMARK    5  A    between atoms: C_11  and  C_13
REMARK    6  A    between atoms: C_13  and  N_14
REMARK    7  A    between atoms: N_17  and  C_18
REMARK    8  A    between atoms: C_18  and  C_19
REMARK    9  A    between atoms: C_19  and  C_20
REMARK   10  A    between atoms: C_20  and  N_21
REMARK   11  A    between atoms: N_21  and  C_22
REMARK                            x       y       z     vdW  Elec       q    Type
REMARK                         _______ _______ _______ _____ _____    ______ ____
ROOT
ATOM      1  N   UNL     1       1.109  -7.521  -4.921  0.00  0.00    -0.295 N 
ATOM      2  C   UNL     1       1.443  -8.293  -5.974  0.00  0.00    +0.300 C 
ATOM      3  O   UNL     1       2.544  -8.807  -6.025  0.00  0.00    -0.253 OA
ATOM      4  N   UNL     1       0.557  -8.496  -6.969  0.00  0.00    -0.299 N 
ATOM      5  H   UNL     1       0.231  -7.111  -4.880  0.00  0.00    +0.151 HD
ATOM      6  H   UNL     1      -0.321  -8.086  -6.928  0.00  0.00    +0.150 HD
ENDROOT
BRANCH   1   7
ATOM      7  C   UNL     1       2.072  -7.300  -3.840  0.00  0.00    +0.141 C 
BRANCH   7  12
ATOM      8  C   UNL     1       1.029  -4.214  -1.922  0.00  0.00    +0.034 A 
ATOM      9  C   UNL     1       0.322  -4.774  -0.866  0.00  0.00    +0.023 A 
ATOM     10  C   UNL     1       0.185  -6.145  -0.778  0.00  0.00    +0.002 A 
ATOM     11  C   UNL     1       0.751  -6.961  -1.741  0.00  0.00    +0.005 A 
ATOM     12  C   UNL     1       1.456  -6.407  -2.793  0.00  0.00    -0.029 A 
ATOM     13  C   UNL     1       1.591  -5.036  -2.890  0.00  0.00    +0.028 A 
BRANCH   8  16
ATOM     14  C   UNL     1       1.174  -2.226  -3.221  0.00  0.00    +0.243 C 
ATOM     15  O   UNL     1       1.139  -2.897  -4.231  0.00  0.00    -0.273 OA
ATOM     16  N   UNL     1       1.170  -2.825  -2.014  0.00  0.00    -0.284 N 
ATOM     17  H   UNL     1       1.265  -2.293  -1.208  0.00  0.00    +0.155 HD
BRANCH  14  18
ATOM     18  C   UNL     1       1.220  -0.723  -3.316  0.00  0.00    +0.255 C 
BRANCH  18  20
ATOM     19  C   UNL     1       1.258   1.082  -4.893  0.00  0.00    +0.194 C 
ATOM     20  O   UNL     1       1.215  -0.332  -4.691  0.00  0.00    -0.374 OA
ENDBRANCH  18  20
ENDBRANCH  14  18
ENDBRANCH   8  16
ENDBRANCH   7  12
ENDBRANCH   1   7
BRANCH   4  21
ATOM     21  C   UNL     1       0.920  -9.336  -8.113  0.00  0.00    +0.104 C 
BRANCH  21  22
ATOM     22  C   UNL     1      -0.255  -9.402  -9.091  0.00  0.00    -0.000 C 
BRANCH  22  23
ATOM     23  C   UNL     1       0.125 -10.280 -10.285  0.00  0.00    -0.081 C 
BRANCH  23  24
ATOM     24  N   UNL     1      -1.003 -10.343 -11.224  0.00  0.00    +0.381 N 
ATOM     25  H   UNL     1      -1.806 -10.738 -10.759  0.00  0.00    -0.086 HD
ATOM     26  H   UNL     1      -1.225  -9.413 -11.547  0.00  0.00    -0.086 HD
BRANCH  24  27
ATOM     27  C   UNL     1      -0.639 -11.185 -12.371  0.00  0.00    -0.072 C 
ATOM     28  C   UNL     1       0.499 -10.522 -13.150  0.00  0.00    -0.016 C 
ATOM     29  C   UNL     1       0.878 -11.399 -14.345  0.00  0.00    -0.002 C 
ATOM     30  C   UNL     1      -0.336 -11.567 -15.260  0.00  0.00    -0.000 C 
ATOM     31  C   UNL     1      -1.474 -12.230 -14.482  0.00  0.00    -0.002 C 
ATOM     32  C   UNL     1      -1.853 -11.353 -13.287  0.00  0.00    -0.016 C 
ENDBRANCH  24  27
ENDBRANCH  23  24
ENDBRANCH  22  23
ENDBRANCH  21  22
ENDBRANCH   4  21
TORSDOF 10
