REMARK  Name = ZINC04664766
REMARK  11 active torsions:
REMARK  status: ('A' for Active; 'I' for Inactive)
REMARK    1  A    between atoms: C_1  and  O_2
REMARK    2  A    between atoms: O_2  and  C_3
REMARK    3  A    between atoms: C_6  and  N_11
REMARK    4  A    between atoms: C_7  and  O_9
REMARK    5  A    between atoms: O_9  and  C_10
REMARK    6  A    between atoms: C_12  and  C_14
REMARK    7  A    between atoms: C_18  and  N_19
REMARK    8  A    between atoms: C_20  and  C_22
REMARK    9  A    between atoms: C_22  and  N_23
REMARK   10  A    between atoms: N_23  and  C_24
REMARK   11  A    between atoms: C_24  and  C_25
REMARK                            x       y       z     vdW  Elec       q    Type
REMARK                         _______ _______ _______ _____ _____    ______ ____
ROOT
ATOM      1  C   UNL     1       3.956  -2.422   6.225  0.00  0.00    +0.069 A 
ATOM      2  C   UNL     1       5.372  -2.743   6.054  0.00  0.00    -0.023 A 
ATOM      3  C   UNL     1       5.929  -3.350   7.117  0.00  0.00    -0.004 A 
ATOM      4  S   UNL     1       4.611  -3.482   8.299  0.00  0.00    -0.077 S 
ATOM      5  C   UNL     1       3.370  -2.763   7.430  0.00  0.00    +0.084 A 
ATOM      6  C   UNL     1       7.383  -3.662   6.887  0.00  0.00    +0.043 C 
ATOM      7  C   UNL     1       7.568  -3.552   5.357  0.00  0.00    +0.010 C 
ATOM      8  C   UNL     1       6.437  -2.577   4.972  0.00  0.00    +0.037 C 
ENDROOT
BRANCH   1  10
ATOM      9  N   UNL     1       2.544  -2.497   4.239  0.00  0.00    -0.278 N 
ATOM     10  C   UNL     1       3.190  -1.760   5.164  0.00  0.00    +0.251 C 
ATOM     11  O   UNL     1       3.137  -0.545   5.119  0.00  0.00    -0.270 OA
ATOM     12  H   UNL     1       2.519  -3.463   4.320  0.00  0.00    +0.155 HD
BRANCH   9  16
ATOM     13  C   UNL     1       0.654  -0.622   1.024  0.00  0.00    +0.124 A 
ATOM     14  C   UNL     1       1.711   0.003   1.670  0.00  0.00    +0.047 A 
ATOM     15  C   UNL     1       2.337  -0.618   2.734  0.00  0.00    +0.030 A 
ATOM     16  C   UNL     1       1.909  -1.867   3.159  0.00  0.00    +0.076 A 
ATOM     17  C   UNL     1       0.848  -2.495   2.511  0.00  0.00    +0.145 A 
ATOM     18  C   UNL     1       0.219  -1.868   1.448  0.00  0.00    +0.093 A 
BRANCH  13  20
ATOM     19  C   UNL     1       0.540   1.274  -0.407  0.00  0.00    +0.277 C 
ATOM     20  O   UNL     1       0.041  -0.008  -0.023  0.00  0.00    -0.495 OA
ENDBRANCH  13  20
BRANCH  17  21
ATOM     21  O   UNL     1       0.426  -3.720   2.925  0.00  0.00    -0.493 OA
ATOM     22  C   UNL     1      -0.668  -4.304   2.215  0.00  0.00    +0.277 C 
ENDBRANCH  17  21
ENDBRANCH   9  16
ENDBRANCH   1  10
BRANCH   5  23
ATOM     23  N   UNL     1       2.058  -2.558   7.828  0.00  0.00    -0.281 N 
ATOM     24  C   UNL     1       1.654  -2.958   9.050  0.00  0.00    +0.201 C 
ATOM     25  O   UNL     1       2.439  -3.496   9.802  0.00  0.00    -0.278 OA
ATOM     26  H   UNL     1       1.430  -2.128   7.227  0.00  0.00    +0.155 HD
BRANCH  24  27
ATOM     27  C   UNL     1       0.228  -2.736   9.483  0.00  0.00    +0.016 C 
BRANCH  27  28
ATOM     28  N   UNL     1       0.042  -3.256  10.844  0.00  0.00    +0.389 N 
ATOM     29  H   UNL     1       0.248  -4.244  10.858  0.00  0.00    -0.085 HD
ATOM     30  H   UNL     1       0.664  -2.774  11.476  0.00  0.00    -0.085 HD
BRANCH  28  31
ATOM     31  C   UNL     1      -1.348  -3.040  11.266  0.00  0.00    -0.006 C 
BRANCH  31  32
ATOM     32  C   UNL     1      -1.538  -3.573  12.662  0.00  0.00    +0.088 A 
ATOM     33  C   UNL     1      -1.367  -2.877  13.800  0.00  0.00    +0.042 A 
ATOM     34  C   UNL     1      -1.650  -3.760  14.867  0.00  0.00    +0.041 A 
ATOM     35  C   UNL     1      -1.977  -4.944  14.318  0.00  0.00    +0.195 A 
ATOM     36  O   UNL     1      -1.913  -4.823  12.982  0.00  0.00    -0.470 OA
ENDBRANCH  31  32
ENDBRANCH  28  31
ENDBRANCH  27  28
ENDBRANCH  24  27
ENDBRANCH   5  23
TORSDOF 9
