REMARK  Name = ZINC14543865
REMARK  12 active torsions:
REMARK  status: ('A' for Active; 'I' for Inactive)
REMARK    1  A    between atoms: C_1  and  C_2
REMARK    2  A    between atoms: C_2  and  N_67
REMARK    3  A    between atoms: C_3  and  C_4
REMARK    4  A    between atoms: C_3  and  N_67
REMARK    5  A    between atoms: C_5  and  C_6
REMARK    6  A    between atoms: C_5  and  N_67
REMARK    7  A    between atoms: C_6  and  N_7
REMARK    8  A    between atoms: C_8  and  C_10
REMARK    9  A    between atoms: C_23  and  C_26
REMARK   10  A    between atoms: C_29  and  O_32
REMARK   11  A    between atoms: O_32  and  C_33
REMARK   12  A    between atoms: C_33  and  C_34
REMARK                            x       y       z     vdW  Elec       q    Type
REMARK                         _______ _______ _______ _____ _____    ______ ____
ROOT
ATOM      1  C   UNL     1      -1.299   1.937   0.018  0.00  0.00    +0.037 A 
ATOM      2  C   UNL     1      -1.316   3.335   0.007  0.00  0.00    +0.015 A 
ATOM      3  C   UNL     1      -2.520   3.999  -0.001  0.00  0.00    +0.024 A 
ATOM      4  C   UNL     1      -3.716   3.283   0.015  0.00  0.00    +0.031 A 
ATOM      5  C   UNL     1      -3.709   1.896   0.035  0.00  0.00    -0.019 A 
ATOM      6  C   UNL     1      -2.499   1.226   0.035  0.00  0.00    +0.019 A 
ATOM      7  C   UNL     1      -4.970   1.074   0.061  0.00  0.00    +0.049 C 
ATOM      8  C   UNL     1      -4.937   0.230   1.329  0.00  0.00    -0.023 C 
ATOM      9  C   UNL     1      -5.618   0.813   2.284  0.00  0.00    -0.030 C 
ATOM     10  C   UNL     1      -6.205   2.124   1.793  0.00  0.00    +0.033 C 
ATOM     11  C   UNL     1      -6.229   1.939   0.257  0.00  0.00    +0.029 C 
ATOM     12  C   UNL     1      -6.120   3.274  -0.455  0.00  0.00    +0.105 C 
ATOM     13  N   UNL     1      -4.921   3.982   0.008  0.00  0.00    -0.336 N 
ATOM     14  H   UNL     1      -4.967   4.905   0.300  0.00  0.00    +0.147 HD
ENDROOT
BRANCH  12  15
ATOM     15  C   UNL     1      -6.025   3.044  -1.941  0.00  0.00    -0.027 A 
ATOM     16  C   UNL     1      -4.815   2.690  -2.509  0.00  0.00    +0.009 A 
ATOM     17  C   UNL     1      -4.727   2.473  -3.870  0.00  0.00    +0.046 A 
ATOM     18  C   UNL     1      -5.851   2.622  -4.670  0.00  0.00    +0.121 A 
ATOM     19  C   UNL     1      -7.062   2.983  -4.098  0.00  0.00    +0.046 A 
ATOM     20  C   UNL     1      -7.147   3.193  -2.736  0.00  0.00    +0.009 A 
BRANCH  18  21
ATOM     21  O   UNL     1      -5.765   2.414  -6.010  0.00  0.00    -0.492 OA
BRANCH  21  22
ATOM     22  C   UNL     1      -4.486   2.044  -6.529  0.00  0.00    +0.225 C 
ATOM     23  C   UNL     1      -4.585   1.855  -8.044  0.00  0.00    +0.048 C 
ENDBRANCH  21  22
ENDBRANCH  18  21
ENDBRANCH  12  15
BRANCH   1  25
ATOM     24  N   UNL     1       1.146   1.903  -0.003  0.00  0.00    -0.313 N 
ATOM     25  C   UNL     1      -0.013   1.215   0.019  0.00  0.00    +0.244 C 
ATOM     26  O   UNL     1       0.002  -0.001   0.034  0.00  0.00    -0.270 OA
ATOM     27  H   UNL     1       1.135   2.873  -0.015  0.00  0.00    +0.149 HD
BRANCH  24  28
ATOM     28  C   UNL     1       2.424   1.185  -0.008  0.00  0.00    +0.086 C 
BRANCH  28  29
ATOM     29  C   UNL     1       3.575   2.193  -0.034  0.00  0.00    -0.060 C 
BRANCH  29  30
ATOM     30  N   UNL     1       4.850   1.459   0.105  0.00  0.00    +0.380 N 
ATOM     31  H   UNL     1       4.739   0.729   0.819  0.00  0.00    -0.082 HD
BRANCH  30  33
ATOM     32  C   UNL     1       6.403  -0.106  -0.954  0.00  0.00    -0.017 C 
ATOM     33  C   UNL     1       5.210   0.824  -1.180  0.00  0.00    -0.082 C 
ENDBRANCH  30  33
BRANCH  30  34
ATOM     34  C   UNL     1       5.922   2.384   0.528  0.00  0.00    -0.082 C 
ATOM     35  C   UNL     1       5.766   2.664   2.024  0.00  0.00    -0.017 C 
ENDBRANCH  30  34
ENDBRANCH  29  30
ENDBRANCH  28  29
ENDBRANCH  24  28
ENDBRANCH   1  25
TORSDOF 9
