REMARK  Name = ZINC40749855
REMARK  3 active torsions:
REMARK  status: ('A' for Active; 'I' for Inactive)
REMARK    1  A    between atoms: C_4  and  S_7
REMARK    2  A    between atoms: S_7  and  N_10
REMARK    3  A    between atoms: C_18  and  N_20
REMARK                            x       y       z     vdW  Elec       q    Type
REMARK                         _______ _______ _______ _____ _____    ______ ____
ROOT
ATOM      1  N   UNL     1       2.720  -2.184  -2.795  0.00  0.00    -0.175 NA
ATOM      2  C   UNL     1       3.502  -3.265  -2.146  0.00  0.00    +0.078 C 
ATOM      3  C   UNL     1       3.560  -4.385  -3.210  0.00  0.00    +0.022 C 
ATOM      4  C   UNL     1       2.318  -4.151  -4.095  0.00  0.00    +0.022 C 
ATOM      5  C   UNL     1       1.622  -2.911  -3.478  0.00  0.00    +0.078 C 
ATOM      6  C   UNL     1       0.655  -3.404  -2.389  0.00  0.00    +0.004 C 
ATOM      7  C   UNL     1       1.386  -4.410  -1.496  0.00  0.00    -0.072 C 
ATOM      8  C   UNL     1       2.675  -3.772  -0.953  0.00  0.00    +0.004 C 
ENDROOT
BRANCH   7   9
ATOM      9  N   UNL     1       0.521  -4.780  -0.367  0.00  0.00    +0.380 N 
ATOM     10  H   UNL     1      -0.329  -5.196  -0.717  0.00  0.00    -0.090 HD
ATOM     11  H   UNL     1       1.002  -5.443   0.222  0.00  0.00    -0.090 HD
ATOM     12  H   UNL     1       0.297  -3.955   0.169  0.00  0.00    -0.090 HD
ENDBRANCH   7   9
BRANCH   1  13
ATOM     13  S   UNL     1       3.003  -0.553  -2.760  0.00  0.00    +0.035 S 
ATOM     14  O   UNL     1       3.834  -0.353  -1.625  0.00  0.00    -0.158 OA
ATOM     15  O   UNL     1       1.713   0.040  -2.827  0.00  0.00    -0.158 OA
BRANCH  13  19
ATOM     16  C   UNL     1       6.338   0.767  -5.634  0.00  0.00    +0.000 C 
ATOM     17  C   UNL     1       5.039   1.576  -5.633  0.00  0.00    +0.002 C 
ATOM     18  C   UNL     1       4.258   1.285  -4.350  0.00  0.00    +0.028 C 
ATOM     19  C   UNL     1       3.929  -0.208  -4.281  0.00  0.00    +0.148 C 
ATOM     20  C   UNL     1       5.227  -1.017  -4.282  0.00  0.00    +0.028 C 
ATOM     21  C   UNL     1       6.008  -0.726  -5.565  0.00  0.00    +0.002 C 
ENDBRANCH  13  19
ENDBRANCH   1  13
TORSDOF 3
