REMARK  Name = ZINC37063232
REMARK  9 active torsions:
REMARK  status: ('A' for Active; 'I' for Inactive)
REMARK    1  A    between atoms: C_1  and  C_2
REMARK    2  A    between atoms: C_2  and  N_3
REMARK    3  A    between atoms: C_7  and  C_9
REMARK    4  A    between atoms: C_9  and  N_10
REMARK    5  A    between atoms: N_10  and  S_11
REMARK    6  A    between atoms: S_11  and  C_14
REMARK    7  A    between atoms: C_15  and  C_22
REMARK    8  A    between atoms: C_16  and  C_21
REMARK    9  A    between atoms: C_19  and  N_20
REMARK                            x       y       z     vdW  Elec       q    Type
REMARK                         _______ _______ _______ _____ _____    ______ ____
ROOT
ATOM      1  S   UNL     1      -3.087  -1.522  -5.228  0.00  0.00    +0.060 S 
ATOM      2  O   UNL     1      -4.467  -1.187  -5.174  0.00  0.00    -0.153 OA
ATOM      3  O   UNL     1      -2.266  -1.192  -6.340  0.00  0.00    -0.153 OA
ENDROOT
BRANCH   1   4
ATOM      4  C   UNL     1      -2.986  -3.270  -5.029  0.00  0.00    +0.129 A 
ATOM      5  C   UNL     1      -3.991  -3.950  -4.370  0.00  0.00    -0.019 A 
ATOM      6  C   UNL     1      -3.912  -5.322  -4.213  0.00  0.00    -0.046 A 
ATOM      7  C   UNL     1      -2.827  -6.017  -4.715  0.00  0.00    +0.005 A 
ATOM      8  C   UNL     1      -1.819  -5.343  -5.375  0.00  0.00    +0.025 A 
ATOM      9  C   UNL     1      -1.897  -3.966  -5.540  0.00  0.00    +0.052 A 
ATOM     10  C   UNL     1      -5.011  -6.060  -3.493  0.00  0.00    +0.044 C 
ATOM     11  C   UNL     1      -5.175  -3.197  -3.822  0.00  0.00    +0.046 C 
BRANCH   9  12
ATOM     12  N   UNL     1      -0.881  -3.282  -6.211  0.00  0.00    -0.356 N 
ATOM     13  H   UNL     1      -0.726  -2.342  -6.027  0.00  0.00    +0.142 HD
ATOM     14  H   UNL     1      -0.332  -3.746  -6.862  0.00  0.00    +0.142 HD
ENDBRANCH   9  12
ENDBRANCH   1   4
BRANCH   1  15
ATOM     15  N   UNL     1      -2.380  -0.836  -3.897  0.00  0.00    -0.191 NA
ATOM     16  H   UNL     1      -2.914  -0.310  -3.281  0.00  0.00    +0.148 HD
BRANCH  15  17
ATOM     17  C   UNL     1      -0.948  -1.023  -3.650  0.00  0.00    +0.090 C 
BRANCH  17  22
ATOM     18  N   UNL     1      -0.818   1.356  -3.038  0.00  0.00    +0.382 N 
ATOM     19  C   UNL     1       0.434   2.127  -3.198  0.00  0.00    -0.078 C 
ATOM     20  C   UNL     1       1.459   1.412  -2.282  0.00  0.00    -0.020 C 
ATOM     21  C   UNL     1       1.061  -0.076  -2.468  0.00  0.00    -0.016 C 
ATOM     22  C   UNL     1      -0.475  -0.011  -2.604  0.00  0.00    -0.053 C 
ATOM     23  H   UNL     1      -1.307   1.320  -3.919  0.00  0.00    -0.081 HD
BRANCH  18  25
ATOM     24  C   UNL     1      -2.122   3.366  -2.534  0.00  0.00    -0.017 C 
ATOM     25  C   UNL     1      -1.667   1.997  -2.025  0.00  0.00    -0.082 C 
ENDBRANCH  18  25
ENDBRANCH  17  22
ENDBRANCH  15  17
ENDBRANCH   1  15
TORSDOF 6
