REMARK  Name = ZINC32793440
REMARK  11 active torsions:
REMARK  status: ('A' for Active; 'I' for Inactive)
REMARK    1  A    between atoms: C_1  and  C_2
REMARK    2  A    between atoms: C_2  and  C_4
REMARK    3  A    between atoms: C_2  and  N_12
REMARK    4  A    between atoms: C_9  and  O_10
REMARK    5  A    between atoms: O_10  and  C_11
REMARK    6  A    between atoms: N_12  and  C_13
REMARK    7  A    between atoms: C_13  and  C_15
REMARK    8  A    between atoms: C_13  and  C_16
REMARK    9  A    between atoms: N_18  and  C_19
REMARK   10  A    between atoms: C_22  and  S_25
REMARK   11  A    between atoms: S_25  and  N_28
REMARK                            x       y       z     vdW  Elec       q    Type
REMARK                         _______ _______ _______ _____ _____    ______ ____
ROOT
ATOM      1  C   UNL     1      -1.166  -4.756  -1.178  0.00  0.00    +0.203 C 
ATOM      2  O   UNL     1      -2.160  -4.211  -0.748  0.00  0.00    -0.277 OA
ATOM      3  N   UNL     1      -1.242  -6.012  -1.661  0.00  0.00    -0.287 N 
ATOM      4  H   UNL     1      -0.358  -6.479  -2.120  0.00  0.00    +0.155 HD
ENDROOT
BRANCH   3   5
ATOM      5  C   UNL     1      -2.445  -6.722  -1.579  0.00  0.00    +0.033 A 
ATOM      6  C   UNL     1      -2.429  -8.095  -1.368  0.00  0.00    +0.025 A 
ATOM      7  C   UNL     1      -3.619  -8.792  -1.282  0.00  0.00    +0.030 A 
ATOM      8  C   UNL     1      -4.823  -8.126  -1.417  0.00  0.00    +0.105 A 
ATOM      9  C   UNL     1      -4.841  -6.760  -1.633  0.00  0.00    +0.030 A 
ATOM     10  C   UNL     1      -3.656  -6.057  -1.714  0.00  0.00    +0.025 A 
BRANCH   8  11
ATOM     11  S   UNL     1      -6.338  -9.020  -1.313  0.00  0.00    +0.056 S 
ATOM     12  O   UNL     1      -6.065 -10.196  -0.563  0.00  0.00    -0.153 OA
ATOM     13  O   UNL     1      -7.336  -8.085  -0.927  0.00  0.00    -0.153 OA
BRANCH  11  14
ATOM     14  N   UNL     1      -6.721  -9.515  -2.846  0.00  0.00    -0.204 NA
ATOM     15  H   UNL     1      -7.665 -10.079  -2.824  0.00  0.00    +0.144 HD
ATOM     16  H   UNL     1      -5.918 -10.158  -3.235  0.00  0.00    +0.144 HD
ENDBRANCH  11  14
ENDBRANCH   8  11
ENDBRANCH   3   5
BRANCH   1  17
ATOM     17  C   UNL     1       0.154  -4.029  -1.172  0.00  0.00    +0.014 C 
ATOM     18  C   UNL     1       0.675  -3.906  -2.605  0.00  0.00    -0.004 C 
BRANCH  17  19
ATOM     19  N   UNL     1      -0.028  -2.689  -0.600  0.00  0.00    +0.391 N 
ATOM     20  H   UNL     1      -0.791  -2.743   0.191  0.00  0.00    -0.084 HD
ATOM     21  H   UNL     1      -0.370  -2.010  -1.394  0.00  0.00    -0.084 HD
BRANCH  19  23
ATOM     22  C   UNL     1       1.387  -2.701   1.399  0.00  0.00    -0.009 C 
ATOM     23  C   UNL     1       1.230  -2.184  -0.032  0.00  0.00    -0.039 C 
BRANCH  23  24
ATOM     24  C   UNL     1       1.206  -0.677  -0.021  0.00  0.00    -0.020 A 
ATOM     25  C   UNL     1      -0.000  -0.004   0.003  0.00  0.00    +0.005 A 
ATOM     26  C   UNL     1      -0.022   1.378   0.013  0.00  0.00    +0.000 A 
ATOM     27  C   UNL     1       1.163   2.091  -0.001  0.00  0.00    +0.004 A 
ATOM     28  C   UNL     1       2.372   1.423  -0.026  0.00  0.00    +0.046 A 
ATOM     29  C   UNL     1       2.396   0.036  -0.036  0.00  0.00    +0.122 A 
BRANCH  29  30
ATOM     30  O   UNL     1       3.584  -0.624  -0.060  0.00  0.00    -0.495 OA
ATOM     31  C   UNL     1       4.769   0.175  -0.074  0.00  0.00    +0.277 C 
ENDBRANCH  29  30
ENDBRANCH  23  24
ENDBRANCH  19  23
ENDBRANCH  17  19
ENDBRANCH   1  17
TORSDOF 8
