REMARK  Name = ZINC61856626
REMARK  5 active torsions:
REMARK  status: ('A' for Active; 'I' for Inactive)
REMARK    1  A    between atoms: C_1  and  N_2
REMARK    2  A    between atoms: N_2  and  C_3
REMARK    3  A    between atoms: N_2  and  C_11
REMARK    4  A    between atoms: C_3  and  C_4
REMARK    5  A    between atoms: C_14  and  C_18
REMARK                            x       y       z     vdW  Elec       q    Type
REMARK                         _______ _______ _______ _____ _____    ______ ____
ROOT
ATOM      1  C   UNL     1       0.050  -0.504  -1.173  0.00  0.00    +0.031 A 
ATOM      2  C   UNL     1       0.113  -1.891  -1.289  0.00  0.00    +0.024 A 
ATOM      3  C   UNL     1       0.158  -2.478  -2.532  0.00  0.00    +0.014 A 
ATOM      4  C   UNL     1       0.140  -1.683  -3.681  0.00  0.00    +0.030 A 
ATOM      5  C   UNL     1       0.076  -0.291  -3.563  0.00  0.00    +0.053 A 
ATOM      6  C   UNL     1       0.027   0.291  -2.314  0.00  0.00    +0.043 A 
ATOM      7 CL   UNL     1       0.055   0.703  -4.986  0.00  0.00    -0.083 Cl
ENDROOT
BRANCH   4   8
ATOM      8  C   UNL     1       0.189  -2.310  -5.016  0.00  0.00    +0.096 C 
ATOM      9  N   UNL     1       1.150  -1.974  -5.876  0.00  0.00    -0.387 N 
ATOM     10  N   UNL     1      -0.729  -3.213  -5.362  0.00  0.00    -0.345 N 
ATOM     11  H   UNL     1       1.139  -2.329  -6.779  0.00  0.00    +0.157 HD
ATOM     12  H   UNL     1      -1.428  -3.458  -4.736  0.00  0.00    +0.144 HD
ATOM     13  H   UNL     1      -0.697  -3.626  -6.239  0.00  0.00    +0.144 HD
ATOM     14  H   UNL     1       1.860  -1.373  -5.599  0.00  0.00    +0.157 HD
ENDBRANCH   4   8
BRANCH   1  16
ATOM     15  C   UNL     1      -0.192   1.532   0.210  0.00  0.00    +0.129 C 
ATOM     16  N   UNL     1       0.006   0.086   0.086  0.00  0.00    -0.329 N 
BRANCH  16  17
ATOM     17  C   UNL     1       0.156  -0.739   1.287  0.00  0.00    +0.141 C 
BRANCH  17  18
ATOM     18  C   UNL     1       1.620  -0.933   1.583  0.00  0.00    -0.016 A 
ATOM     19  C   UNL     1       2.258  -2.094   1.186  0.00  0.00    +0.006 A 
ATOM     20  C   UNL     1       3.601  -2.272   1.457  0.00  0.00    +0.000 A 
ATOM     21  C   UNL     1       4.308  -1.290   2.125  0.00  0.00    +0.001 A 
ATOM     22  C   UNL     1       3.672  -0.130   2.523  0.00  0.00    +0.015 A 
ATOM     23  C   UNL     1       2.329   0.052   2.247  0.00  0.00    +0.023 A 
ATOM     24 BR   UNL     1       1.459   1.643   2.785  0.00  0.00    -0.050 Br
ENDBRANCH  17  18
ENDBRANCH  16  17
ENDBRANCH   1  16
TORSDOF 4
