REMARK  Name = ZINC15080420
REMARK  11 active torsions:
REMARK  status: ('A' for Active; 'I' for Inactive)
REMARK    1  A    between atoms: C_1  and  C_2
REMARK    2  A    between atoms: C_2  and  C_3
REMARK    3  A    between atoms: C_3  and  O_4
REMARK    4  A    between atoms: O_4  and  C_5
REMARK    5  A    between atoms: C_8  and  N_11
REMARK    6  A    between atoms: C_15  and  N_19
REMARK    7  A    between atoms: C_22  and  C_25
REMARK    8  A    between atoms: C_25  and  C_26
REMARK    9  A    between atoms: C_26  and  N_27
REMARK   10  A    between atoms: C_30  and  C_33
REMARK   11  A    between atoms: C_33  and  C_34
REMARK                            x       y       z     vdW  Elec       q    Type
REMARK                         _______ _______ _______ _____ _____    ______ ____
ROOT
ATOM      1  N   UNL     1       5.347  -6.703  -6.686  0.00  0.00    +0.388 N 
ATOM      2  C   UNL     1       5.107  -8.005  -6.052  0.00  0.00    -0.077 C 
ATOM      3  C   UNL     1       6.445  -8.660  -5.703  0.00  0.00    -0.015 C 
ATOM      4  C   UNL     1       7.261  -8.857  -6.984  0.00  0.00    -0.016 C 
ATOM      5  C   UNL     1       7.441  -7.503  -7.676  0.00  0.00    -0.015 C 
ATOM      6  C   UNL     1       6.066  -6.890  -7.952  0.00  0.00    -0.077 C 
ATOM      7  H   UNL     1       5.899  -6.127  -6.069  0.00  0.00    -0.081 HD
ENDROOT
BRANCH   1  12
ATOM      8  N   UNL     1       3.196  -4.381  -5.569  0.00  0.00    -0.212 N 
ATOM      9  C   UNL     1       3.678  -3.697  -6.614  0.00  0.00    +0.225 C 
ATOM     10  O   UNL     1       3.639  -2.493  -6.744  0.00  0.00    -0.275 OA
ATOM     11  C   UNL     1       4.281  -4.667  -7.608  0.00  0.00    +0.090 C 
ATOM     12  C   UNL     1       4.061  -6.043  -6.949  0.00  0.00    +0.029 C 
ATOM     13  C   UNL     1       3.362  -5.707  -5.649  0.00  0.00    +0.213 C 
ATOM     14  O   UNL     1       3.006  -6.511  -4.815  0.00  0.00    -0.277 OA
BRANCH   8  18
ATOM     15  C   UNL     1       1.343  -2.529  -2.322  0.00  0.00    +0.121 A 
ATOM     16  C   UNL     1       2.567  -3.159  -2.155  0.00  0.00    +0.047 A 
ATOM     17  C   UNL     1       3.181  -3.772  -3.230  0.00  0.00    +0.027 A 
ATOM     18  C   UNL     1       2.572  -3.758  -4.477  0.00  0.00    +0.044 A 
ATOM     19  C   UNL     1       1.347  -3.127  -4.644  0.00  0.00    +0.027 A 
ATOM     20  C   UNL     1       0.732  -2.519  -3.568  0.00  0.00    +0.047 A 
BRANCH  15  21
ATOM     21  O   UNL     1       0.739  -1.926  -1.264  0.00  0.00    -0.492 OA
BRANCH  21  22
ATOM     22  C   UNL     1       1.425  -1.974  -0.012  0.00  0.00    +0.229 C 
BRANCH  22  24
ATOM     23  C   UNL     1       1.332  -1.300   2.392  0.00  0.00    +0.007 C 
ATOM     24  C   UNL     1       0.598  -1.248   1.051  0.00  0.00    +0.038 C 
ENDBRANCH  22  24
ENDBRANCH  21  22
ENDBRANCH  15  21
ENDBRANCH   8  18
ENDBRANCH   1  12
BRANCH   4  25
ATOM     25  C   UNL     1       8.632  -9.439  -6.633  0.00  0.00    -0.015 C 
BRANCH  25  26
ATOM     26  C   UNL     1       9.397  -9.752  -7.921  0.00  0.00    -0.079 C 
BRANCH  26  27
ATOM     27  N   UNL     1      10.713 -10.310  -7.584  0.00  0.00    +0.380 N 
ATOM     28  C   UNL     1      11.510  -9.295  -6.885  0.00  0.00    -0.079 C 
ATOM     29  C   UNL     1      12.852  -9.897  -6.461  0.00  0.00    -0.015 C 
ATOM     30  C   UNL     1      13.607 -10.374  -7.705  0.00  0.00    -0.015 C 
ATOM     31  C   UNL     1      12.736 -11.377  -8.466  0.00  0.00    -0.015 C 
ATOM     32  C   UNL     1      11.399 -10.721  -8.816  0.00  0.00    -0.079 C 
ATOM     33  H   UNL     1      10.594 -11.113  -6.984  0.00  0.00    -0.082 HD
BRANCH  30  34
ATOM     34  C   UNL     1      14.914 -11.049  -7.282  0.00  0.00    -0.000 C 
ATOM     35  C   UNL     1      15.725 -11.413  -8.527  0.00  0.00    +0.004 C 
ENDBRANCH  30  34
ENDBRANCH  26  27
ENDBRANCH  25  26
ENDBRANCH   4  25
TORSDOF 9
