REMARK  Name = ZINC63386340
REMARK  10 active torsions:
REMARK  status: ('A' for Active; 'I' for Inactive)
REMARK    1  A    between atoms: C_1  and  C_2
REMARK    2  A    between atoms: C_5  and  O_33
REMARK    3  A    between atoms: C_7  and  O_32
REMARK    4  A    between atoms: C_13  and  C_15
REMARK    5  A    between atoms: C_15  and  C_16
REMARK    6  A    between atoms: N_18  and  C_19
REMARK    7  A    between atoms: C_19  and  C_20
REMARK    8  A    between atoms: C_20  and  C_21
REMARK    9  A    between atoms: C_25  and  O_30
REMARK   10  A    between atoms: O_30  and  C_31
REMARK                            x       y       z     vdW  Elec       q    Type
REMARK                         _______ _______ _______ _____ _____    ______ ____
ROOT
ATOM      1  C   UNL     1       1.429  -0.142   3.556  0.00  0.00    +0.214 C 
ATOM      2  O   UNL     1       2.281  -0.981   3.356  0.00  0.00    -0.276 OA
ATOM      3  N   UNL     1       1.308   0.419   4.776  0.00  0.00    -0.315 N 
ATOM      4  H   UNL     1       0.626   1.090   4.936  0.00  0.00    +0.149 HD
ENDROOT
BRANCH   1   5
ATOM      5  C   UNL     1       0.505   0.274   2.441  0.00  0.00    +0.111 C 
BRANCH   5  17
ATOM      6  C   UNL     1      -0.019   1.526   0.010  0.00  0.00    +0.013 C 
ATOM      7  C   UNL     1       0.002  -0.004   0.002  0.00  0.00    +0.037 C 
ATOM      8  C   UNL     1      -1.407  -0.525   0.133  0.00  0.00    +0.040 A 
ATOM      9  C   UNL     1      -2.423   0.134  -0.553  0.00  0.00    +0.127 A 
ATOM     10  C   UNL     1      -3.730  -0.315  -0.467  0.00  0.00    +0.091 A 
ATOM     11  C   UNL     1      -4.030  -1.426   0.306  0.00  0.00    +0.124 A 
ATOM     12  C   UNL     1      -3.021  -2.082   0.992  0.00  0.00    +0.092 A 
ATOM     13  C   UNL     1      -1.708  -1.629   0.909  0.00  0.00    +0.142 A 
ATOM     14  O   UNL     1      -0.752  -2.293   1.615  0.00  0.00    -0.425 OA
ATOM     15  C   UNL     1       0.535  -1.977   1.370  0.00  0.00    +0.317 C 
ATOM     16  O   UNL     1       1.395  -2.824   1.311  0.00  0.00    -0.250 OA
ATOM     17  C   UNL     1       0.852  -0.508   1.172  0.00  0.00    +0.114 C 
BRANCH  11  18
ATOM     18  O   UNL     1      -5.311  -1.871   0.391  0.00  0.00    -0.507 OA
ATOM     19  H   UNL     1      -5.547  -2.523  -0.283  0.00  0.00    +0.292 HD
ENDBRANCH  11  18
BRANCH   9  20
ATOM     20  O   UNL     1      -2.130   1.222  -1.312  0.00  0.00    -0.506 OA
ATOM     21  H   UNL     1      -1.912   1.015  -2.231  0.00  0.00    +0.292 HD
ENDBRANCH   9  20
ENDBRANCH   5  17
ENDBRANCH   1   5
BRANCH   3  22
ATOM     22  C   UNL     1       2.207   0.015   5.860  0.00  0.00    +0.108 C 
BRANCH  22  23
ATOM     23  C   UNL     1       1.859   0.797   7.128  0.00  0.00    +0.052 C 
BRANCH  23  24
ATOM     24  C   UNL     1       2.784   0.381   8.244  0.00  0.00    -0.040 C 
ATOM     25  C   UNL     1       3.928   0.992   8.620  0.00  0.00    -0.001 A 
ATOM     26  C   UNL     1       4.628   2.183   8.120  0.00  0.00    +0.013 A 
ATOM     27  C   UNL     1       5.782   2.562   8.711  0.00  0.00    +0.046 A 
ATOM     28  C   UNL     1       6.329   1.844   9.791  0.00  0.00    +0.122 A 
ATOM     29  C   UNL     1       5.738   0.736  10.305  0.00  0.00    +0.071 A 
ATOM     30  C   UNL     1       4.523   0.254   9.758  0.00  0.00    +0.046 A 
ATOM     31  N   UNL     1       3.771  -0.776  10.072  0.00  0.00    -0.380 N 
ATOM     32  C   UNL     1       2.613  -0.801   9.172  0.00  0.00    +0.144 C 
ATOM     33  H   UNL     1       3.950  -1.412  10.783  0.00  0.00    +0.160 HD
BRANCH  28  34
ATOM     34  O   UNL     1       7.491   2.277  10.340  0.00  0.00    -0.495 OA
ATOM     35  C   UNL     1       8.082   3.447   9.770  0.00  0.00    +0.277 C 
ENDBRANCH  28  34
ENDBRANCH  23  24
ENDBRANCH  22  23
ENDBRANCH   3  22
TORSDOF 8
