REMARK  Name = ZINC48895916
REMARK  7 active torsions:
REMARK  status: ('A' for Active; 'I' for Inactive)
REMARK    1  A    between atoms: C_1  and  C_2
REMARK    2  A    between atoms: C_2  and  C_4
REMARK    3  A    between atoms: C_2  and  N_16
REMARK    4  A    between atoms: N_6  and  C_7
REMARK    5  A    between atoms: C_10  and  N_15
REMARK    6  A    between atoms: C_12  and  O_13
REMARK    7  A    between atoms: O_13  and  C_14
REMARK                            x       y       z     vdW  Elec       q    Type
REMARK                         _______ _______ _______ _____ _____    ______ ____
ROOT
ATOM      1  C   UNL     1       0.711  -0.749  -1.191  0.00  0.00    +0.203 C 
ATOM      2  O   UNL     1       0.104  -1.534  -1.888  0.00  0.00    -0.277 OA
ATOM      3  N   UNL     1       2.024  -0.533  -1.405  0.00  0.00    -0.284 N 
ATOM      4  H   UNL     1       2.497   0.137  -0.887  0.00  0.00    +0.155 HD
ENDROOT
BRANCH   3   5
ATOM      5  C   UNL     1       2.708  -1.278  -2.378  0.00  0.00    +0.076 A 
ATOM      6  C   UNL     1       2.052  -1.681  -3.532  0.00  0.00    +0.029 A 
ATOM      7  C   UNL     1       2.724  -2.415  -4.490  0.00  0.00    +0.025 A 
ATOM      8  C   UNL     1       4.058  -2.751  -4.301  0.00  0.00    +0.028 A 
ATOM      9  C   UNL     1       4.719  -2.349  -3.148  0.00  0.00    +0.070 A 
ATOM     10  C   UNL     1       4.048  -1.609  -2.189  0.00  0.00    +0.143 A 
BRANCH   8  11
ATOM     11  N   UNL     1       4.737  -3.494  -5.273  0.00  0.00    -0.358 N 
ATOM     12  H   UNL     1       4.275  -3.775  -6.078  0.00  0.00    +0.142 HD
ATOM     13  H   UNL     1       5.668  -3.729  -5.141  0.00  0.00    +0.142 HD
ENDBRANCH   8  11
BRANCH  10  14
ATOM     14  O   UNL     1       4.694  -1.210  -1.061  0.00  0.00    -0.493 OA
ATOM     15  C   UNL     1       6.067  -1.585  -0.933  0.00  0.00    +0.277 C 
ENDBRANCH  10  14
ENDBRANCH   3   5
BRANCH   1  17
ATOM     16  C   UNL     1       0.052   1.491  -0.355  0.00  0.00    -0.004 C 
ATOM     17  C   UNL     1      -0.002  -0.014  -0.086  0.00  0.00    +0.016 C 
BRANCH  17  18
ATOM     18  N   UNL     1      -1.403  -0.452  -0.032  0.00  0.00    +0.388 N 
ATOM     19  C   UNL     1      -2.035  -0.125  -1.315  0.00  0.00    -0.077 C 
ATOM     20  C   UNL     1      -2.921  -1.323  -1.624  0.00  0.00    -0.008 C 
ATOM     21  C   UNL     1      -4.394  -0.894  -1.414  0.00  0.00    +0.067 C 
ATOM     22  S   UNL     1      -4.516   0.208   0.035  0.00  0.00    -0.163 S 
ATOM     23  C   UNL     1      -3.422  -0.453   1.297  0.00  0.00    +0.050 C 
ATOM     24  C   UNL     1      -1.992   0.111   1.101  0.00  0.00    -0.067 C 
ATOM     25  H   UNL     1      -1.414  -1.455   0.074  0.00  0.00    -0.081 HD
ENDBRANCH  17  18
ENDBRANCH   1  17
TORSDOF 5
