REMARK  Name = ZINC42474044
REMARK  12 active torsions:
REMARK  status: ('A' for Active; 'I' for Inactive)
REMARK    1  A    between atoms: C_1  and  C_2
REMARK    2  A    between atoms: C_6  and  C_7
REMARK    3  A    between atoms: C_7  and  N_8
REMARK    4  A    between atoms: N_8  and  C_9
REMARK    5  A    between atoms: N_8  and  C_10
REMARK    6  A    between atoms: C_10  and  C_12
REMARK    7  A    between atoms: C_10  and  C_13
REMARK    8  A    between atoms: N_15  and  C_16
REMARK    9  A    between atoms: C_16  and  C_18
REMARK   10  A    between atoms: C_16  and  C_19
REMARK   11  A    between atoms: C_22  and  S_25
REMARK   12  A    between atoms: S_25  and  N_28
REMARK                            x       y       z     vdW  Elec       q    Type
REMARK                         _______ _______ _______ _____ _____    ______ ____
ROOT
ATOM      1  C   UNL     1      -0.584  -0.838   5.212  0.00  0.00    +0.200 C 
ATOM      2  O   UNL     1      -0.014  -1.699   4.576  0.00  0.00    -0.278 OA
ATOM      3  N   UNL     1      -0.534  -0.851   6.559  0.00  0.00    -0.310 N 
ATOM      4  H   UNL     1      -0.990  -0.163   7.068  0.00  0.00    +0.149 HD
ENDROOT
BRANCH   1   5
ATOM      5  C   UNL     1      -1.349   0.246   4.497  0.00  0.00    +0.016 C 
ATOM      6  C   UNL     1      -2.814  -0.174   4.353  0.00  0.00    -0.004 C 
BRANCH   5   7
ATOM      7  N   UNL     1      -0.768   0.459   3.165  0.00  0.00    +0.388 N 
ATOM      8  C   UNL     1      -1.468   1.563   2.496  0.00  0.00    -0.095 C 
ATOM      9  H   UNL     1      -0.865  -0.383   2.617  0.00  0.00    -0.081 HD
BRANCH   7  10
ATOM     10  C   UNL     1       0.656   0.792   3.300  0.00  0.00    -0.035 C 
BRANCH  10  16
ATOM     11  C   UNL     1       0.876   3.272   1.500  0.00  0.00    +0.044 C 
ATOM     12  C   UNL     1       1.412   1.921   1.101  0.00  0.00    -0.042 A 
ATOM     13  C   UNL     1       2.043   1.748  -0.117  0.00  0.00    +0.011 A 
ATOM     14  C   UNL     1       2.514   0.520  -0.445  0.00  0.00    +0.045 A 
ATOM     15  S   UNL     1       2.068  -0.442   0.991  0.00  0.00    -0.103 S 
ATOM     16  C   UNL     1       1.289   0.859   1.934  0.00  0.00    -0.024 A 
ENDBRANCH  10  16
ENDBRANCH   7  10
ENDBRANCH   5   7
ENDBRANCH   1   5
BRANCH   3  17
ATOM     17  C   UNL     1       0.210  -1.905   7.254  0.00  0.00    +0.100 C 
ATOM     18  C   UNL     1       1.685  -1.510   7.348  0.00  0.00    +0.033 C 
BRANCH  17  19
ATOM     19  C   UNL     1      -0.351  -2.085   8.641  0.00  0.00    -0.027 A 
ATOM     20  C   UNL     1      -0.735  -0.981   9.380  0.00  0.00    +0.007 A 
ATOM     21  C   UNL     1      -1.250  -1.147  10.652  0.00  0.00    +0.029 A 
ATOM     22  C   UNL     1      -1.382  -2.415  11.185  0.00  0.00    +0.105 A 
ATOM     23  C   UNL     1      -1.000  -3.519  10.445  0.00  0.00    +0.029 A 
ATOM     24  C   UNL     1      -0.488  -3.354   9.171  0.00  0.00    +0.007 A 
BRANCH  22  25
ATOM     25  S   UNL     1      -2.038  -2.626  12.806  0.00  0.00    +0.056 S 
ATOM     26  O   UNL     1      -1.551  -3.873  13.283  0.00  0.00    -0.153 OA
ATOM     27  O   UNL     1      -1.811  -1.405  13.498  0.00  0.00    -0.153 OA
BRANCH  25  28
ATOM     28  N   UNL     1      -3.679  -2.786  12.654  0.00  0.00    -0.204 NA
ATOM     29  H   UNL     1      -4.176  -3.318  13.295  0.00  0.00    +0.144 HD
ATOM     30  H   UNL     1      -4.144  -2.347  11.924  0.00  0.00    +0.144 HD
ENDBRANCH  25  28
ENDBRANCH  22  25
ENDBRANCH  17  19
ENDBRANCH   3  17
TORSDOF 8
