REMARK  Name = ZINC14041447
REMARK  11 active torsions:
REMARK  status: ('A' for Active; 'I' for Inactive)
REMARK    1  A    between atoms: C_1  and  C_2
REMARK    2  A    between atoms: C_2  and  C_3
REMARK    3  A    between atoms: C_3  and  C_4
REMARK    4  A    between atoms: C_4  and  O_5
REMARK    5  A    between atoms: O_5  and  C_6
REMARK    6  A    between atoms: C_9  and  C_13
REMARK    7  A    between atoms: N_15  and  C_16
REMARK    8  A    between atoms: C_16  and  N_18
REMARK    9  A    between atoms: N_18  and  N_19
REMARK   10  A    between atoms: C_20  and  C_22
REMARK   11  A    between atoms: C_25  and  N_28
REMARK                            x       y       z     vdW  Elec       q    Type
REMARK                         _______ _______ _______ _____ _____    ______ ____
ROOT
ATOM      1  C   UNL     1       3.524   1.907  -0.021  0.00  0.00    +0.153 C 
ATOM      2  S   UNL     1       5.018   1.071  -0.040  0.00  0.00    -0.017 S 
ENDROOT
BRANCH   1   5
ATOM      3  C   UNL     1       4.664   3.944  -0.021  0.00  0.00    +0.250 C 
ATOM      4  O   UNL     1       5.724   3.351  -0.035  0.00  0.00    -0.270 OA
ATOM      5  N   UNL     1       3.506   3.254  -0.014  0.00  0.00    -0.263 N 
ATOM      6  H   UNL     1       2.659   3.728  -0.003  0.00  0.00    +0.157 HD
BRANCH   3  10
ATOM      7  C   UNL     1       4.605   8.190   0.002  0.00  0.00    +0.134 A 
ATOM      8  C   UNL     1       3.410   7.480   0.010  0.00  0.00    +0.047 A 
ATOM      9  C   UNL     1       3.425   6.104  -0.004  0.00  0.00    +0.017 A 
ATOM     10  C   UNL     1       4.644   5.419  -0.013  0.00  0.00    +0.038 A 
ATOM     11  C   UNL     1       5.843   6.136  -0.021  0.00  0.00    +0.032 A 
ATOM     12  C   UNL     1       5.820   7.514  -0.013  0.00  0.00    +0.060 A 
ATOM     13 BR   UNL     1       7.442   8.486  -0.023  0.00  0.00    -0.046 Br
BRANCH   7  14
ATOM     14  O   UNL     1       4.586   9.547   0.010  0.00  0.00    -0.491 OA
BRANCH  14  15
ATOM     15  C   UNL     1       3.304  10.178   0.025  0.00  0.00    +0.229 C 
BRANCH  15  16
ATOM     16  C   UNL     1       3.483  11.697   0.032  0.00  0.00    +0.041 C 
BRANCH  16  18
ATOM     17  C   UNL     1       2.289  13.892   0.055  0.00  0.00    +0.004 C 
ATOM     18  C   UNL     1       2.110  12.373   0.049  0.00  0.00    -0.000 C 
ENDBRANCH  16  18
ENDBRANCH  15  16
ENDBRANCH  14  15
ENDBRANCH   7  14
ENDBRANCH   3  10
ENDBRANCH   1   5
BRANCH   1  19
ATOM     19  N   UNL     1       2.366   1.217  -0.014  0.00  0.00    -0.245 N 
ATOM     20  H   UNL     1       2.379   0.247  -0.019  0.00  0.00    +0.172 HD
BRANCH  19  21
ATOM     21  N   UNL     1       1.143   1.901   0.001  0.00  0.00    -0.231 N 
ATOM     22  C   UNL     1      -0.014   1.211   0.009  0.00  0.00    +0.260 C 
ATOM     23  O   UNL     1       0.002  -0.004   0.002  0.00  0.00    -0.269 OA
ATOM     24  H   UNL     1       1.130   2.871   0.007  0.00  0.00    +0.173 HD
BRANCH  22  25
ATOM     25  C   UNL     1      -1.305   1.933   0.019  0.00  0.00    +0.038 A 
ATOM     26  C   UNL     1      -1.327   3.329   0.032  0.00  0.00    +0.015 A 
ATOM     27  C   UNL     1      -2.534   3.996   0.037  0.00  0.00    +0.033 A 
ATOM     28  C   UNL     1      -3.721   3.285   0.039  0.00  0.00    +0.126 A 
ATOM     29  C   UNL     1      -3.706   1.901   0.030  0.00  0.00    +0.033 A 
ATOM     30  C   UNL     1      -2.506   1.222   0.021  0.00  0.00    +0.015 A 
BRANCH  28  31
ATOM     31  N   UNL     1      -5.013   4.008   0.050  0.00  0.00    +0.056 N 
ATOM     32  O   UNL     1      -6.060   3.384   0.051  0.00  0.00    -0.126 OA
ATOM     33  O   UNL     1      -5.030   5.225   0.057  0.00  0.00    -0.126 OA
ENDBRANCH  28  31
ENDBRANCH  22  25
ENDBRANCH  19  21
ENDBRANCH   1  19
TORSDOF 10
