REMARK  Name = ZINC09468254
REMARK  8 active torsions:
REMARK  status: ('A' for Active; 'I' for Inactive)
REMARK    1  A    between atoms: C_1  and  C_2
REMARK    2  A    between atoms: C_4  and  C_34
REMARK    3  A    between atoms: C_8  and  N_33
REMARK    4  A    between atoms: C_9  and  C_11
REMARK    5  A    between atoms: N_13  and  N_14
REMARK    6  A    between atoms: C_15  and  C_17
REMARK    7  A    between atoms: C_17  and  O_18
REMARK    8  A    between atoms: O_18  and  C_19
REMARK                            x       y       z     vdW  Elec       q    Type
REMARK                         _______ _______ _______ _____ _____    ______ ____
ROOT
ATOM      1  N   UNL     1       6.007  10.617  -1.073  0.00  0.00    -0.231 N 
ATOM      2  C   UNL     1       5.664   9.319  -0.957  0.00  0.00    +0.267 C 
ATOM      3  O   UNL     1       6.525   8.470  -0.870  0.00  0.00    -0.271 OA
ATOM      4  H   UNL     1       5.318  11.297  -1.143  0.00  0.00    +0.173 HD
ENDROOT
BRANCH   1   7
ATOM      5  C   UNL     1       7.702  12.284  -1.211  0.00  0.00    +0.269 C 
ATOM      6  O   UNL     1       6.837  13.137  -1.298  0.00  0.00    -0.268 OA
ATOM      7  N   UNL     1       7.359  10.986  -1.095  0.00  0.00    -0.230 N 
ATOM      8  H   UNL     1       8.047  10.306  -1.025  0.00  0.00    +0.173 HD
BRANCH   5  17
ATOM      9  C   UNL     1      11.172  16.579  -1.575  0.00  0.00    +0.044 C 
ATOM     10  C   UNL     1      11.836  15.233  -1.444  0.00  0.00    -0.037 A 
ATOM     11  C   UNL     1      13.207  15.130  -1.422  0.00  0.00    +0.027 A 
ATOM     12  C   UNL     1      13.815  13.889  -1.303  0.00  0.00    +0.040 A 
ATOM     13  N   UNL     1      13.087  12.794  -1.208  0.00  0.00    -0.245 NA
ATOM     14  C   UNL     1      11.772  12.841  -1.224  0.00  0.00    +0.111 A 
ATOM     15  C   UNL     1      11.057  14.054  -1.343  0.00  0.00    +0.032 A 
ATOM     16  C   UNL     1       9.608  13.918  -1.349  0.00  0.00    +0.054 A 
ATOM     17  C   UNL     1       9.069  12.657  -1.232  0.00  0.00    +0.098 A 
ATOM     18  S   UNL     1      10.502  11.604  -1.122  0.00  0.00    -0.062 S 
ATOM     19  C   UNL     1      15.319  13.793  -1.281  0.00  0.00    +0.065 C 
BRANCH  16  20
ATOM     20  N   UNL     1       8.790  15.034  -1.466  0.00  0.00    -0.356 N 
ATOM     21  H   UNL     1       7.899  14.944  -1.839  0.00  0.00    +0.142 HD
ATOM     22  H   UNL     1       9.109  15.902  -1.175  0.00  0.00    +0.142 HD
ENDBRANCH  16  20
ENDBRANCH   5  17
ENDBRANCH   1   7
BRANCH   2  23
ATOM     23  C   UNL     1       4.210   8.923  -0.934  0.00  0.00    +0.326 C 
BRANCH  23  24
ATOM     24  O   UNL     1       4.105   7.504  -0.804  0.00  0.00    -0.483 OA
BRANCH  24  25
ATOM     25  C   UNL     1       2.854   6.979  -0.768  0.00  0.00    +0.125 A 
ATOM     26  C   UNL     1       1.748   7.823  -0.856  0.00  0.00    +0.046 A 
ATOM     27  C   UNL     1       0.483   7.311  -0.821  0.00  0.00    +0.015 A 
ATOM     28  C   UNL     1       0.296   5.930  -0.693  0.00  0.00    +0.021 A 
ATOM     29  C   UNL     1       1.408   5.073  -0.604  0.00  0.00    +0.143 A 
ATOM     30  C   UNL     1       2.686   5.610  -0.642  0.00  0.00    +0.092 A 
ATOM     31  O   UNL     1       1.220   3.742  -0.482  0.00  0.00    -0.422 OA
ATOM     32  C   UNL     1      -0.009   3.208  -0.442  0.00  0.00    +0.341 A 
ATOM     33  O   UNL     1      -0.128   2.001  -0.331  0.00  0.00    -0.245 OA
ATOM     34  C   UNL     1      -1.172   4.007  -0.529  0.00  0.00    +0.041 A 
ATOM     35  C   UNL     1      -1.050   5.353  -0.649  0.00  0.00    -0.027 A 
ATOM     36  C   UNL     1      -2.414   6.001  -0.718  0.00  0.00    +0.036 C 
ATOM     37  C   UNL     1      -3.393   4.930  -0.188  0.00  0.00    +0.010 C 
ATOM     38  C   UNL     1      -2.635   3.621  -0.498  0.00  0.00    +0.043 C 
ENDBRANCH  24  25
ENDBRANCH  23  24
ENDBRANCH   2  23
TORSDOF 6
