REMARK  Name = ZINC08719363
REMARK  9 active torsions:
REMARK  status: ('A' for Active; 'I' for Inactive)
REMARK    1  A    between atoms: C_1  and  O_2
REMARK    2  A    between atoms: O_2  and  C_3
REMARK    3  A    between atoms: C_6  and  O_30
REMARK    4  A    between atoms: C_7  and  C_9
REMARK    5  A    between atoms: C_14  and  C_15
REMARK    6  A    between atoms: C_14  and  N_60
REMARK    7  A    between atoms: N_17  and  C_18
REMARK    8  A    between atoms: C_19  and  C_27
REMARK    9  A    between atoms: O_30  and  C_31
REMARK                            x       y       z     vdW  Elec       q    Type
REMARK                         _______ _______ _______ _____ _____    ______ ____
ROOT
ATOM      1  C   UNL     1      -1.902   5.189   5.262  0.00  0.00    +0.201 C 
ATOM      2  O   UNL     1      -3.056   4.951   4.976  0.00  0.00    -0.278 OA
ATOM      3  N   UNL     1      -1.422   6.442   5.136  0.00  0.00    -0.281 N 
ATOM      4  H   UNL     1      -0.498   6.633   5.364  0.00  0.00    +0.155 HD
ENDROOT
BRANCH   3   5
ATOM      5  C   UNL     1      -2.247   7.458   4.679  0.00  0.00    +0.084 A 
ATOM      6  C   UNL     1      -1.939   8.797   4.484  0.00  0.00    +0.068 A 
ATOM      7  C   UNL     1      -2.995   9.664   3.990  0.00  0.00    -0.023 A 
ATOM      8  C   UNL     1      -4.183   9.058   3.772  0.00  0.00    -0.004 A 
ATOM      9  S   UNL     1      -3.911   7.363   4.205  0.00  0.00    -0.077 S 
ATOM     10  C   UNL     1      -5.442   9.693   3.270  0.00  0.00    +0.043 C 
ATOM     11  C   UNL     1      -5.297  11.217   3.390  0.00  0.00    +0.005 C 
ATOM     12  C   UNL     1      -3.943  11.631   2.808  0.00  0.00    +0.005 C 
ATOM     13  C   UNL     1      -2.815  11.154   3.725  0.00  0.00    +0.037 C 
BRANCH   6  14
ATOM     14  C   UNL     1      -0.598   9.318   4.766  0.00  0.00    +0.244 C 
ATOM     15  O   UNL     1       0.249   9.323   3.891  0.00  0.00    -0.270 OA
ATOM     16  N   UNL     1      -0.303   9.791   5.993  0.00  0.00    -0.325 N 
ATOM     17  H   UNL     1      -0.978   9.786   6.689  0.00  0.00    +0.145 HD
ATOM     18  H   UNL     1       0.585  10.135   6.179  0.00  0.00    +0.145 HD
ENDBRANCH   6  14
ENDBRANCH   3   5
BRANCH   1  19
ATOM     19  C   UNL     1      -1.005   4.085   5.759  0.00  0.00    +0.020 C 
BRANCH  19  24
ATOM     20  C   UNL     1      -0.856   1.673   6.060  0.00  0.00    -0.033 C 
ATOM     21  C   UNL     1      -1.780   0.566   6.612  0.00  0.00    -0.012 C 
ATOM     22  C   UNL     1      -2.993   1.313   7.202  0.00  0.00    -0.020 C 
ATOM     23  C   UNL     1      -2.701   2.809   6.957  0.00  0.00    -0.077 C 
ATOM     24  N   UNL     1      -1.769   2.799   5.831  0.00  0.00    +0.390 N 
ATOM     25  H   UNL     1      -2.283   2.662   4.953  0.00  0.00    -0.080 HD
BRANCH  20  30
ATOM     26  C   UNL     1      -0.148   1.182   2.380  0.00  0.00    +0.121 A 
ATOM     27  C   UNL     1       0.991   0.392   2.420  0.00  0.00    +0.049 A 
ATOM     28  C   UNL     1       1.536   0.026   3.635  0.00  0.00    +0.049 A 
ATOM     29  C   UNL     1       0.937   0.439   4.816  0.00  0.00    +0.122 A 
ATOM     30  C   UNL     1      -0.206   1.224   4.777  0.00  0.00    -0.016 A 
ATOM     31  C   UNL     1      -0.747   1.595   3.561  0.00  0.00    +0.051 A 
BRANCH  26  33
ATOM     32  C   UNL     1      -0.013   1.086   0.008  0.00  0.00    +0.277 C 
ATOM     33  O   UNL     1      -0.682   1.547   1.184  0.00  0.00    -0.495 OA
ENDBRANCH  26  33
BRANCH  29  34
ATOM     34  O   UNL     1       1.470   0.074   6.013  0.00  0.00    -0.495 OA
ATOM     35  C   UNL     1       2.647  -0.735   5.979  0.00  0.00    +0.277 C 
ENDBRANCH  29  34
ENDBRANCH  20  30
ENDBRANCH  19  24
ENDBRANCH   1  19
TORSDOF 7
