REMARK  Name = ZINC08781439
REMARK  10 active torsions:
REMARK  status: ('A' for Active; 'I' for Inactive)
REMARK    1  A    between atoms: C_1  and  N_2
REMARK    2  A    between atoms: N_2  and  C_3
REMARK    3  A    between atoms: N_2  and  C_4
REMARK    4  A    between atoms: C_7  and  C_10
REMARK    5  A    between atoms: C_14  and  C_17
REMARK    6  A    between atoms: C_17  and  S_18
REMARK    7  A    between atoms: S_18  and  C_19
REMARK    8  A    between atoms: C_20  and  C_34
REMARK    9  A    between atoms: C_21  and  C_30
REMARK   10  A    between atoms: C_23  and  C_25
REMARK                            x       y       z     vdW  Elec       q    Type
REMARK                         _______ _______ _______ _____ _____    ______ ____
ROOT
ATOM      1  S   UNL     1       3.529  -4.280  -7.130  0.00  0.00    -0.102 S 
ENDROOT
BRANCH   1   2
ATOM      2  C   UNL     1       3.975  -5.778  -7.944  0.00  0.00    +0.116 A 
ATOM      3  C   UNL     1       5.292  -6.265  -7.840  0.00  0.00    +0.095 A 
ATOM      4  C   UNL     1       5.630  -7.458  -8.494  0.00  0.00    +0.077 A 
ATOM      5  C   UNL     1       4.654  -8.111  -9.217  0.00  0.00    +0.042 A 
ATOM      6  C   UNL     1       3.366  -7.571  -9.278  0.00  0.00    +0.079 A 
ATOM      7  N   UNL     1       3.069  -6.440  -8.644  0.00  0.00    -0.239 NA
BRANCH   6   8
ATOM      8  C   UNL     1       2.321  -8.267 -10.050  0.00  0.00    +0.038 A 
ATOM      9  C   UNL     1       1.010  -7.914 -10.245  0.00  0.00    +0.017 A 
ATOM     10  C   UNL     1       0.213  -8.729 -11.014  0.00  0.00    +0.008 A 
ATOM     11  C   UNL     1       0.746  -9.856 -11.556  0.00  0.00    +0.046 A 
ATOM     12  S   UNL     1       2.435  -9.785 -10.983  0.00  0.00    -0.095 S 
ENDBRANCH   6   8
BRANCH   4  13
ATOM     13  C   UNL     1       7.028  -8.014  -8.409  0.00  0.00    +0.419 C 
ATOM     14  F   UNL     1       7.103  -9.203  -9.143  0.00  0.00    -0.166 F 
ATOM     15  F   UNL     1       7.932  -7.085  -8.934  0.00  0.00    -0.166 F 
ATOM     16  F   UNL     1       7.347  -8.271  -7.072  0.00  0.00    -0.166 F 
ENDBRANCH   4  13
BRANCH   3  17
ATOM     17  C   UNL     1       6.272  -5.551  -7.078  0.00  0.00    +0.102 C 
ATOM     18  N   UNL     1       7.049  -4.985  -6.473  0.00  0.00    -0.191 NA
ENDBRANCH   3  17
ENDBRANCH   1   2
BRANCH   1  19
ATOM     19  C   UNL     1       1.774  -4.066  -7.536  0.00  0.00    +0.105 C 
BRANCH  19  23
ATOM     20  C   UNL     1      -0.006  -2.813  -4.924  0.00  0.00    +0.094 C 
ATOM     21  N   UNL     1      -0.799  -2.069  -5.937  0.00  0.00    +0.401 N 
ATOM     22  C   UNL     1      -0.242  -2.587  -7.218  0.00  0.00    -0.046 C 
ATOM     23  C   UNL     1       1.252  -2.785  -6.883  0.00  0.00    +0.110 C 
ATOM     24  O   UNL     1       1.328  -2.893  -5.451  0.00  0.00    -0.388 OA
ATOM     25  H   UNL     1      -1.780  -2.290  -5.858  0.00  0.00    -0.081 HD
ATOM     26  H   UNL     1      -0.645  -1.075  -5.855  0.00  0.00    -0.081 HD
BRANCH  20  30
ATOM     27  C   UNL     1      -0.001  -0.695  -1.212  0.00  0.00    +0.029 A 
ATOM     28  C   UNL     1       1.159  -1.312  -1.663  0.00  0.00    +0.023 A 
ATOM     29  C   UNL     1       1.153  -1.996  -2.863  0.00  0.00    +0.006 A 
ATOM     30  C   UNL     1      -0.005  -2.066  -3.615  0.00  0.00    -0.036 A 
ATOM     31  C   UNL     1      -1.161  -1.453  -3.169  0.00  0.00    +0.006 A 
ATOM     32  C   UNL     1      -1.164  -0.772  -1.968  0.00  0.00    +0.023 A 
BRANCH  27  34
ATOM     33  C   UNL     1      -1.225   0.643   0.478  0.00  0.00    +0.129 C 
ATOM     34  N   UNL     1       0.001  -0.003   0.001  0.00  0.00    -0.336 N 
ATOM     35  C   UNL     1       1.228   0.078   0.797  0.00  0.00    +0.129 C 
ENDBRANCH  27  34
ENDBRANCH  20  30
ENDBRANCH  19  23
ENDBRANCH   1  19
TORSDOF 8
