REMARK  Name = ZINC44891780
REMARK  6 active torsions:
REMARK  status: ('A' for Active; 'I' for Inactive)
REMARK    1  A    between atoms: C_1  and  C_2
REMARK    2  A    between atoms: C_3  and  C_18
REMARK    3  A    between atoms: N_7  and  C_8
REMARK    4  A    between atoms: C_8  and  C_9
REMARK    5  A    between atoms: C_15  and  C_17
REMARK    6  A    between atoms: C_18  and  N_20
REMARK                            x       y       z     vdW  Elec       q    Type
REMARK                         _______ _______ _______ _____ _____    ______ ____
ROOT
ATOM      1  C   UNL     1       0.177   1.320   0.505  0.00  0.00    +0.067 C 
ATOM      2  C   UNL     1       0.216  -0.186   0.489  0.00  0.00    +0.060 A 
ATOM      3  C   UNL     1       0.347  -0.893  -0.684  0.00  0.00    +0.100 A 
ATOM      4  S   UNL     1       0.330  -2.568  -0.064  0.00  0.00    -0.047 S 
ATOM      5  C   UNL     1       0.164  -2.208   1.572  0.00  0.00    +0.168 A 
ATOM      6  N   UNL     1       0.133  -0.888   1.593  0.00  0.00    -0.229 NA
ATOM      7  N   UNL     1       0.083  -3.085   2.640  0.00  0.00    -0.248 N 
ATOM      8  C   UNL     1       0.056  -2.611   3.901  0.00  0.00    +0.218 C 
ATOM      9  O   UNL     1       0.003  -1.415   4.099  0.00  0.00    -0.276 OA
ATOM     10  C   UNL     1       0.090  -3.566   5.067  0.00  0.00    +0.110 C 
ENDROOT
BRANCH   3  11
ATOM     11  C   UNL     1       0.467  -0.406  -2.064  0.00  0.00    +0.279 C 
ATOM     12  O   UNL     1       0.457   0.793  -2.291  0.00  0.00    -0.267 OA
BRANCH  11  13
ATOM     13  N   UNL     1       0.586  -1.279  -3.076  0.00  0.00    -0.142 NA
ATOM     14  C   UNL     1       0.800  -0.840  -4.308  0.00  0.00    +0.199 A 
ATOM     15  N   UNL     1       1.049   0.453  -4.654  0.00  0.00    -0.326 N 
ATOM     16  H   UNL     1       1.101   1.204  -4.043  0.00  0.00    +0.169 HD
ATOM     17  C   UNL     1       1.219   0.510  -6.034  0.00  0.00    +0.065 A 
ATOM     18  C   UNL     1       1.490   1.551  -6.911  0.00  0.00    +0.028 A 
ATOM     19  C   UNL     1       1.607   1.298  -8.263  0.00  0.00    +0.002 A 
ATOM     20  C   UNL     1       1.455   0.010  -8.748  0.00  0.00    +0.002 A 
ATOM     21  C   UNL     1       1.185  -1.032  -7.883  0.00  0.00    +0.028 A 
ATOM     22  C   UNL     1       1.066  -0.789  -6.523  0.00  0.00    +0.065 A 
ATOM     23  N   UNL     1       0.811  -1.612  -5.430  0.00  0.00    -0.326 N 
ATOM     24  H   UNL     1       0.664  -2.570  -5.463  0.00  0.00    +0.169 HD
ENDBRANCH  11  13
ENDBRANCH   3  11
BRANCH   7  25
ATOM     25  C   UNL     1       0.027  -4.529   2.400  0.00  0.00    +0.147 C 
BRANCH  25  26
ATOM     26  C   UNL     1       1.449  -5.092   2.344  0.00  0.00    +0.136 C 
ATOM     27  C   UNL     1       1.405  -6.590   1.971  0.00  0.00    +0.035 C 
ATOM     28  C   UNL     1       2.516  -7.187   2.877  0.00  0.00    +0.031 C 
ATOM     29  C   UNL     1       2.383  -6.292   4.135  0.00  0.00    +0.160 C 
ATOM     30  O   UNL     1       2.066  -4.983   3.632  0.00  0.00    -0.375 OA
ENDBRANCH  25  26
ENDBRANCH   7  25
TORSDOF 4
