REMARK  Name = ZINC49974910
REMARK  8 active torsions:
REMARK  status: ('A' for Active; 'I' for Inactive)
REMARK    1  A    between atoms: C_1  and  C_2
REMARK    2  A    between atoms: C_2  and  C_3
REMARK    3  A    between atoms: C_6  and  C_9
REMARK    4  A    between atoms: C_9  and  C_11
REMARK    5  A    between atoms: C_9  and  N_16
REMARK    6  A    between atoms: N_16  and  C_17
REMARK    7  A    between atoms: C_17  and  C_18
REMARK    8  A    between atoms: C_23  and  C_26
REMARK                            x       y       z     vdW  Elec       q    Type
REMARK                         _______ _______ _______ _____ _____    ______ ____
ROOT
ATOM      1  N   UNL     1       1.983  -2.940   5.356  0.00  0.00    +0.392 N 
ATOM      2  H   UNL     1       1.135  -2.519   5.705  0.00  0.00    -0.084 HD
ATOM      3  H   UNL     1       1.750  -3.670   4.699  0.00  0.00    -0.084 HD
ENDROOT
BRANCH   1   4
ATOM      4  C   UNL     1       2.797  -1.919   4.683  0.00  0.00    -0.003 C 
BRANCH   4   8
ATOM      5  C   UNL     1       0.731  -0.503   1.223  0.00  0.00    -0.048 A 
ATOM      6  C   UNL     1       2.097  -0.710   1.176  0.00  0.00    +0.004 A 
ATOM      7  C   UNL     1       2.766  -1.167   2.296  0.00  0.00    +0.002 A 
ATOM      8  C   UNL     1       2.068  -1.419   3.463  0.00  0.00    -0.057 A 
ATOM      9  C   UNL     1       0.702  -1.212   3.510  0.00  0.00    +0.002 A 
ATOM     10  C   UNL     1       0.034  -0.750   2.391  0.00  0.00    +0.004 A 
BRANCH   5  12
ATOM     11  C   UNL     1      -0.019   1.526   0.010  0.00  0.00    +0.009 C 
ATOM     12  C   UNL     1       0.002  -0.004   0.002  0.00  0.00    +0.032 C 
ENDBRANCH   5  12
ENDBRANCH   4   8
BRANCH   4  13
ATOM     13  C   UNL     1       3.042  -0.770   5.628  0.00  0.00    -0.020 A 
ATOM     14  C   UNL     1       4.170  -0.042   5.811  0.00  0.00    +0.010 A 
ATOM     15  C   UNL     1       4.165   0.978   6.744  0.00  0.00    +0.008 A 
ATOM     16  C   UNL     1       3.032   1.220   7.448  0.00  0.00    +0.045 A 
ATOM     17  S   UNL     1       1.919  -0.012   6.791  0.00  0.00    -0.103 S 
ENDBRANCH   4  13
ENDBRANCH   1   4
BRANCH   1  18
ATOM     18  C   UNL     1       2.742  -3.513   6.475  0.00  0.00    +0.016 C 
BRANCH  18  19
ATOM     19  C   UNL     1       1.907  -4.561   7.165  0.00  0.00    +0.199 C 
ATOM     20  O   UNL     1       0.789  -4.807   6.763  0.00  0.00    -0.278 OA
ATOM     21  N   UNL     1       2.402  -5.225   8.227  0.00  0.00    -0.303 N 
ATOM     22  C   UNL     1       3.752  -4.935   8.729  0.00  0.00    +0.108 C 
ATOM     23  C   UNL     1       4.544  -6.244   8.800  0.00  0.00    +0.032 C 
ATOM     24  C   UNL     1       3.767  -7.261   9.639  0.00  0.00    +0.078 C 
ATOM     25  C   UNL     1       2.418  -7.548   8.975  0.00  0.00    +0.032 C 
ATOM     26  C   UNL     1       1.600  -6.250   8.910  0.00  0.00    +0.108 C 
BRANCH  24  27
ATOM     27  C   UNL     1       4.559  -8.539   9.739  0.00  0.00    +0.214 C 
ATOM     28  O   UNL     1       5.639  -8.628   9.193  0.00  0.00    -0.276 OA
ATOM     29  N   UNL     1       4.068  -9.584  10.435  0.00  0.00    -0.329 N 
ATOM     30  H   UNL     1       3.205  -9.513  10.871  0.00  0.00    +0.145 HD
ATOM     31  H   UNL     1       4.578 -10.406  10.499  0.00  0.00    +0.145 HD
ENDBRANCH  24  27
ENDBRANCH  18  19
ENDBRANCH   1  18
TORSDOF 7
