REMARK  Name = ZINC09739088
REMARK  6 active torsions:
REMARK  status: ('A' for Active; 'I' for Inactive)
REMARK    1  A    between atoms: C_3  and  C_6
REMARK    2  A    between atoms: C_6  and  N_7
REMARK    3  A    between atoms: C_8  and  S_12
REMARK    4  A    between atoms: S_12  and  C_13
REMARK    5  A    between atoms: C_13  and  C_14
REMARK    6  A    between atoms: N_16  and  C_17
REMARK                            x       y       z     vdW  Elec       q    Type
REMARK                         _______ _______ _______ _____ _____    ______ ____
ROOT
ATOM      1  C   UNL     1       1.984   3.586  -0.001  0.00  0.00    +0.228 C 
ATOM      2  O   UNL     1       1.037   4.344   0.019  0.00  0.00    -0.275 OA
ATOM      3  N   UNL     1       3.240   4.076  -0.007  0.00  0.00    -0.284 N 
ATOM      4  H   UNL     1       3.996   3.472   0.058  0.00  0.00    +0.155 HD
ENDROOT
BRANCH   3   5
ATOM      5  C   UNL     1       3.452   5.457  -0.107  0.00  0.00    +0.050 A 
ATOM      6  C   UNL     1       2.492   6.264  -0.700  0.00  0.00    +0.052 A 
ATOM      7  C   UNL     1       2.705   7.630  -0.797  0.00  0.00    +0.069 A 
ATOM      8  C   UNL     1       3.884   8.189  -0.300  0.00  0.00    +0.068 A 
ATOM      9  C   UNL     1       4.840   7.378   0.291  0.00  0.00    +0.045 A 
ATOM     10  C   UNL     1       4.623   6.017   0.392  0.00  0.00    +0.041 A 
ATOM     11 BR   UNL     1       5.924   4.912   1.206  0.00  0.00    -0.048 Br
ATOM     12  N   UNL     1       3.811   9.561  -0.540  0.00  0.00    -0.306 N 
ATOM     13  H   UNL     1       4.487  10.215  -0.304  0.00  0.00    +0.170 HD
ATOM     14  C   UNL     1       2.641   9.822  -1.154  0.00  0.00    +0.325 A 
ATOM     15  O   UNL     1       2.264  10.925  -1.502  0.00  0.00    -0.247 OA
ATOM     16  N   UNL     1       1.952   8.678  -1.323  0.00  0.00    -0.306 N 
ATOM     17  H   UNL     1       1.080   8.597  -1.741  0.00  0.00    +0.170 HD
ENDBRANCH   3   5
BRANCH   1  18
ATOM     18  C   UNL     1       1.756   2.096  -0.018  0.00  0.00    +0.173 C 
BRANCH  18  19
ATOM     19  S   UNL     1      -0.021   1.757  -0.004  0.00  0.00    -0.075 S 
BRANCH  19  21
ATOM     20  N   UNL     1      -1.075  -0.824  -0.023  0.00  0.00    -0.215 N 
ATOM     21  C   UNL     1       0.003  -0.004  -0.028  0.00  0.00    +0.210 A 
ATOM     22  N   UNL     1       1.071  -0.771  -0.049  0.00  0.00    -0.101 NA
ATOM     23  N   UNL     1       0.735  -2.011  -0.063  0.00  0.00    -0.022 NA
ATOM     24  N   UNL     1      -0.548  -2.127  -0.051  0.00  0.00    -0.043 NA
BRANCH  20  25
ATOM     25  C   UNL     1      -2.488  -0.436   0.004  0.00  0.00    +0.190 C 
BRANCH  25  28
ATOM     26  C   UNL     1      -3.954  -0.842  -3.488  0.00  0.00    +0.008 A 
ATOM     27  C   UNL     1      -3.560  -1.212  -2.215  0.00  0.00    +0.013 A 
ATOM     28  C   UNL     1      -2.994  -0.283  -1.407  0.00  0.00    +0.011 A 
ATOM     29  S   UNL     1      -3.011   1.170  -2.444  0.00  0.00    -0.100 S 
ATOM     30  C   UNL     1      -3.763   0.439  -3.889  0.00  0.00    +0.045 A 
ENDBRANCH  25  28
ENDBRANCH  20  25
ENDBRANCH  19  21
ENDBRANCH  18  19
ENDBRANCH   1  18
TORSDOF 6
