REMARK  Name = ZINC39352933
REMARK  6 active torsions:
REMARK  status: ('A' for Active; 'I' for Inactive)
REMARK    1  A    between atoms: C_1  and  C_2
REMARK    2  A    between atoms: C_2  and  N_3
REMARK    3  A    between atoms: C_4  and  C_24
REMARK    4  A    between atoms: C_8  and  S_10
REMARK    5  A    between atoms: S_10  and  C_11
REMARK    6  A    between atoms: C_11  and  C_12
REMARK                            x       y       z     vdW  Elec       q    Type
REMARK                         _______ _______ _______ _____ _____    ______ ____
ROOT
ATOM      1  N   UNL     1      -1.318  -0.514   0.015  0.00  0.00    +0.410 N 
ATOM      2  C   UNL     1      -1.387  -1.992  -0.141  0.00  0.00    +0.049 C 
ATOM      3  N   UNL     1      -2.704  -2.325   0.460  0.00  0.00    -0.267 NA
ATOM      4  N   UNL     1      -2.825  -1.419   1.606  0.00  0.00    -0.262 NA
ATOM      5  C   UNL     1      -1.949  -0.262   1.330  0.00  0.00    +0.077 C 
ATOM      6  H   UNL     1      -3.452  -2.175  -0.200  0.00  0.00    +0.139 HD
ATOM      7  H   UNL     1      -2.555  -1.881   2.462  0.00  0.00    +0.140 HD
ATOM      8  H   UNL     1      -1.835  -0.055  -0.720  0.00  0.00    -0.075 HD
ENDROOT
BRANCH   2   9
ATOM      9  C   UNL     1      -1.348  -2.377  -1.598  0.00  0.00    -0.046 A 
ATOM     10  C   UNL     1      -0.365  -3.232  -2.061  0.00  0.00    +0.003 A 
ATOM     11  C   UNL     1      -0.330  -3.586  -3.396  0.00  0.00    +0.000 A 
ATOM     12  C   UNL     1      -1.277  -3.084  -4.270  0.00  0.00    +0.000 A 
ATOM     13  C   UNL     1      -2.260  -2.230  -3.807  0.00  0.00    +0.000 A 
ATOM     14  C   UNL     1      -2.298  -1.880  -2.470  0.00  0.00    +0.003 A 
ENDBRANCH   2   9
BRANCH   1  16
ATOM     15  C   UNL     1       0.123   1.460   0.171  0.00  0.00    -0.017 C 
ATOM     16  C   UNL     1       0.080  -0.062   0.019  0.00  0.00    -0.076 C 
ENDBRANCH   1  16
BRANCH   5  17
ATOM     17  S   UNL     1      -2.934   1.260   1.266  0.00  0.00    -0.152 S 
BRANCH  17  18
ATOM     18  C   UNL     1      -4.166   0.932  -0.024  0.00  0.00    +0.143 C 
BRANCH  18  19
ATOM     19  C   UNL     1      -5.061   2.134  -0.182  0.00  0.00    +0.120 A 
ATOM     20  N   UNL     1      -6.058   2.079  -1.103  0.00  0.00    -0.310 N 
ATOM     21  H   UNL     1      -6.175   1.277  -1.637  0.00  0.00    +0.170 HD
ATOM     22  C   UNL     1      -6.889   3.132  -1.283  0.00  0.00    +0.259 A 
ATOM     23  O   UNL     1      -7.787   3.096  -2.104  0.00  0.00    -0.267 OA
ATOM     24  C   UNL     1      -6.666   4.320  -0.447  0.00  0.00    +0.065 A 
ATOM     25  C   UNL     1      -7.465   5.457  -0.553  0.00  0.00    +0.015 A 
ATOM     26  C   UNL     1      -7.211   6.543   0.255  0.00  0.00    +0.001 A 
ATOM     27  C   UNL     1      -6.168   6.513   1.172  0.00  0.00    +0.002 A 
ATOM     28  C   UNL     1      -5.367   5.400   1.292  0.00  0.00    +0.028 A 
ATOM     29  C   UNL     1      -5.604   4.286   0.484  0.00  0.00    +0.078 A 
ATOM     30  N   UNL     1      -4.843   3.167   0.574  0.00  0.00    -0.233 NA
ENDBRANCH  18  19
ENDBRANCH  17  18
ENDBRANCH   5  17
TORSDOF 5
