REMARK  Name = ZINC02316335
REMARK  10 active torsions:
REMARK  status: ('A' for Active; 'I' for Inactive)
REMARK    1  A    between atoms: C_1  and  C_2
REMARK    2  A    between atoms: C_2  and  N_54
REMARK    3  A    between atoms: C_8  and  N_13
REMARK    4  A    between atoms: C_9  and  C_10
REMARK    5  A    between atoms: N_13  and  C_14
REMARK    6  A    between atoms: C_14  and  N_16
REMARK    7  A    between atoms: C_17  and  C_19
REMARK    8  A    between atoms: C_20  and  C_21
REMARK    9  A    between atoms: C_24  and  O_27
REMARK   10  A    between atoms: O_27  and  C_28
REMARK                            x       y       z     vdW  Elec       q    Type
REMARK                         _______ _______ _______ _____ _____    ______ ____
ROOT
ATOM      1  N   UNL     1      -2.389   4.121   0.036  0.00  0.00    -0.291 N 
ATOM      2  H   UNL     1      -3.222   3.624   0.037  0.00  0.00    +0.154 HD
ENDROOT
BRANCH   1   8
ATOM      3  C   UNL     1      -3.691  10.174   0.517  0.00  0.00    -0.074 C 
ATOM      4  C   UNL     1      -4.332   8.856   0.074  0.00  0.00    +0.018 C 
ATOM      5  C   UNL     1      -3.251   7.782   0.060  0.00  0.00    -0.027 A 
ATOM      6  C   UNL     1      -1.945   8.134   0.055  0.00  0.00    -0.021 A 
ATOM      7  S   UNL     1      -1.064   6.601   0.042  0.00  0.00    -0.079 S 
ATOM      8  C   UNL     1      -2.407   5.506   0.043  0.00  0.00    +0.084 A 
ATOM      9  C   UNL     1      -3.507   6.354   0.048  0.00  0.00    +0.068 A 
ATOM     10  C   UNL     1      -1.401   9.529   0.058  0.00  0.00    -0.035 C 
ATOM     11  N   UNL     1      -2.504  10.447  -0.319  0.00  0.00    +0.383 N 
ATOM     12  H   UNL     1      -2.746  10.291  -1.304  0.00  0.00    -0.081 HD
BRANCH   9  13
ATOM     13  C   UNL     1      -4.875   5.827   0.043  0.00  0.00    +0.244 C 
ATOM     14  O   UNL     1      -5.444   5.602   1.095  0.00  0.00    -0.270 OA
ATOM     15  N   UNL     1      -5.503   5.591  -1.126  0.00  0.00    -0.325 N 
ATOM     16  H   UNL     1      -5.049   5.770  -1.965  0.00  0.00    +0.145 HD
ATOM     17  H   UNL     1      -6.408   5.242  -1.129  0.00  0.00    +0.145 HD
ENDBRANCH   9  13
BRANCH  11  19
ATOM     18  C   UNL     1      -1.806  12.149   1.331  0.00  0.00    -0.017 C 
ATOM     19  C   UNL     1      -2.074  11.851  -0.145  0.00  0.00    -0.082 C 
ENDBRANCH  11  19
ENDBRANCH   1   8
BRANCH   1  20
ATOM     20  C   UNL     1      -1.212   3.463   0.027  0.00  0.00    +0.141 C 
ATOM     21  S   UNL     1       0.259   4.339   0.024  0.00  0.00    -0.018 S 
BRANCH  20  22
ATOM     22  N   UNL     1      -1.194   2.115   0.019  0.00  0.00    -0.264 N 
ATOM     23  C   UNL     1      -0.018   1.457   0.010  0.00  0.00    +0.242 C 
ATOM     24  O   UNL     1       1.028   2.080   0.003  0.00  0.00    -0.270 OA
ATOM     25  H   UNL     1      -2.027   1.619   0.021  0.00  0.00    +0.157 HD
BRANCH  23  26
ATOM     26  C   UNL     1       0.002  -0.004   0.002  0.00  0.00    +0.068 C 
ATOM     27  C   UNL     1       1.181  -0.663  -0.013  0.00  0.00    +0.013 C 
BRANCH  27  28
ATOM     28  C   UNL     1       1.201  -2.133  -0.021  0.00  0.00    -0.025 A 
ATOM     29  C   UNL     1      -0.001  -2.852  -0.007  0.00  0.00    +0.011 A 
ATOM     30  C   UNL     1       0.024  -4.228  -0.021  0.00  0.00    +0.046 A 
ATOM     31  C   UNL     1       1.238  -4.904  -0.037  0.00  0.00    +0.120 A 
ATOM     32  C   UNL     1       2.434  -4.195  -0.044  0.00  0.00    +0.046 A 
ATOM     33  C   UNL     1       2.421  -2.819  -0.036  0.00  0.00    +0.011 A 
BRANCH  31  34
ATOM     34  O   UNL     1       1.257  -6.261  -0.044  0.00  0.00    -0.495 OA
ATOM     35  C   UNL     1      -0.008  -6.927  -0.036  0.00  0.00    +0.277 C 
ENDBRANCH  31  34
ENDBRANCH  27  28
ENDBRANCH  23  26
ENDBRANCH  20  22
ENDBRANCH   1  20
TORSDOF 8
