REMARK  Name = ZINC08829034
REMARK  11 active torsions:
REMARK  status: ('A' for Active; 'I' for Inactive)
REMARK    1  A    between atoms: C_1  and  C_2
REMARK    2  A    between atoms: C_5  and  C_36
REMARK    3  A    between atoms: C_9  and  C_13
REMARK    4  A    between atoms: C_10  and  O_12
REMARK    5  A    between atoms: C_13  and  C_15
REMARK    6  A    between atoms: C_13  and  N_67
REMARK    7  A    between atoms: N_19  and  C_20
REMARK    8  A    between atoms: C_20  and  C_21
REMARK    9  A    between atoms: C_20  and  C_22
REMARK   10  A    between atoms: C_20  and  C_23
REMARK   11  A    between atoms: C_26  and  C_29
REMARK                            x       y       z     vdW  Elec       q    Type
REMARK                         _______ _______ _______ _____ _____    ______ ____
ROOT
ATOM      1  C   UNL     1       0.777   2.134  -3.011  0.00  0.00    +0.039 C 
ENDROOT
BRANCH   1  10
ATOM      2  C   UNL     1      -1.827   5.803  -5.604  0.00  0.00    +0.044 C 
ATOM      3  C   UNL     1      -1.266   4.830  -6.609  0.00  0.00    -0.041 A 
ATOM      4  C   UNL     1      -1.489   5.016  -7.940  0.00  0.00    +0.004 A 
ATOM      5  C   UNL     1      -0.976   4.126  -8.881  0.00  0.00    +0.006 A 
ATOM      6  C   UNL     1      -0.240   3.047  -8.499  0.00  0.00    -0.024 A 
ATOM      7  C   UNL     1       0.011   2.822  -7.135  0.00  0.00    +0.078 A 
ATOM      8  C   UNL     1      -0.511   3.728  -6.179  0.00  0.00    +0.004 A 
ATOM      9  C   UNL     1      -0.259   3.502  -4.811  0.00  0.00    +0.018 A 
ATOM     10  C   UNL     1       0.482   2.413  -4.463  0.00  0.00    +0.008 A 
ATOM     11  C   UNL     1       0.975   1.557  -5.455  0.00  0.00    +0.215 A 
ATOM     12  N   UNL     1       0.732   1.770  -6.731  0.00  0.00    -0.213 NA
ATOM     13  C   UNL     1       0.305   2.097  -9.534  0.00  0.00    +0.046 C 
BRANCH  11  14
ATOM     14  O   UNL     1       1.715   0.481  -5.093  0.00  0.00    -0.492 OA
ATOM     15  H   UNL     1       1.192  -0.306  -4.890  0.00  0.00    +0.294 HD
ENDBRANCH  11  14
ENDBRANCH   1  10
BRANCH   1  21
ATOM     16  C   UNL     1      -0.015   2.485  -0.748  0.00  0.00    -0.072 C 
ATOM     17  C   UNL     1      -0.984   3.343   0.070  0.00  0.00    +0.017 C 
ATOM     18  C   UNL     1      -2.392   3.119  -0.422  0.00  0.00    -0.048 C 
ATOM     19  C   UNL     1      -2.660   2.560  -1.581  0.00  0.00    -0.041 C 
ATOM     20  C   UNL     1      -1.595   2.085  -2.527  0.00  0.00    -0.049 C 
ATOM     21  N   UNL     1      -0.304   2.708  -2.179  0.00  0.00    +0.392 N 
ATOM     22  H   UNL     1      -0.361   3.718  -2.356  0.00  0.00    -0.080 HD
BRANCH  18  23
ATOM     23  C   UNL     1      -3.517   3.545   0.437  0.00  0.00    -0.022 A 
ATOM     24  C   UNL     1      -3.708   4.897   0.722  0.00  0.00    +0.011 A 
ATOM     25  C   UNL     1      -4.763   5.289   1.519  0.00  0.00    +0.039 A 
ATOM     26  C   UNL     1      -5.626   4.342   2.046  0.00  0.00    +0.123 A 
ATOM     27  C   UNL     1      -5.437   2.997   1.771  0.00  0.00    +0.039 A 
ATOM     28  C   UNL     1      -4.389   2.594   0.970  0.00  0.00    +0.011 A 
ATOM     29  F   UNL     1      -6.655   4.731   2.830  0.00  0.00    -0.205 F 
ENDBRANCH  18  23
ENDBRANCH   1  21
BRANCH   1  30
ATOM     30  C   UNL     1       2.085   2.778  -2.631  0.00  0.00    +0.143 A 
ATOM     31  N   UNL     1       2.444   4.017  -2.863  0.00  0.00    -0.115 NA
ATOM     32  N   UNL     1       3.629   4.184  -2.386  0.00  0.00    -0.023 NA
ATOM     33  N   UNL     1       4.036   3.083  -1.856  0.00  0.00    -0.043 NA
ATOM     34  N   UNL     1       3.110   2.194  -1.982  0.00  0.00    -0.225 N 
BRANCH  34  35
ATOM     35  C   UNL     1       3.165   0.808  -1.512  0.00  0.00    +0.059 C 
ATOM     36  C   UNL     1       3.147  -0.140  -2.712  0.00  0.00    +0.036 C 
ATOM     37  C   UNL     1       4.450   0.592  -0.710  0.00  0.00    +0.036 C 
ATOM     38  C   UNL     1       1.954   0.523  -0.620  0.00  0.00    +0.036 C 
ENDBRANCH  34  35
ENDBRANCH   1  30
TORSDOF 6
