REMARK  Name = ZINC08876775
REMARK  12 active torsions:
REMARK  status: ('A' for Active; 'I' for Inactive)
REMARK    1  A    between atoms: C_1  and  C_2
REMARK    2  A    between atoms: C_4  and  C_34
REMARK    3  A    between atoms: C_9  and  C_18
REMARK    4  A    between atoms: C_12  and  C_14
REMARK    5  A    between atoms: C_14  and  C_15
REMARK    6  A    between atoms: C_15  and  S_16
REMARK    7  A    between atoms: S_16  and  C_17
REMARK    8  A    between atoms: N_20  and  C_21
REMARK    9  A    between atoms: C_23  and  O_29
REMARK   10  A    between atoms: C_26  and  O_27
REMARK   11  A    between atoms: O_27  and  C_28
REMARK   12  A    between atoms: O_29  and  C_30
REMARK                            x       y       z     vdW  Elec       q    Type
REMARK                         _______ _______ _______ _____ _____    ______ ____
ROOT
ATOM      1  C   UNL     1      -7.299  -3.573   0.459  0.00  0.00    +0.044 C 
ATOM      2  C   UNL     1      -7.685  -2.117   0.435  0.00  0.00    -0.050 A 
ATOM      3  C   UNL     1      -8.692  -1.680  -0.406  0.00  0.00    +0.008 A 
ATOM      4  C   UNL     1      -9.051  -0.348  -0.430  0.00  0.00    -0.029 A 
ATOM      5  C   UNL     1      -8.399   0.568   0.392  0.00  0.00    +0.039 A 
ATOM      6  C   UNL     1      -7.386   0.117   1.232  0.00  0.00    -0.027 A 
ATOM      7  C   UNL     1      -7.032  -1.213   1.254  0.00  0.00    +0.008 A 
ATOM      8  C   UNL     1      -6.892   1.330   1.974  0.00  0.00    +0.049 C 
ATOM      9  C   UNL     1      -7.069   1.161   3.487  0.00  0.00    +0.076 C 
ATOM     10  C   UNL     1      -5.641   1.293   4.071  0.00  0.00    -0.004 C 
ATOM     11  C   UNL     1      -4.738   0.959   2.857  0.00  0.00    -0.068 C 
ATOM     12  C   UNL     1      -7.734   2.467   1.456  0.00  0.00    +0.211 C 
ATOM     13  O   UNL     1      -7.665   3.630   1.793  0.00  0.00    -0.277 OA
ATOM     14  N   UNL     1      -8.577   1.944   0.546  0.00  0.00    -0.286 N 
ATOM     15  C   UNL     1     -10.151   0.117  -1.349  0.00  0.00    +0.045 C 
ATOM     16  H   UNL     1      -9.233   2.463   0.055  0.00  0.00    +0.155 HD
ATOM     17  N   UNL     1      -5.472   1.552   1.729  0.00  0.00    +0.394 N 
ATOM     18  H   UNL     1      -5.278   2.559   1.674  0.00  0.00    -0.083 HD
ATOM     19  H   UNL     1      -5.192   1.101   0.851  0.00  0.00    -0.083 HD
ENDROOT
BRANCH   9  20
ATOM     20  C   UNL     1      -7.639  -0.199   3.800  0.00  0.00    +0.220 C 
ATOM     21  O   UNL     1      -6.897  -1.125   4.048  0.00  0.00    -0.275 OA
ATOM     22  N   UNL     1      -8.974  -0.385   3.802  0.00  0.00    -0.282 N 
ATOM     23  H   UNL     1      -9.565   0.333   3.524  0.00  0.00    +0.155 HD
BRANCH  22  24
ATOM     24  C   UNL     1      -9.509  -1.615   4.207  0.00  0.00    +0.079 A 
ATOM     25  C   UNL     1      -8.748  -2.485   4.974  0.00  0.00    +0.072 A 
ATOM     26  C   UNL     1      -9.282  -3.699   5.378  0.00  0.00    +0.122 A 
ATOM     27  C   UNL     1     -10.571  -4.049   5.005  0.00  0.00    +0.049 A 
ATOM     28  C   UNL     1     -11.329  -3.187   4.235  0.00  0.00    +0.051 A 
ATOM     29  C   UNL     1     -10.803  -1.970   3.834  0.00  0.00    +0.141 A 
BRANCH  29  30
ATOM     30  O   UNL     1     -11.550  -1.121   3.077  0.00  0.00    -0.493 OA
ATOM     31  C   UNL     1     -12.869  -1.550   2.732  0.00  0.00    +0.277 C 
ENDBRANCH  29  30
BRANCH  26  32
ATOM     32  O   UNL     1      -8.539  -4.549   6.136  0.00  0.00    -0.495 OA
ATOM     33  C   UNL     1      -9.150  -5.785   6.511  0.00  0.00    +0.277 C 
ENDBRANCH  26  32
ENDBRANCH  22  24
ENDBRANCH   9  20
BRANCH  11  34
ATOM     34  C   UNL     1      -3.356   1.596   3.021  0.00  0.00    -0.005 C 
BRANCH  34  35
ATOM     35  C   UNL     1      -2.466   1.193   1.844  0.00  0.00    +0.067 C 
BRANCH  35  36
ATOM     36  S   UNL     1      -0.828   1.948   2.038  0.00  0.00    -0.164 S 
ATOM     37  C   UNL     1       0.093   1.381   0.582  0.00  0.00    +0.084 C 
ENDBRANCH  35  36
ENDBRANCH  34  35
ENDBRANCH  11  34
TORSDOF 7
