REMARK  Name = ZINC20465480
REMARK  9 active torsions:
REMARK  status: ('A' for Active; 'I' for Inactive)
REMARK    1  A    between atoms: C_3  and  C_33
REMARK    2  A    between atoms: C_5  and  N_7
REMARK    3  A    between atoms: N_10  and  C_13
REMARK    4  A    between atoms: C_15  and  C_25
REMARK    5  A    between atoms: C_18  and  C_23
REMARK    6  A    between atoms: C_20  and  O_22
REMARK    7  A    between atoms: C_23  and  O_24
REMARK    8  A    between atoms: C_25  and  N_26
REMARK    9  A    between atoms: N_26  and  C_27
REMARK                            x       y       z     vdW  Elec       q    Type
REMARK                         _______ _______ _______ _____ _____    ______ ____
ROOT
ATOM      1  C   UNL     1      -3.050   1.474  -2.254  0.00  0.00    +0.115 C 
ATOM      2  C   UNL     1      -2.152   0.892  -1.139  0.00  0.00    +0.122 C 
ATOM      3  O   UNL     1      -2.768   1.325   0.094  0.00  0.00    -0.369 OA
ATOM      4  C   UNL     1      -4.189   1.183  -0.120  0.00  0.00    +0.174 C 
ATOM      5  C   UNL     1      -4.421   1.669  -1.568  0.00  0.00    +0.165 C 
ENDROOT
BRANCH   1   9
ATOM      6  N   UNL     1      -2.628   5.556  -3.255  0.00  0.00    -0.327 N 
ATOM      7  C   UNL     1      -2.687   4.581  -4.352  0.00  0.00    +0.120 C 
ATOM      8  C   UNL     1      -3.316   3.282  -3.843  0.00  0.00    +0.104 C 
ATOM      9  N   UNL     1      -2.521   2.762  -2.722  0.00  0.00    -0.292 NA
ATOM     10  C   UNL     1      -2.462   3.737  -1.624  0.00  0.00    +0.104 C 
ATOM     11  C   UNL     1      -1.833   5.037  -2.133  0.00  0.00    +0.120 C 
BRANCH   6  16
ATOM     12  C   UNL     1      -1.260   8.152  -5.467  0.00  0.00    +0.002 A 
ATOM     13  C   UNL     1      -1.126   9.206  -4.581  0.00  0.00    +0.012 A 
ATOM     14  C   UNL     1      -1.490   9.051  -3.256  0.00  0.00    +0.057 A 
ATOM     15  C   UNL     1      -1.989   7.841  -2.813  0.00  0.00    +0.035 A 
ATOM     16  C   UNL     1      -2.125   6.781  -3.700  0.00  0.00    +0.030 A 
ATOM     17  C   UNL     1      -1.753   6.939  -5.029  0.00  0.00    +0.023 A 
BRANCH  14  18
ATOM     18  C   UNL     1      -1.343  10.202  -2.295  0.00  0.00    +0.417 C 
ATOM     19  F   UNL     1      -0.073  10.160  -1.708  0.00  0.00    -0.166 F 
ATOM     20  F   UNL     1      -1.497  11.409  -2.986  0.00  0.00    -0.166 F 
ATOM     21  F   UNL     1      -2.320  10.106  -1.299  0.00  0.00    -0.166 F 
ENDBRANCH  14  18
ENDBRANCH   6  16
ENDBRANCH   1   9
BRANCH   5  22
ATOM     22  O   UNL     1      -4.796   3.048  -1.581  0.00  0.00    -0.388 OA
ATOM     23  H   UNL     1      -5.749   3.364  -1.132  0.00  0.00    +0.210 HD
ENDBRANCH   5  22
BRANCH   4  24
ATOM     24  C   UNL     1      -4.968   2.055   0.866  0.00  0.00    +0.190 C 
BRANCH  24  25
ATOM     25  O   UNL     1      -4.834   1.519   2.184  0.00  0.00    -0.392 OA
ATOM     26  H   UNL     1      -5.329   2.015   3.033  0.00  0.00    +0.210 HD
ENDBRANCH  24  25
ENDBRANCH   4  24
BRANCH   2  27
ATOM     27  C   UNL     1      -0.733   1.453  -1.252  0.00  0.00    -0.049 C 
BRANCH  27  28
ATOM     28  N   UNL     1       0.139   0.776  -0.283  0.00  0.00    +0.383 N 
ATOM     29  H   UNL     1      -0.242   0.944   0.735  0.00  0.00    -0.085 HD
ATOM     30  H   UNL     1       0.154  -0.303  -0.495  0.00  0.00    -0.085 HD
BRANCH  28  31
ATOM     31  C   UNL     1       1.513   1.290  -0.363  0.00  0.00    -0.072 C 
ATOM     32  C   UNL     1       2.272   0.549  -1.466  0.00  0.00    -0.016 C 
ATOM     33  C   UNL     1       3.703   1.085  -1.548  0.00  0.00    -0.002 C 
ATOM     34  C   UNL     1       4.407   0.865  -0.208  0.00  0.00    -0.000 C 
ATOM     35  C   UNL     1       3.649   1.606   0.895  0.00  0.00    -0.002 C 
ATOM     36  C   UNL     1       2.218   1.070   0.977  0.00  0.00    -0.016 C 
ENDBRANCH  28  31
ENDBRANCH  27  28
ENDBRANCH   2  27
TORSDOF 9
