REMARK  Name = ZINC39326564
REMARK  7 active torsions:
REMARK  status: ('A' for Active; 'I' for Inactive)
REMARK    1  A    between atoms: C_1  and  C_2
REMARK    2  A    between atoms: C_7  and  N_8
REMARK    3  A    between atoms: C_9  and  C_11
REMARK    4  A    between atoms: N_17  and  N_18
REMARK    5  A    between atoms: C_19  and  C_20
REMARK    6  A    between atoms: C_19  and  C_22
REMARK    7  A    between atoms: N_24  and  C_25
REMARK                            x       y       z     vdW  Elec       q    Type
REMARK                         _______ _______ _______ _____ _____    ______ ____
ROOT
ATOM      1  C   UNL     1       0.426  -0.122   4.931  0.00  0.00    +0.226 C 
ATOM      2  C   UNL     1      -0.998   0.147   5.379  0.00  0.00    +0.160 C 
ATOM      3  N   UNL     1      -1.155  -0.546   6.506  0.00  0.00    -0.335 N 
ATOM      4  C   UNL     1      -0.077  -1.203   6.844  0.00  0.00    +0.157 C 
ATOM      5  N   UNL     1       0.941  -1.025   5.976  0.00  0.00    -0.319 N 
ATOM      6  N   UNL     1      -1.898   0.912   4.776  0.00  0.00    -0.132 NA
ATOM      7  H   UNL     1       1.829  -1.413   6.027  0.00  0.00    +0.148 HD
ATOM      8  H   UNL     1      -1.978  -0.560   7.019  0.00  0.00    +0.168 HD
ENDROOT
BRANCH   1  10
ATOM      9  N   UNL     1       0.239  -0.078   2.465  0.00  0.00    -0.283 N 
ATOM     10  C   UNL     1       0.442  -0.799   3.585  0.00  0.00    +0.245 C 
ATOM     11  O   UNL     1       0.638  -1.994   3.510  0.00  0.00    -0.273 OA
ATOM     12  H   UNL     1       0.166   0.888   2.517  0.00  0.00    +0.155 HD
BRANCH   9  19
ATOM     13  C   UNL     1       1.244   1.262   0.164  0.00  0.00    +0.045 C 
ATOM     14  C   UNL     1       0.612  -0.104   0.079  0.00  0.00    -0.029 A 
ATOM     15  C   UNL     1       0.513  -0.745  -1.141  0.00  0.00    +0.005 A 
ATOM     16  C   UNL     1      -0.066  -1.998  -1.220  0.00  0.00    +0.000 A 
ATOM     17  C   UNL     1      -0.547  -2.614  -0.079  0.00  0.00    +0.002 A 
ATOM     18  C   UNL     1      -0.451  -1.978   1.144  0.00  0.00    +0.023 A 
ATOM     19  C   UNL     1       0.135  -0.722   1.227  0.00  0.00    +0.036 A 
ENDBRANCH   9  19
ENDBRANCH   1  10
BRANCH   6  20
ATOM     20  N   UNL     1      -3.043   1.121   5.332  0.00  0.00    -0.132 NA
ATOM     21  C   UNL     1      -3.977   1.801   4.687  0.00  0.00    +0.223 C 
BRANCH  21  22
ATOM     22  C   UNL     1      -3.752   2.221   3.296  0.00  0.00    +0.275 C 
ATOM     23  O   UNL     1      -2.750   1.863   2.707  0.00  0.00    -0.268 OA
ATOM     24  N   UNL     1      -4.657   3.003   2.674  0.00  0.00    -0.313 N 
ATOM     25  C   UNL     1      -4.490   3.330   1.255  0.00  0.00    +0.128 C 
ATOM     26  H   UNL     1      -5.419   3.349   3.164  0.00  0.00    +0.149 HD
ENDBRANCH  21  22
BRANCH  21  27
ATOM     27  C   UNL     1      -5.206   2.129   5.345  0.00  0.00    +0.126 C 
ATOM     28  N   UNL     1      -6.182   2.389   5.866  0.00  0.00    -0.189 NA
ENDBRANCH  21  27
ENDBRANCH   6  20
TORSDOF 5
