REMARK  Name = ZINC33027883
REMARK  4 active torsions:
REMARK  status: ('A' for Active; 'I' for Inactive)
REMARK    1  A    between atoms: C_6  and  C_7
REMARK    2  A    between atoms: C_9  and  C_13
REMARK    3  A    between atoms: C_16  and  C_25
REMARK    4  A    between atoms: C_16  and  O_29
REMARK                            x       y       z     vdW  Elec       q    Type
REMARK                         _______ _______ _______ _____ _____    ______ ____
ROOT
ATOM      1  C   UNL     1       2.665  -5.510  -0.015  0.00  0.00    +0.286 C 
ATOM      2  O   UNL     1       3.877  -5.408  -0.019  0.00  0.00    -0.266 OA
ATOM      3  N   UNL     1       2.092  -6.729  -0.037  0.00  0.00    -0.147 N 
ATOM      4  C   UNL     1       2.809  -8.017  -0.074  0.00  0.00    +0.259 C 
ATOM      5  C   UNL     1       1.679  -9.044  -0.219  0.00  0.00    +0.096 C 
ATOM      6  C   UNL     1       1.658 -10.056   0.930  0.00  0.00    +0.014 C 
ATOM      7  C   UNL     1       0.338 -10.830   0.871  0.00  0.00    +0.001 C 
ATOM      8  C   UNL     1      -0.852  -9.909   1.129  0.00  0.00    +0.006 C 
ATOM      9  C   UNL     1      -0.950  -8.850   0.037  0.00  0.00    +0.053 C 
ATOM     10  C   UNL     1       0.415  -8.207  -0.091  0.00  0.00    +0.045 C 
ATOM     11  N   UNL     1       0.719  -6.983  -0.036  0.00  0.00    -0.183 NA
ENDROOT
BRANCH   1  14
ATOM     12  C   UNL     1       1.092  -2.211   0.061  0.00  0.00    +0.093 A 
ATOM     13  C   UNL     1       2.262  -2.991   0.034  0.00  0.00    +0.062 A 
ATOM     14  C   UNL     1       1.825  -4.302   0.015  0.00  0.00    +0.123 A 
ATOM     15  N   UNL     1       0.460  -4.255   0.023  0.00  0.00    -0.272 N 
ATOM     16  H   UNL     1      -0.123  -5.189   0.007  0.00  0.00    +0.189 HD
ATOM     17  N   UNL     1       0.065  -3.034   0.050  0.00  0.00    -0.173 NA
BRANCH  12  23
ATOM     18  C   UNL     1      -0.207  -0.082   0.112  0.00  0.00    +0.011 A 
ATOM     19  C   UNL     1      -0.262   1.296   0.141  0.00  0.00    +0.016 A 
ATOM     20  C   UNL     1       0.906   2.038   0.150  0.00  0.00    +0.018 A 
ATOM     21  C   UNL     1       2.135   1.401   0.130  0.00  0.00    +0.016 A 
ATOM     22  C   UNL     1       2.201   0.023   0.101  0.00  0.00    +0.011 A 
ATOM     23  C   UNL     1       1.027  -0.728   0.092  0.00  0.00    +0.002 A 
ATOM     24 BR   UNL     1       0.824   3.926   0.189  0.00  0.00    -0.050 Br
ENDBRANCH  12  23
ENDBRANCH   1  14
BRANCH   4  25
ATOM     25  C   UNL     1       3.578  -8.244   1.230  0.00  0.00    +0.438 C 
ATOM     26  F   UNL     1       2.707  -8.103   2.315  0.00  0.00    -0.166 F 
ATOM     27  F   UNL     1       4.121  -9.533   1.232  0.00  0.00    -0.166 F 
ATOM     28  F   UNL     1       4.608  -7.303   1.334  0.00  0.00    -0.166 F 
ENDBRANCH   4  25
BRANCH   4  29
ATOM     29  O   UNL     1       3.691  -8.071  -1.197  0.00  0.00    -0.363 OA
ATOM     30  H   UNL     1       4.305  -8.968  -1.372  0.00  0.00    +0.212 HD
ENDBRANCH   4  29
TORSDOF 4
