REMARK  Name = ZINC03090234
REMARK  11 active torsions:
REMARK  status: ('A' for Active; 'I' for Inactive)
REMARK    1  A    between atoms: C_1  and  C_2
REMARK    2  A    between atoms: C_2  and  O_3
REMARK    3  A    between atoms: O_3  and  C_4
REMARK    4  A    between atoms: C_6  and  C_20
REMARK    5  A    between atoms: C_9  and  O_10
REMARK    6  A    between atoms: O_10  and  C_11
REMARK    7  A    between atoms: C_11  and  C_13
REMARK    8  A    between atoms: N_21  and  N_22
REMARK    9  A    between atoms: C_23  and  C_25
REMARK   10  A    between atoms: C_25  and  N_26
REMARK   11  A    between atoms: N_26  and  C_27
REMARK                            x       y       z     vdW  Elec       q    Type
REMARK                         _______ _______ _______ _____ _____    ______ ____
ROOT
ATOM      1  C   UNL     1       3.512   1.641   0.025  0.00  0.00    +0.163 A 
ATOM      2  C   UNL     1       4.622   0.817   0.003  0.00  0.00    +0.059 A 
ATOM      3  C   UNL     1       4.457  -0.569  -0.063  0.00  0.00    -0.002 A 
ATOM      4  C   UNL     1       3.172  -1.116  -0.107  0.00  0.00    +0.013 A 
ATOM      5  C   UNL     1       2.070  -0.288  -0.081  0.00  0.00    +0.051 A 
ATOM      6  C   UNL     1       2.233   1.089  -0.020  0.00  0.00    +0.173 A 
ENDROOT
BRANCH   3   7
ATOM      7  C   UNL     1       5.638  -1.453  -0.086  0.00  0.00    +0.138 C 
ATOM      8  N   UNL     1       5.483  -2.740  -0.148  0.00  0.00    -0.188 NA
BRANCH   8   9
ATOM      9  N   UNL     1       6.605  -3.579  -0.169  0.00  0.00    -0.206 N 
ATOM     10  C   UNL     1       6.444  -4.916  -0.233  0.00  0.00    +0.249 C 
ATOM     11  O   UNL     1       5.329  -5.392  -0.272  0.00  0.00    -0.272 OA
ATOM     12  H   UNL     1       7.496  -3.199  -0.139  0.00  0.00    +0.177 HD
BRANCH  10  13
ATOM     13  C   UNL     1       7.651  -5.819  -0.257  0.00  0.00    +0.199 C 
BRANCH  13  14
ATOM     14  N   UNL     1       7.214  -7.216  -0.328  0.00  0.00    -0.335 N 
ATOM     15  H   UNL     1       6.267  -7.427  -0.351  0.00  0.00    +0.147 HD
BRANCH  14  16
ATOM     16  C   UNL     1       8.160  -8.242  -0.360  0.00  0.00    +0.028 A 
ATOM     17  C   UNL     1       9.524  -7.929  -0.331  0.00  0.00    +0.023 A 
ATOM     18  C   UNL     1      10.466  -8.908  -0.356  0.00  0.00    +0.010 A 
ATOM     19  C   UNL     1      10.074 -10.256  -0.424  0.00  0.00    -0.018 A 
ATOM     20  C   UNL     1      11.027 -11.289  -0.458  0.00  0.00    +0.008 A 
ATOM     21  C   UNL     1      10.615 -12.584  -0.524  0.00  0.00    +0.001 A 
ATOM     22  C   UNL     1       9.259 -12.905  -0.559  0.00  0.00    +0.001 A 
ATOM     23  C   UNL     1       8.308 -11.932  -0.529  0.00  0.00    +0.008 A 
ATOM     24  C   UNL     1       8.695 -10.583  -0.460  0.00  0.00    -0.016 A 
ATOM     25  C   UNL     1       7.741  -9.553  -0.427  0.00  0.00    +0.031 A 
ENDBRANCH  14  16
ENDBRANCH  13  14
ENDBRANCH  10  13
ENDBRANCH   8   9
ENDBRANCH   3   7
BRANCH   1  26
ATOM     26  O   UNL     1       3.668   2.990   0.089  0.00  0.00    -0.489 OA
BRANCH  26  28
ATOM     27  C   UNL     1       4.982   5.015   0.202  0.00  0.00    +0.048 C 
ATOM     28  C   UNL     1       5.007   3.487   0.132  0.00  0.00    +0.226 C 
ENDBRANCH  26  28
ENDBRANCH   1  26
BRANCH   6  29
ATOM     29  O   UNL     1       1.143   1.900   0.001  0.00  0.00    -0.419 OA
BRANCH  29  30
ATOM     30  C   UNL     1       0.720   2.387  -1.181  0.00  0.00    +0.346 C 
ATOM     31  O   UNL     1       1.360   2.172  -2.191  0.00  0.00    -0.244 OA
BRANCH  30  32
ATOM     32  C   UNL     1      -0.519   3.188  -1.249  0.00  0.00    +0.078 A 
ATOM     33  C   UNL     1      -1.260   3.433  -0.091  0.00  0.00    +0.016 A 
ATOM     34  C   UNL     1      -2.413   4.186  -0.161  0.00  0.00    +0.001 A 
ATOM     35  C   UNL     1      -2.843   4.690  -1.377  0.00  0.00    +0.001 A 
ATOM     36  C   UNL     1      -2.117   4.448  -2.529  0.00  0.00    +0.021 A 
ATOM     37  C   UNL     1      -0.958   3.700  -2.473  0.00  0.00    +0.055 A 
ATOM     38 CL   UNL     1      -0.048   3.395  -3.921  0.00  0.00    -0.083 Cl
ENDBRANCH  30  32
ENDBRANCH  29  30
ENDBRANCH   6  29
TORSDOF 10
