REMARK  Name = ZINC39631472
REMARK  11 active torsions:
REMARK  status: ('A' for Active; 'I' for Inactive)
REMARK    1  A    between atoms: C_1  and  C_2
REMARK    2  A    between atoms: C_2  and  C_4
REMARK    3  A    between atoms: C_2  and  N_11
REMARK    4  A    between atoms: C_4  and  C_5
REMARK    5  A    between atoms: C_5  and  C_6
REMARK    6  A    between atoms: C_6  and  C_7
REMARK    7  A    between atoms: C_7  and  C_8
REMARK    8  A    between atoms: C_7  and  C_9
REMARK    9  A    between atoms: C_7  and  O_10
REMARK   10  A    between atoms: C_12  and  C_14
REMARK   11  A    between atoms: C_25  and  C_27
REMARK                            x       y       z     vdW  Elec       q    Type
REMARK                         _______ _______ _______ _____ _____    ______ ____
ROOT
ATOM      1  C   UNL     1       3.944  -3.777  -3.817  0.00  0.00    +0.100 C 
ATOM      2  C   UNL     1       3.022  -4.986  -4.095  0.00  0.00    +0.121 C 
ATOM      3  N   UNL     1       2.056  -4.495  -5.106  0.00  0.00    -0.296 N 
ATOM      4  C   UNL     1       2.869  -3.651  -6.014  0.00  0.00    +0.115 C 
ATOM      5  C   UNL     1       3.844  -2.906  -5.080  0.00  0.00    -0.004 C 
ATOM      6  C   UNL     1       5.213  -2.775  -5.742  0.00  0.00    -0.010 C 
ATOM      7  C   UNL     1       5.099  -1.856  -6.962  0.00  0.00    -0.082 C 
ATOM      8  N   UNL     1       4.608  -0.538  -6.541  0.00  0.00    +0.379 N 
ATOM      9  C   UNL     1       3.253  -0.661  -5.991  0.00  0.00    -0.082 C 
ATOM     10  C   UNL     1       3.288  -1.529  -4.730  0.00  0.00    -0.010 C 
ATOM     11  C   UNL     1       0.737  -4.758  -5.183  0.00  0.00    +0.250 C 
ATOM     12  O   UNL     1       0.074  -4.283  -6.085  0.00  0.00    -0.270 OA
ATOM     13  H   UNL     1       5.223  -0.162  -5.835  0.00  0.00    -0.086 HD
ATOM     14  H   UNL     1       4.592   0.083  -7.336  0.00  0.00    -0.086 HD
ENDROOT
BRANCH  11  15
ATOM     15  C   UNL     1       0.095  -5.623  -4.171  0.00  0.00    +0.074 A 
ATOM     16  C   UNL     1      -0.014  -5.201  -2.840  0.00  0.00    +0.017 A 
ATOM     17  C   UNL     1      -0.624  -6.048  -1.932  0.00  0.00    +0.021 A 
ATOM     18  C   UNL     1      -1.102  -7.273  -2.362  0.00  0.00    +0.112 A 
ATOM     19  N   UNL     1      -0.986  -7.645  -3.623  0.00  0.00    -0.243 NA
ATOM     20  C   UNL     1      -0.418  -6.872  -4.527  0.00  0.00    +0.141 A 
ATOM     21 CL   UNL     1      -0.301  -7.415  -6.172  0.00  0.00    -0.061 Cl
ENDBRANCH  11  15
BRANCH   1  23
ATOM     22  N   UNL     1       4.325  -2.281  -1.885  0.00  0.00    -0.312 N 
ATOM     23  C   UNL     1       3.459  -3.013  -2.613  0.00  0.00    +0.218 C 
ATOM     24  O   UNL     1       2.288  -3.057  -2.298  0.00  0.00    -0.275 OA
ATOM     25  H   UNL     1       5.246  -2.187  -2.177  0.00  0.00    +0.149 HD
BRANCH  22  27
ATOM     26  C   UNL     1       3.276  -0.261  -0.991  0.00  0.00    +0.028 C 
ATOM     27  C   UNL     1       3.877  -1.626  -0.653  0.00  0.00    +0.070 C 
BRANCH  27  28
ATOM     28  C   UNL     1       5.069  -1.440   0.288  0.00  0.00    +0.022 C 
BRANCH  28  29
ATOM     29  C   UNL     1       5.887  -2.732   0.337  0.00  0.00    +0.005 C 
BRANCH  29  30
ATOM     30  C   UNL     1       7.005  -2.590   1.371  0.00  0.00    +0.034 C 
BRANCH  30  31
ATOM     31  C   UNL     1       7.728  -3.929   1.529  0.00  0.00    +0.061 C 
ATOM     32  C   UNL     1       8.167  -4.437   0.155  0.00  0.00    +0.041 C 
ATOM     33  C   UNL     1       8.958  -3.743   2.421  0.00  0.00    +0.041 C 
BRANCH  31  34
ATOM     34  O   UNL     1       6.845  -4.879   2.128  0.00  0.00    -0.389 OA
ATOM     35  H   UNL     1       6.526  -4.622   3.004  0.00  0.00    +0.210 HD
ENDBRANCH  31  34
ENDBRANCH  30  31
ENDBRANCH  29  30
ENDBRANCH  28  29
ENDBRANCH  27  28
ENDBRANCH  22  27
ENDBRANCH   1  23
TORSDOF 8
