REMARK  Name = ZINC38688645
REMARK  11 active torsions:
REMARK  status: ('A' for Active; 'I' for Inactive)
REMARK    1  A    between atoms: C_1  and  C_2
REMARK    2  A    between atoms: C_10  and  C_11
REMARK    3  A    between atoms: C_11  and  O_13
REMARK    4  A    between atoms: O_13  and  C_14
REMARK    5  A    between atoms: C_21  and  N_37
REMARK    6  A    between atoms: C_22  and  C_35
REMARK    7  A    between atoms: C_23  and  C_25
REMARK    8  A    between atoms: C_29  and  O_33
REMARK    9  A    between atoms: C_30  and  O_31
REMARK   10  A    between atoms: O_31  and  C_32
REMARK   11  A    between atoms: O_33  and  C_34
REMARK                            x       y       z     vdW  Elec       q    Type
REMARK                         _______ _______ _______ _____ _____    ______ ____
ROOT
ATOM      1  C   UNL     1       0.368  -1.752   5.796  0.00  0.00    +0.136 A 
ATOM      2  C   UNL     1       0.244  -0.389   5.560  0.00  0.00    +0.047 A 
ATOM      3  C   UNL     1       0.111   0.485   6.620  0.00  0.00    +0.012 A 
ATOM      4  C   UNL     1       0.101   0.010   7.919  0.00  0.00    +0.008 A 
ATOM      5  C   UNL     1       0.225  -1.349   8.161  0.00  0.00    +0.138 A 
ATOM      6  C   UNL     1       0.354  -2.231   7.096  0.00  0.00    +0.093 A 
ATOM      7  O   UNL     1       0.218  -1.834   9.427  0.00  0.00    -0.441 OA
ATOM      8  C   UNL     1       0.476  -1.015  10.460  0.00  0.00    +0.199 C 
ATOM      9  C   UNL     1       0.370   0.331  10.351  0.00  0.00    +0.098 C 
ATOM     10  C   UNL     1      -0.045   0.980   9.062  0.00  0.00    +0.102 C 
ENDROOT
BRANCH  10  11
ATOM     11  C   UNL     1      -1.484   1.418   9.164  0.00  0.00    +0.011 A 
ATOM     12  C   UNL     1      -2.485   0.474   9.305  0.00  0.00    +0.008 A 
ATOM     13  C   UNL     1      -3.805   0.872   9.399  0.00  0.00    +0.004 A 
ATOM     14  C   UNL     1      -4.131   2.215   9.351  0.00  0.00    +0.049 A 
ATOM     15  C   UNL     1      -3.133   3.165   9.209  0.00  0.00    +0.162 A 
ATOM     16  C   UNL     1      -1.803   2.765   9.121  0.00  0.00    +0.166 A 
BRANCH  16  17
ATOM     17  O   UNL     1      -0.819   3.694   8.987  0.00  0.00    -0.491 OA
ATOM     18  C   UNL     1      -0.540   4.159   7.665  0.00  0.00    +0.277 C 
ENDBRANCH  16  17
BRANCH  15  19
ATOM     19  O   UNL     1      -3.452   4.487   9.162  0.00  0.00    -0.491 OA
ATOM     20  C   UNL     1      -4.836   4.824   9.264  0.00  0.00    +0.277 C 
ENDBRANCH  15  19
ENDBRANCH  10  11
BRANCH   8  21
ATOM     21  N   UNL     1       0.858  -1.558  11.661  0.00  0.00    -0.328 N 
ATOM     22  H   UNL     1       0.939  -2.520  11.755  0.00  0.00    +0.145 HD
ATOM     23  H   UNL     1       1.048  -0.980  12.416  0.00  0.00    +0.145 HD
ENDBRANCH   8  21
BRANCH   9  24
ATOM     24  C   UNL     1       0.659   1.151  11.489  0.00  0.00    +0.101 C 
ATOM     25  N   UNL     1       0.888   1.802  12.391  0.00  0.00    -0.191 NA
ENDBRANCH   9  24
BRANCH   1  26
ATOM     26  O   UNL     1       0.499  -2.614   4.754  0.00  0.00    -0.420 OA
BRANCH  26  27
ATOM     27  C   UNL     1      -0.587  -3.316   4.373  0.00  0.00    +0.380 C 
ATOM     28  O   UNL     1      -1.618  -3.235   5.012  0.00  0.00    -0.241 OA
BRANCH  27  38
ATOM     29  C   UNL     1      -2.941  -5.035   3.287  0.00  0.00    +0.048 C 
ATOM     30  C   UNL     1      -1.553  -4.931   2.711  0.00  0.00    +0.010 A 
ATOM     31  C   UNL     1      -1.040  -5.612   1.524  0.00  0.00    +0.027 A 
ATOM     32  C   UNL     1      -1.591  -6.505   0.601  0.00  0.00    +0.050 A 
ATOM     33  C   UNL     1      -0.815  -6.976  -0.436  0.00  0.00    +0.124 A 
ATOM     34  C   UNL     1       0.507  -6.566  -0.564  0.00  0.00    +0.042 A 
ATOM     35  C   UNL     1       1.062  -5.686   0.339  0.00  0.00    +0.050 A 
ATOM     36  C   UNL     1       0.298  -5.198   1.393  0.00  0.00    +0.136 A 
ATOM     37  O   UNL     1       0.563  -4.348   2.406  0.00  0.00    -0.448 OA
ATOM     38  C   UNL     1      -0.525  -4.179   3.187  0.00  0.00    +0.216 A 
ATOM     39  F   UNL     1      -1.341  -7.840  -1.332  0.00  0.00    -0.205 F 
ENDBRANCH  27  38
ENDBRANCH  26  27
ENDBRANCH   1  26
TORSDOF 8
