REMARK  Name = ZINC39664077
REMARK  9 active torsions:
REMARK  status: ('A' for Active; 'I' for Inactive)
REMARK    1  A    between atoms: C_1  and  C_2
REMARK    2  A    between atoms: C_2  and  C_3
REMARK    3  A    between atoms: C_7  and  C_16
REMARK    4  A    between atoms: N_18  and  C_19
REMARK    5  A    between atoms: C_19  and  C_20
REMARK    6  A    between atoms: C_20  and  C_22
REMARK    7  A    between atoms: C_20  and  N_30
REMARK    8  A    between atoms: C_25  and  O_28
REMARK    9  A    between atoms: O_28  and  C_29
REMARK                            x       y       z     vdW  Elec       q    Type
REMARK                         _______ _______ _______ _____ _____    ______ ____
ROOT
ATOM      1  C   UNL     1       0.005  -5.476  -1.228  0.00  0.00    +0.218 C 
ATOM      2  O   UNL     1       0.707  -6.207  -1.895  0.00  0.00    -0.275 OA
ATOM      3  N   UNL     1      -0.380  -5.855   0.006  0.00  0.00    -0.316 N 
ATOM      4  H   UNL     1      -0.941  -5.271   0.540  0.00  0.00    +0.149 HD
ENDROOT
BRANCH   1   9
ATOM      5  C   UNL     1       0.128  -1.771  -4.456  0.00  0.00    +0.215 C 
ATOM      6  O   UNL     1      -0.616  -1.360  -5.321  0.00  0.00    -0.276 OA
ATOM      7  N   UNL     1      -0.147  -2.929  -3.824  0.00  0.00    -0.300 N 
ATOM      8  C   UNL     1       0.631  -3.583  -2.746  0.00  0.00    +0.121 C 
ATOM      9  C   UNL     1      -0.436  -4.145  -1.780  0.00  0.00    +0.100 C 
ATOM     10  C   UNL     1      -1.698  -4.311  -2.643  0.00  0.00    -0.004 C 
ATOM     11  C   UNL     1      -1.300  -3.834  -4.047  0.00  0.00    +0.115 C 
ATOM     12  C   UNL     1      -2.828  -3.444  -2.098  0.00  0.00    -0.010 C 
ATOM     13  C   UNL     1      -4.089  -3.670  -2.938  0.00  0.00    -0.082 C 
ATOM     14  N   UNL     1      -4.465  -5.088  -2.888  0.00  0.00    +0.379 N 
ATOM     15  C   UNL     1      -3.411  -5.908  -3.498  0.00  0.00    -0.082 C 
ATOM     16  C   UNL     1      -2.122  -5.776  -2.682  0.00  0.00    -0.010 C 
ATOM     17  H   UNL     1      -4.591  -5.367  -1.926  0.00  0.00    -0.086 HD
ATOM     18  H   UNL     1      -5.329  -5.224  -3.391  0.00  0.00    -0.086 HD
BRANCH   5  20
ATOM     19  C   UNL     1       1.435   0.279  -4.946  0.00  0.00    +0.013 C 
ATOM     20  C   UNL     1       1.359  -0.985  -4.086  0.00  0.00    +0.092 C 
ENDBRANCH   5  20
ENDBRANCH   1   9
BRANCH   3  21
ATOM     21  C   UNL     1       0.049  -7.149   0.543  0.00  0.00    +0.093 C 
BRANCH  21  22
ATOM     22  C   UNL     1      -0.603  -7.376   1.908  0.00  0.00    -0.020 C 
BRANCH  22  23
ATOM     23  C   UNL     1      -0.081  -6.358   2.889  0.00  0.00    -0.059 A 
ATOM     24  C   UNL     1       1.155  -6.540   3.481  0.00  0.00    +0.005 A 
ATOM     25  C   UNL     1       1.635  -5.608   4.381  0.00  0.00    +0.046 A 
ATOM     26  C   UNL     1       0.876  -4.489   4.690  0.00  0.00    +0.120 A 
ATOM     27  C   UNL     1      -0.364  -4.309   4.095  0.00  0.00    +0.046 A 
ATOM     28  C   UNL     1      -0.838  -5.241   3.192  0.00  0.00    +0.005 A 
BRANCH  26  29
ATOM     29  O   UNL     1       1.346  -3.571   5.576  0.00  0.00    -0.495 OA
ATOM     30  C   UNL     1       0.510  -2.444   5.847  0.00  0.00    +0.277 C 
ENDBRANCH  26  29
ENDBRANCH  22  23
BRANCH  22  31
ATOM     31  N   UNL     1      -0.279  -8.727   2.386  0.00  0.00    +0.385 N 
ATOM     32  C   UNL     1      -0.922  -8.972   3.703  0.00  0.00    -0.078 C 
ATOM     33  C   UNL     1      -0.977 -10.518   3.789  0.00  0.00    -0.020 C 
ATOM     34  C   UNL     1      -1.290 -10.934   2.333  0.00  0.00    -0.020 C 
ATOM     35  C   UNL     1      -0.842  -9.741   1.468  0.00  0.00    -0.078 C 
ATOM     36  H   UNL     1       0.721  -8.841   2.460  0.00  0.00    -0.081 HD
ENDBRANCH  22  31
ENDBRANCH  21  22
ENDBRANCH   3  21
TORSDOF 7
