REMARK  Name = ZINC08684707
REMARK  7 active torsions:
REMARK  status: ('A' for Active; 'I' for Inactive)
REMARK    1  A    between atoms: C_5  and  C_7
REMARK    2  A    between atoms: N_9  and  C_10
REMARK    3  A    between atoms: C_10  and  C_21
REMARK    4  A    between atoms: C_11  and  C_12
REMARK    5  A    between atoms: N_23  and  C_24
REMARK    6  A    between atoms: C_24  and  C_25
REMARK    7  A    between atoms: C_25  and  C_26
REMARK                            x       y       z     vdW  Elec       q    Type
REMARK                         _______ _______ _______ _____ _____    ______ ____
ROOT
ATOM      1  C   UNL     1      -0.048  -4.259   0.041  0.00  0.00    +0.097 C 
ATOM      2  C   UNL     1       1.084  -4.985  -0.124  0.00  0.00    +0.036 C 
ENDROOT
BRANCH   2   3
ATOM      3  C   UNL     1       2.390  -4.311  -0.162  0.00  0.00    -0.019 A 
ATOM      4  C   UNL     1       2.569  -3.091   0.498  0.00  0.00    +0.012 A 
ATOM      5  C   UNL     1       3.795  -2.462   0.462  0.00  0.00    +0.050 A 
ATOM      6  C   UNL     1       4.854  -3.035  -0.229  0.00  0.00    +0.166 A 
ATOM      7  C   UNL     1       4.683  -4.252  -0.889  0.00  0.00    +0.167 A 
ATOM      8  C   UNL     1       3.459  -4.892  -0.853  0.00  0.00    +0.057 A 
ATOM      9  O   UNL     1       5.863  -4.595  -1.484  0.00  0.00    -0.453 OA
ATOM     10  C   UNL     1       6.638  -3.382  -1.525  0.00  0.00    +0.466 C 
ATOM     11  O   UNL     1       6.141  -2.619  -0.411  0.00  0.00    -0.453 OA
ENDBRANCH   2   3
BRANCH   1  14
ATOM     12  C   UNL     1      -0.525  -2.299   1.303  0.00  0.00    +0.250 C 
ATOM     13  O   UNL     1      -1.019  -2.992   2.171  0.00  0.00    -0.270 OA
ATOM     14  N   UNL     1       0.030  -2.873   0.216  0.00  0.00    -0.277 N 
ATOM     15  H   UNL     1       0.482  -2.325  -0.444  0.00  0.00    +0.155 HD
BRANCH  12  20
ATOM     16  C   UNL     1       0.132   1.338   0.640  0.00  0.00    +0.001 A 
ATOM     17  C   UNL     1      -0.542   1.930   1.694  0.00  0.00    +0.001 A 
ATOM     18  C   UNL     1      -1.212   1.152   2.620  0.00  0.00    +0.021 A 
ATOM     19  C   UNL     1      -1.210  -0.224   2.500  0.00  0.00    +0.053 A 
ATOM     20  C   UNL     1      -0.531  -0.828   1.438  0.00  0.00    +0.055 A 
ATOM     21  C   UNL     1       0.142  -0.035   0.507  0.00  0.00    +0.014 A 
ATOM     22 CL   UNL     1      -2.050  -1.201   3.664  0.00  0.00    -0.083 Cl
ENDBRANCH  12  20
ENDBRANCH   1  14
BRANCH   1  23
ATOM     23  C   UNL     1      -1.355  -4.927   0.037  0.00  0.00    +0.258 C 
ATOM     24  O   UNL     1      -2.372  -4.275   0.186  0.00  0.00    -0.269 OA
ATOM     25  N   UNL     1      -1.430  -6.262  -0.131  0.00  0.00    -0.310 N 
ATOM     26  H   UNL     1      -0.619  -6.782  -0.250  0.00  0.00    +0.149 HD
BRANCH  25  27
ATOM     27  C   UNL     1      -2.735  -6.929  -0.135  0.00  0.00    +0.112 C 
BRANCH  27  28
ATOM     28  C   UNL     1      -2.539  -8.432  -0.342  0.00  0.00    +0.093 C 
BRANCH  28  29
ATOM     29  C   UNL     1      -3.881  -9.117  -0.346  0.00  0.00    +0.110 A 
ATOM     30  N   UNL     1      -4.342  -9.922  -1.341  0.00  0.00    -0.342 N 
ATOM     31  H   UNL     1      -3.873 -10.152  -2.159  0.00  0.00    +0.167 HD
ATOM     32  C   UNL     1      -5.601 -10.352  -0.972  0.00  0.00    +0.066 A 
ATOM     33  C   UNL     1      -6.553 -11.173  -1.560  0.00  0.00    +0.028 A 
ATOM     34  C   UNL     1      -7.746 -11.408  -0.911  0.00  0.00    +0.002 A 
ATOM     35  C   UNL     1      -8.001 -10.829   0.325  0.00  0.00    +0.002 A 
ATOM     36  C   UNL     1      -7.076 -10.018   0.918  0.00  0.00    +0.030 A 
ATOM     37  C   UNL     1      -5.859  -9.766   0.279  0.00  0.00    +0.089 A 
ATOM     38  N   UNL     1      -4.765  -9.030   0.604  0.00  0.00    -0.232 NA
ENDBRANCH  28  29
ENDBRANCH  27  28
ENDBRANCH  25  27
ENDBRANCH   1  23
TORSDOF 7
