REMARK  Name = ZINC44714392
REMARK  9 active torsions:
REMARK  status: ('A' for Active; 'I' for Inactive)
REMARK    1  A    between atoms: C_1  and  C_2
REMARK    2  A    between atoms: C_3  and  C_14
REMARK    3  A    between atoms: C_6  and  C_12
REMARK    4  A    between atoms: C_14  and  C_15
REMARK    5  A    between atoms: C_15  and  N_16
REMARK    6  A    between atoms: C_17  and  C_19
REMARK    7  A    between atoms: C_30  and  C_32
REMARK    8  A    between atoms: C_32  and  C_33
REMARK    9  A    between atoms: C_32  and  C_34
REMARK                            x       y       z     vdW  Elec       q    Type
REMARK                         _______ _______ _______ _____ _____    ______ ____
ROOT
ATOM      1  N   UNL     1       2.530  -0.255  -3.401  0.00  0.00    -0.315 N 
ATOM      2  C   UNL     1       2.487   0.936  -4.029  0.00  0.00    +0.218 C 
ATOM      3  O   UNL     1       2.186   1.937  -3.413  0.00  0.00    -0.275 OA
ATOM      4  H   UNL     1       2.770  -1.055  -3.894  0.00  0.00    +0.149 HD
ENDROOT
BRANCH   2   5
ATOM      5  C   UNL     1       2.814   1.026  -5.498  0.00  0.00    +0.100 C 
ATOM      6  C   UNL     1       2.051   2.202  -6.148  0.00  0.00    +0.121 C 
ATOM      7  N   UNL     1       3.010   3.332  -6.120  0.00  0.00    -0.300 N 
ATOM      8  C   UNL     1       4.318   2.712  -6.441  0.00  0.00    +0.115 C 
ATOM      9  C   UNL     1       4.302   1.363  -5.696  0.00  0.00    -0.004 C 
ATOM     10  C   UNL     1       4.980   0.286  -6.537  0.00  0.00    -0.010 C 
ATOM     11  C   UNL     1       6.470   0.612  -6.671  0.00  0.00    -0.082 C 
ATOM     12  N   UNL     1       7.080   0.677  -5.338  0.00  0.00    +0.379 N 
ATOM     13  C   UNL     1       6.486   1.776  -4.567  0.00  0.00    -0.082 C 
ATOM     14  C   UNL     1       4.997   1.499  -4.345  0.00  0.00    -0.010 C 
ATOM     15  C   UNL     1       2.751   4.629  -5.862  0.00  0.00    +0.218 C 
ATOM     16  O   UNL     1       1.634   4.972  -5.539  0.00  0.00    -0.275 OA
ATOM     17  H   UNL     1       6.922  -0.195  -4.854  0.00  0.00    -0.086 HD
ATOM     18  H   UNL     1       8.073   0.831  -5.431  0.00  0.00    -0.086 HD
BRANCH  15  19
ATOM     19  C   UNL     1       3.851   5.653  -5.975  0.00  0.00    +0.069 C 
ATOM     20  C   UNL     1       3.948   6.139  -7.423  0.00  0.00    +0.017 C 
ATOM     21  C   UNL     1       3.539   6.839  -5.059  0.00  0.00    +0.017 C 
ENDBRANCH  15  19
ENDBRANCH   2   5
BRANCH   1  22
ATOM     22  C   UNL     1       2.212  -0.342  -1.974  0.00  0.00    +0.109 C 
BRANCH  22  23
ATOM     23  C   UNL     1       2.334  -1.796  -1.512  0.00  0.00    +0.056 C 
BRANCH  23  26
ATOM     24  C   UNL     1      -0.477  -2.286  -0.291  0.00  0.00    +0.063 C 
ATOM     25  C   UNL     1       0.796  -2.098   0.494  0.00  0.00    +0.017 A 
ATOM     26  C   UNL     1       2.007  -1.886  -0.044  0.00  0.00    -0.018 A 
ATOM     27  C   UNL     1       2.952  -1.759   1.070  0.00  0.00    +0.004 A 
ATOM     28  C   UNL     1       4.324  -1.536   1.153  0.00  0.00    +0.029 A 
ATOM     29  C   UNL     1       4.931  -1.469   2.403  0.00  0.00    +0.052 A 
ATOM     30  C   UNL     1       4.162  -1.624   3.566  0.00  0.00    +0.021 A 
ATOM     31  C   UNL     1       2.819  -1.842   3.487  0.00  0.00    +0.027 A 
ATOM     32  C   UNL     1       2.191  -1.913   2.245  0.00  0.00    +0.047 A 
ATOM     33  N   UNL     1       0.886  -2.112   1.859  0.00  0.00    -0.358 N 
ATOM     34  H   UNL     1       0.140  -2.244   2.465  0.00  0.00    +0.166 HD
BRANCH  29  35
ATOM     35  C   UNL     1       6.341  -1.241   2.503  0.00  0.00    +0.099 C 
ATOM     36  N   UNL     1       7.460  -1.060   2.582  0.00  0.00    -0.191 NA
ENDBRANCH  29  35
ENDBRANCH  23  26
ENDBRANCH  22  23
ENDBRANCH   1  22
TORSDOF 6
