REMARK  Name = ZINC55888177
REMARK  6 active torsions:
REMARK  status: ('A' for Active; 'I' for Inactive)
REMARK    1  A    between atoms: C_4  and  N_19
REMARK    2  A    between atoms: C_5  and  N_7
REMARK    3  A    between atoms: N_7  and  C_8
REMARK    4  A    between atoms: C_8  and  C_9
REMARK    5  A    between atoms: N_11  and  C_12
REMARK    6  A    between atoms: C_22  and  O_25
REMARK                            x       y       z     vdW  Elec       q    Type
REMARK                         _______ _______ _______ _____ _____    ______ ____
ROOT
ATOM      1  C   UNL     1       0.074   1.371  -0.244  0.00  0.00    +0.002 A 
ATOM      2  C   UNL     1       1.226   2.025  -0.644  0.00  0.00    +0.002 A 
ATOM      3  C   UNL     1       2.399   1.315  -0.824  0.00  0.00    +0.023 A 
ATOM      4  C   UNL     1       2.424  -0.048  -0.605  0.00  0.00    +0.035 A 
ATOM      5  C   UNL     1       1.269  -0.707  -0.204  0.00  0.00    +0.047 A 
ATOM      6  C   UNL     1       0.092   0.009  -0.024  0.00  0.00    +0.025 A 
ENDROOT
BRANCH   4   7
ATOM      7  N   UNL     1       3.611  -0.764  -0.788  0.00  0.00    -0.392 NA
ATOM      8  C   UNL     1       4.111  -0.540  -2.150  0.00  0.00    +0.087 C 
ATOM      9  C   UNL     1       5.365  -1.385  -2.383  0.00  0.00    +0.048 C 
ATOM     10  C   UNL     1       6.441  -0.983  -1.369  0.00  0.00    +0.117 C 
ATOM     11  C   UNL     1       5.882  -1.150   0.047  0.00  0.00    +0.048 C 
ATOM     12  C   UNL     1       4.609  -0.314   0.189  0.00  0.00    +0.087 C 
ATOM     13  H   UNL     1       3.432  -1.749  -0.656  0.00  0.00    +0.126 HD
BRANCH  10  14
ATOM     14  O   UNL     1       7.588  -1.818  -1.532  0.00  0.00    -0.392 OA
ATOM     15  H   UNL     1       8.310  -1.619  -0.921  0.00  0.00    +0.210 HD
ENDBRANCH  10  14
ENDBRANCH   4   7
BRANCH   5  16
ATOM     16  N   UNL     1       1.291  -2.086   0.018  0.00  0.00    -0.334 N 
ATOM     17  H   UNL     1       2.130  -2.571  -0.027  0.00  0.00    +0.147 HD
BRANCH  16  18
ATOM     18  C   UNL     1       0.047  -2.799   0.318  0.00  0.00    +0.198 C 
BRANCH  18  19
ATOM     19  C   UNL     1       0.343  -4.264   0.513  0.00  0.00    +0.234 C 
ATOM     20  O   UNL     1       1.481  -4.672   0.412  0.00  0.00    -0.274 OA
ATOM     21  N   UNL     1      -0.657  -5.121   0.801  0.00  0.00    -0.284 N 
ATOM     22  H   UNL     1      -1.575  -4.809   0.808  0.00  0.00    +0.155 HD
BRANCH  21  23
ATOM     23  C   UNL     1      -0.369  -6.460   1.089  0.00  0.00    +0.033 A 
ATOM     24  C   UNL     1      -1.261  -7.458   0.718  0.00  0.00    +0.024 A 
ATOM     25  C   UNL     1      -0.975  -8.779   1.004  0.00  0.00    +0.017 A 
ATOM     26  C   UNL     1       0.199  -9.108   1.658  0.00  0.00    +0.018 A 
ATOM     27  C   UNL     1       1.089  -8.116   2.029  0.00  0.00    +0.017 A 
ATOM     28  C   UNL     1       0.810  -6.794   1.741  0.00  0.00    +0.024 A 
ATOM     29 BR   UNL     1       0.587 -10.917   2.047  0.00  0.00    -0.050 Br
ENDBRANCH  21  23
ENDBRANCH  18  19
ENDBRANCH  16  18
ENDBRANCH   5  16
TORSDOF 6
