REMARK  Name = ZINC48681280
REMARK  12 active torsions:
REMARK  status: ('A' for Active; 'I' for Inactive)
REMARK    1  A    between atoms: C_1  and  C_2
REMARK    2  A    between atoms: C_4  and  C_25
REMARK    3  A    between atoms: C_5  and  N_9
REMARK    4  A    between atoms: C_6  and  C_8
REMARK    5  A    between atoms: C_10  and  C_12
REMARK    6  A    between atoms: C_12  and  N_13
REMARK    7  A    between atoms: N_13  and  C_14
REMARK    8  A    between atoms: C_14  and  C_15
REMARK    9  A    between atoms: C_18  and  O_21
REMARK   10  A    between atoms: O_21  and  C_22
REMARK   11  A    between atoms: C_22  and  C_23
REMARK   12  A    between atoms: C_22  and  C_24
REMARK                            x       y       z     vdW  Elec       q    Type
REMARK                         _______ _______ _______ _____ _____    ______ ____
ROOT
ATOM      1  C   UNL     1      -0.807  -5.446   1.690  0.00  0.00    +0.016 C 
ENDROOT
BRANCH   1   3
ATOM      2  N   UNL     1      -0.976  -3.098   0.930  0.00  0.00    -0.287 N 
ATOM      3  C   UNL     1      -0.890  -3.965   1.958  0.00  0.00    +0.200 C 
ATOM      4  O   UNL     1      -0.880  -3.554   3.099  0.00  0.00    -0.278 OA
ATOM      5  H   UNL     1      -0.902  -3.418   0.018  0.00  0.00    +0.155 HD
BRANCH   2  10
ATOM      6  C   UNL     1      -1.766   2.429   1.939  0.00  0.00    +0.044 C 
ATOM      7  C   UNL     1      -1.556   0.961   1.671  0.00  0.00    -0.050 A 
ATOM      8  C   UNL     1      -0.473   0.305   2.228  0.00  0.00    +0.008 A 
ATOM      9  C   UNL     1      -0.278  -1.040   1.985  0.00  0.00    -0.029 A 
ATOM     10  C   UNL     1      -1.171  -1.735   1.179  0.00  0.00    +0.039 A 
ATOM     11  C   UNL     1      -2.257  -1.074   0.622  0.00  0.00    -0.029 A 
ATOM     12  C   UNL     1      -2.450   0.271   0.873  0.00  0.00    +0.008 A 
ATOM     13  C   UNL     1      -3.228  -1.824  -0.254  0.00  0.00    +0.045 C 
ATOM     14  C   UNL     1       0.902  -1.753   2.592  0.00  0.00    +0.045 C 
ENDBRANCH   2  10
ENDBRANCH   1   3
BRANCH   1  15
ATOM     15  N   UNL     1      -0.723  -6.170   2.965  0.00  0.00    +0.387 N 
ATOM     16  H   UNL     1       0.100  -5.873   3.467  0.00  0.00    -0.085 HD
ATOM     17  H   UNL     1      -1.543  -5.975   3.518  0.00  0.00    -0.085 HD
BRANCH  15  18
ATOM     18  C   UNL     1      -0.641  -7.614   2.703  0.00  0.00    -0.046 C 
BRANCH  18  19
ATOM     19  C   UNL     1      -0.554  -8.357   4.011  0.00  0.00    -0.064 A 
ATOM     20  C   UNL     1       0.680  -8.619   4.576  0.00  0.00    +0.005 A 
ATOM     21  C   UNL     1       0.762  -9.300   5.775  0.00  0.00    +0.046 A 
ATOM     22  C   UNL     1      -0.396  -9.723   6.412  0.00  0.00    +0.121 A 
ATOM     23  C   UNL     1      -1.633  -9.459   5.843  0.00  0.00    +0.046 A 
ATOM     24  C   UNL     1      -1.710  -8.772   4.647  0.00  0.00    +0.005 A 
BRANCH  22  25
ATOM     25  O   UNL     1      -0.318 -10.394   7.591  0.00  0.00    -0.489 OA
BRANCH  25  26
ATOM     26  C   UNL     1       0.989 -10.735   8.058  0.00  0.00    +0.167 C 
ATOM     27  C   UNL     1       1.579  -9.555   8.832  0.00  0.00    +0.051 C 
ATOM     28  C   UNL     1       0.900 -11.955   8.978  0.00  0.00    +0.051 C 
ENDBRANCH  25  26
ENDBRANCH  22  25
ENDBRANCH  18  19
ENDBRANCH  15  18
ENDBRANCH   1  15
TORSDOF 7
