REMARK  Name = ZINC38669797
REMARK  9 active torsions:
REMARK  status: ('A' for Active; 'I' for Inactive)
REMARK    1  A    between atoms: C_1  and  C_2
REMARK    2  A    between atoms: C_7  and  C_9
REMARK    3  A    between atoms: C_7  and  C_10
REMARK    4  A    between atoms: N_11  and  C_13
REMARK    5  A    between atoms: C_13  and  C_14
REMARK    6  A    between atoms: N_16  and  C_17
REMARK    7  A    between atoms: C_25  and  C_27
REMARK    8  A    between atoms: C_27  and  O_29
REMARK    9  A    between atoms: O_29  and  C_30
REMARK                            x       y       z     vdW  Elec       q    Type
REMARK                         _______ _______ _______ _____ _____    ______ ____
ROOT
ATOM      1  C   UNL     1      -3.603  -2.686  -0.379  0.00  0.00    +0.200 C 
ATOM      2  O   UNL     1      -3.860  -1.506  -0.481  0.00  0.00    -0.278 OA
ATOM      3  N   UNL     1      -4.588  -3.572  -0.135  0.00  0.00    -0.288 N 
ATOM      4  H   UNL     1      -4.391  -4.522  -0.107  0.00  0.00    +0.155 HD
ENDROOT
BRANCH   3   5
ATOM      5  C   UNL     1      -5.862  -3.135   0.070  0.00  0.00    +0.053 C 
ATOM      6  C   UNL     1      -6.925  -3.864   0.577  0.00  0.00    +0.019 A 
ATOM      7  C   UNL     1      -7.039  -5.205   1.017  0.00  0.00    +0.026 A 
ATOM      8  C   UNL     1      -8.231  -5.662   1.474  0.00  0.00    +0.019 A 
ATOM      9  C   UNL     1      -9.362  -4.840   1.524  0.00  0.00    +0.017 A 
ATOM     10  C   UNL     1      -9.325  -3.548   1.119  0.00  0.00    +0.027 A 
ATOM     11  C   UNL     1      -8.113  -2.996   0.627  0.00  0.00    +0.045 A 
ATOM     12  N   UNL     1      -7.822  -1.791   0.181  0.00  0.00    -0.367 N 
ATOM     13  C   UNL     1      -6.407  -1.750  -0.202  0.00  0.00    +0.234 C 
ATOM     14 BR   UNL     1      -8.368  -7.455   2.058  0.00  0.00    -0.050 Br
ATOM     15  H   UNL     1      -8.444  -1.048   0.119  0.00  0.00    +0.161 HD
BRANCH  13  16
ATOM     16  C   UNL     1      -6.278  -1.420  -1.666  0.00  0.00    +0.335 C 
ATOM     17  O   UNL     1      -7.239  -1.510  -2.393  0.00  0.00    -0.248 OA
BRANCH  16  18
ATOM     18  O   UNL     1      -5.095  -1.026  -2.163  0.00  0.00    -0.466 OA
ATOM     19  C   UNL     1      -5.045  -0.728  -3.560  0.00  0.00    +0.280 C 
ENDBRANCH  16  18
ENDBRANCH  13  16
ENDBRANCH   3   5
BRANCH   1  20
ATOM     20  C   UNL     1      -2.180  -3.162  -0.524  0.00  0.00    +0.019 C 
BRANCH  20  30
ATOM     21  C   UNL     1       0.305   0.873   0.779  0.00  0.00    +0.009 C 
ATOM     22  C   UNL     1       0.182  -0.636   0.525  0.00  0.00    -0.048 C 
ATOM     23  C   UNL     1       0.855  -1.069  -0.806  0.00  0.00    -0.011 C 
ATOM     24  C   UNL     1       0.091  -2.400  -1.054  0.00  0.00    -0.067 C 
ATOM     25  C   UNL     1       0.617  -3.425  -0.069  0.00  0.00    -0.009 C 
ATOM     26  C   UNL     1       0.838  -2.965   1.355  0.00  0.00    -0.036 C 
ATOM     27  C   UNL     1       0.826  -1.475   1.629  0.00  0.00    +0.011 C 
ATOM     28  C   UNL     1       2.230  -3.494   1.793  0.00  0.00    +0.011 C 
ATOM     29  C   UNL     1      -0.184  -3.654   2.279  0.00  0.00    +0.011 C 
ATOM     30  N   UNL     1      -1.310  -2.022  -0.781  0.00  0.00    +0.388 N 
ATOM     31  C   UNL     1      -1.287  -1.087   0.360  0.00  0.00    -0.071 C 
ATOM     32  H   UNL     1      -1.668  -1.515  -1.593  0.00  0.00    -0.081 HD
ENDBRANCH  20  30
ENDBRANCH   1  20
TORSDOF 5
