REMARK  Name = ZINC62724468
REMARK  4 active torsions:
REMARK  status: ('A' for Active; 'I' for Inactive)
REMARK    1  A    between atoms: C_1  and  C_2
REMARK    2  A    between atoms: C_3  and  N_11
REMARK    3  A    between atoms: C_7  and  N_8
REMARK    4  A    between atoms: C_19  and  N_21
REMARK                            x       y       z     vdW  Elec       q    Type
REMARK                         _______ _______ _______ _____ _____    ______ ____
ROOT
ATOM      1  N   UNL     1      -0.210   0.007  -2.400  0.00  0.00    -0.324 N 
ATOM      2  C   UNL     1       0.724   0.533  -3.425  0.00  0.00    +0.072 C 
ATOM      3  C   UNL     1       0.154   1.926  -3.780  0.00  0.00    +0.024 C 
ATOM      4  C   UNL     1      -1.349   1.833  -3.443  0.00  0.00    +0.024 C 
ATOM      5  C   UNL     1      -1.546   0.388  -2.919  0.00  0.00    +0.072 C 
ATOM      6  C   UNL     1      -1.842  -0.517  -4.125  0.00  0.00    +0.006 C 
ATOM      7  C   UNL     1      -0.820  -0.223  -5.228  0.00  0.00    -0.072 C 
ATOM      8  C   UNL     1       0.601  -0.370  -4.662  0.00  0.00    +0.006 C 
ENDROOT
BRANCH   1  11
ATOM      9  C   UNL     1       0.217   1.510  -0.022  0.00  0.00    +0.048 C 
ATOM     10  C   UNL     1       0.312   0.006  -0.043  0.00  0.00    +0.001 A 
ATOM     11  C   UNL     1       0.096  -0.688  -1.228  0.00  0.00    +0.035 A 
ATOM     12  C   UNL     1       0.185  -2.074  -1.243  0.00  0.00    +0.023 A 
ATOM     13  C   UNL     1       0.487  -2.758  -0.082  0.00  0.00    +0.004 A 
ATOM     14  C   UNL     1       0.701  -2.064   1.095  0.00  0.00    +0.033 A 
ATOM     15  C   UNL     1       0.619  -0.684   1.113  0.00  0.00    +0.131 A 
BRANCH  15  16
ATOM     16  N   UNL     1       0.855   0.054   2.373  0.00  0.00    +0.057 N 
ATOM     17  O   UNL     1       1.323   1.169   2.343  0.00  0.00    -0.126 OA
ATOM     18  O   UNL     1       0.581  -0.457   3.434  0.00  0.00    -0.126 OA
ENDBRANCH  15  16
ENDBRANCH   1  11
BRANCH   7  19
ATOM     19  N   UNL     1      -1.022   1.143  -5.729  0.00  0.00    +0.380 N 
ATOM     20  H   UNL     1      -0.898   1.801  -4.974  0.00  0.00    -0.090 HD
ATOM     21  H   UNL     1      -0.351   1.337  -6.458  0.00  0.00    -0.090 HD
ATOM     22  H   UNL     1      -1.956   1.230  -6.101  0.00  0.00    -0.090 HD
ENDBRANCH   7  19
TORSDOF 3
