REMARK  Name = ZINC52094696
REMARK  6 active torsions:
REMARK  status: ('A' for Active; 'I' for Inactive)
REMARK    1  A    between atoms: C_1  and  C_2
REMARK    2  A    between atoms: C_2  and  C_3
REMARK    3  A    between atoms: C_3  and  N_4
REMARK    4  A    between atoms: N_4  and  C_5
REMARK    5  A    between atoms: C_5  and  C_7
REMARK    6  A    between atoms: C_5  and  C_20
REMARK                            x       y       z     vdW  Elec       q    Type
REMARK                         _______ _______ _______ _____ _____    ______ ____
ROOT
ATOM      1  C   UNL     1      -2.928  -3.986   0.290  0.00  0.00    -0.045 A 
ATOM      2  C   UNL     1      -3.442  -4.822  -0.682  0.00  0.00    +0.031 A 
ATOM      3  C   UNL     1      -3.568  -6.180  -0.428  0.00  0.00    +0.067 A 
ATOM      4  C   UNL     1      -3.175  -6.696   0.808  0.00  0.00    +0.068 A 
ATOM      5  C   UNL     1      -2.660  -5.850   1.778  0.00  0.00    +0.043 A 
ATOM      6  C   UNL     1      -2.533  -4.499   1.514  0.00  0.00    +0.022 A 
ATOM      7 BR   UNL     1      -1.823  -3.345   2.834  0.00  0.00    -0.050 Br
ATOM      8  N   UNL     1      -3.417  -8.067   0.767  0.00  0.00    -0.306 N 
ATOM      9  H   UNL     1      -3.243  -8.696   1.484  0.00  0.00    +0.170 HD
ATOM     10  C   UNL     1      -3.933  -8.371  -0.439  0.00  0.00    +0.325 A 
ATOM     11  O   UNL     1      -4.258  -9.486  -0.801  0.00  0.00    -0.247 OA
ATOM     12  N   UNL     1      -4.037  -7.253  -1.182  0.00  0.00    -0.306 N 
ATOM     13  H   UNL     1      -4.380  -7.204  -2.088  0.00  0.00    +0.170 HD
ENDROOT
BRANCH   1  14
ATOM     14  C   UNL     1      -2.792  -2.511   0.015  0.00  0.00    -0.037 C 
BRANCH  14  15
ATOM     15  C   UNL     1      -3.682  -2.128  -1.168  0.00  0.00    -0.021 C 
ATOM     16  C   UNL     1      -4.141  -0.661  -1.145  0.00  0.00    +0.002 C 
ATOM     17  C   UNL     1      -5.511  -1.163  -1.629  0.00  0.00    +0.000 C 
ATOM     18  C   UNL     1      -5.159  -2.511  -0.977  0.00  0.00    +0.002 C 
ENDBRANCH  14  15
BRANCH  14  19
ATOM     19  N   UNL     1      -1.392  -2.200  -0.305  0.00  0.00    +0.384 N 
ATOM     20  H   UNL     1      -1.134  -2.657  -1.166  0.00  0.00    -0.085 HD
ATOM     21  H   UNL     1      -0.796  -2.527   0.441  0.00  0.00    -0.085 HD
BRANCH  19  22
ATOM     22  C   UNL     1      -1.235  -0.747  -0.455  0.00  0.00    -0.082 C 
BRANCH  22  24
ATOM     23  C   UNL     1       0.386   1.089  -0.945  0.00  0.00    +0.002 C 
ATOM     24  C   UNL     1       0.223  -0.424  -0.788  0.00  0.00    -0.022 C 
ENDBRANCH  22  24
ENDBRANCH  19  22
ENDBRANCH  14  19
ENDBRANCH   1  14
TORSDOF 5
