REMARK  Name = ZINC43191195
REMARK  4 active torsions:
REMARK  status: ('A' for Active; 'I' for Inactive)
REMARK    1  A    between atoms: C_1  and  C_2
REMARK    2  A    between atoms: C_2  and  N_3
REMARK    3  A    between atoms: C_19  and  C_25
REMARK    4  A    between atoms: C_25  and  C_27
REMARK                            x       y       z     vdW  Elec       q    Type
REMARK                         _______ _______ _______ _____ _____    ______ ____
ROOT
ATOM      1  N   UNL     1       0.711  -0.489   1.189  0.00  0.00    -0.242 N 
ATOM      2  C   UNL     1       2.034  -0.710   1.209  0.00  0.00    +0.228 C 
ATOM      3  O   UNL     1       2.818  -0.408   0.335  0.00  0.00    -0.275 OA
ATOM      4  C   UNL     1       2.383  -1.403   2.517  0.00  0.00    +0.116 C 
ATOM      5  C   UNL     1       2.265  -2.917   2.307  0.00  0.00    +0.136 C 
ATOM      6  C   UNL     1       3.611  -3.590   2.376  0.00  0.00    -0.016 A 
ATOM      7  C   UNL     1       4.742  -2.977   1.891  0.00  0.00    +0.006 A 
ATOM      8  C   UNL     1       5.966  -3.619   1.974  0.00  0.00    +0.000 A 
ATOM      9  C   UNL     1       6.055  -4.878   2.543  0.00  0.00    +0.001 A 
ATOM     10  C   UNL     1       4.927  -5.504   3.030  0.00  0.00    +0.010 A 
ATOM     11  C   UNL     1       3.688  -4.866   2.948  0.00  0.00    -0.000 A 
ATOM     12  C   UNL     1       2.473  -5.535   3.452  0.00  0.00    +0.138 C 
ATOM     13  N   UNL     1       1.393  -4.838   3.688  0.00  0.00    -0.191 NA
ATOM     14  N   UNL     1       1.440  -3.456   3.403  0.00  0.00    -0.236 N 
ATOM     15  C   UNL     1       0.826  -2.357   4.141  0.00  0.00    +0.177 C 
ATOM     16  C   UNL     1       1.149  -1.034   3.397  0.00  0.00    +0.119 C 
ATOM     17  C   UNL     1       0.093  -0.747   2.353  0.00  0.00    +0.228 C 
ATOM     18  O   UNL     1      -1.105  -0.751   2.536  0.00  0.00    -0.275 OA
ENDROOT
BRANCH   1  20
ATOM     19  C   UNL     1      -0.019   1.526   0.010  0.00  0.00    +0.025 C 
ATOM     20  C   UNL     1       0.002  -0.004   0.002  0.00  0.00    +0.113 C 
ENDBRANCH   1  20
BRANCH  15  21
ATOM     21  C   UNL     1      -0.665  -2.562   4.213  0.00  0.00    +0.187 C 
ATOM     22  O   UNL     1      -1.200  -3.386   3.502  0.00  0.00    -0.290 OA
BRANCH  21  23
ATOM     23  C   UNL     1      -1.472  -1.762   5.147  0.00  0.00    +0.038 A 
ATOM     24  C   UNL     1      -0.860  -0.806   5.966  0.00  0.00    +0.013 A 
ATOM     25  C   UNL     1      -1.623  -0.061   6.838  0.00  0.00    +0.001 A 
ATOM     26  C   UNL     1      -2.993  -0.255   6.907  0.00  0.00    +0.001 A 
ATOM     27  C   UNL     1      -3.607  -1.198   6.102  0.00  0.00    +0.021 A 
ATOM     28  C   UNL     1      -2.858  -1.949   5.218  0.00  0.00    +0.051 A 
ATOM     29 CL   UNL     1      -3.631  -3.126   4.203  0.00  0.00    -0.083 Cl
ENDBRANCH  21  23
ENDBRANCH  15  21
TORSDOF 3
