REMARK  Name = ZINC63213481
REMARK  4 active torsions:
REMARK  status: ('A' for Active; 'I' for Inactive)
REMARK    1  A    between atoms: C_5  and  S_8
REMARK    2  A    between atoms: S_8  and  N_11
REMARK    3  A    between atoms: N_11  and  C_12
REMARK    4  A    between atoms: C_19  and  N_21
REMARK                            x       y       z     vdW  Elec       q    Type
REMARK                         _______ _______ _______ _____ _____    ______ ____
ROOT
ATOM      1  N   UNL     1       1.256  -2.940   1.557  0.00  0.00    -0.188 NA
ATOM      2  H   UNL     1       2.028  -3.414   1.905  0.00  0.00    +0.148 HD
ENDROOT
BRANCH   1   3
ATOM      3  C   UNL     1       0.112  -2.665   2.429  0.00  0.00    +0.062 C 
ATOM      4  C   UNL     1       0.366  -1.347   3.185  0.00  0.00    +0.019 C 
ATOM      5  C   UNL     1      -0.541  -1.180   4.419  0.00  0.00    +0.001 C 
ATOM      6  C   UNL     1      -1.958  -1.611   4.153  0.00  0.00    -0.000 C 
ATOM      7  C   UNL     1      -2.114  -3.081   4.593  0.00  0.00    -0.002 C 
ATOM      8  C   UNL     1      -1.596  -4.014   3.603  0.00  0.00    -0.015 C 
ATOM      9  C   UNL     1      -0.083  -3.831   3.359  0.00  0.00    -0.056 C 
BRANCH   9  10
ATOM     10  N   UNL     1       0.468  -5.048   2.747  0.00  0.00    +0.381 N 
ATOM     11  H   UNL     1       1.454  -4.919   2.573  0.00  0.00    -0.090 HD
ATOM     12  H   UNL     1       0.336  -5.828   3.373  0.00  0.00    -0.090 HD
ATOM     13  H   UNL     1      -0.007  -5.231   1.876  0.00  0.00    -0.090 HD
ENDBRANCH   9  10
ENDBRANCH   1   3
BRANCH   1  14
ATOM     14  S   UNL     1       1.233  -2.441  -0.022  0.00  0.00    +0.061 S 
ATOM     15  O   UNL     1      -0.012  -2.861  -0.562  0.00  0.00    -0.153 OA
ATOM     16  O   UNL     1       2.478  -2.827  -0.588  0.00  0.00    -0.153 OA
BRANCH  14  21
ATOM     17  C   UNL     1      -0.017   1.379   0.010  0.00  0.00    +0.042 A 
ATOM     18  C   UNL     1       1.172   2.087   0.002  0.00  0.00    +0.044 A 
ATOM     19  C   UNL     1       2.379   1.412  -0.013  0.00  0.00    +0.042 A 
ATOM     20  C   UNL     1       2.398   0.029  -0.020  0.00  0.00    +0.070 A 
ATOM     21  C   UNL     1       1.209  -0.679  -0.012  0.00  0.00    +0.142 A 
ATOM     22  C   UNL     1       0.002  -0.004   0.002  0.00  0.00    +0.070 A 
ATOM     23 CL   UNL     1      -1.489  -0.892   0.012  0.00  0.00    -0.081 Cl
ATOM     24 CL   UNL     1       3.913  -0.819  -0.040  0.00  0.00    -0.081 Cl
ATOM     25 CL   UNL     1       1.148   3.823   0.011  0.00  0.00    -0.083 Cl
ENDBRANCH  14  21
ENDBRANCH   1  14
TORSDOF 4
