REMARK  Name = ZINC01474472
REMARK  12 active torsions:
REMARK  status: ('A' for Active; 'I' for Inactive)
REMARK    1  A    between atoms: C_1  and  C_2
REMARK    2  A    between atoms: C_5  and  N_8
REMARK    3  A    between atoms: C_9  and  C_28
REMARK    4  A    between atoms: C_12  and  S_13
REMARK    5  A    between atoms: S_13  and  C_14
REMARK    6  A    between atoms: C_14  and  C_15
REMARK    7  A    between atoms: N_17  and  N_18
REMARK    8  A    between atoms: C_19  and  C_20
REMARK    9  A    between atoms: C_19  and  C_21
REMARK   10  A    between atoms: C_24  and  O_27
REMARK   11  A    between atoms: C_31  and  O_34
REMARK   12  A    between atoms: O_34  and  C_35
REMARK                            x       y       z     vdW  Elec       q    Type
REMARK                         _______ _______ _______ _____ _____    ______ ____
ROOT
ATOM      1  N   UNL     1      -3.764   1.528  -0.159  0.00  0.00    -0.270 N 
ATOM      2  C   UNL     1      -2.500   0.981  -0.132  0.00  0.00    +0.169 A 
ATOM      3  N   UNL     1      -2.641  -0.302   0.107  0.00  0.00    -0.128 NA
ATOM      4  N   UNL     1      -3.887  -0.594   0.224  0.00  0.00    -0.122 NA
ATOM      5  C   UNL     1      -4.621   0.485   0.068  0.00  0.00    +0.197 A 
ENDROOT
BRANCH   1  10
ATOM      6  C   UNL     1      -5.134   6.965  -1.038  0.00  0.00    +0.044 C 
ATOM      7  C   UNL     1      -4.770   5.522  -0.804  0.00  0.00    -0.050 A 
ATOM      8  C   UNL     1      -5.098   4.566  -1.749  0.00  0.00    +0.005 A 
ATOM      9  C   UNL     1      -4.766   3.242  -1.538  0.00  0.00    +0.026 A 
ATOM     10  C   UNL     1      -4.103   2.871  -0.376  0.00  0.00    +0.051 A 
ATOM     11  C   UNL     1      -3.780   3.832   0.573  0.00  0.00    +0.026 A 
ATOM     12  C   UNL     1      -4.109   5.155   0.353  0.00  0.00    +0.005 A 
ENDBRANCH   1  10
BRANCH   2  13
ATOM     13  C   UNL     1      -1.226   1.704  -0.329  0.00  0.00    +0.020 A 
ATOM     14  C   UNL     1      -1.221   2.963  -0.931  0.00  0.00    +0.015 A 
ATOM     15  C   UNL     1      -0.031   3.636  -1.107  0.00  0.00    +0.046 A 
ATOM     16  C   UNL     1       1.163   3.061  -0.692  0.00  0.00    +0.120 A 
ATOM     17  C   UNL     1       1.163   1.806  -0.097  0.00  0.00    +0.046 A 
ATOM     18  C   UNL     1      -0.023   1.127   0.083  0.00  0.00    +0.015 A 
BRANCH  16  19
ATOM     19  O   UNL     1       2.334   3.727  -0.868  0.00  0.00    -0.495 OA
ATOM     20  C   UNL     1       3.524   3.077  -0.417  0.00  0.00    +0.277 C 
ENDBRANCH  16  19
ENDBRANCH   2  13
BRANCH   5  21
ATOM     21  S   UNL     1      -6.379   0.573   0.144  0.00  0.00    -0.076 S 
BRANCH  21  22
ATOM     22  C   UNL     1      -6.767  -1.163   0.477  0.00  0.00    +0.174 C 
BRANCH  22  23
ATOM     23  C   UNL     1      -8.260  -1.332   0.586  0.00  0.00    +0.242 C 
ATOM     24  O   UNL     1      -8.991  -0.373   0.451  0.00  0.00    -0.273 OA
ATOM     25  N   UNL     1      -8.784  -2.549   0.834  0.00  0.00    -0.206 N 
ATOM     26  H   UNL     1      -8.200  -3.316   0.941  0.00  0.00    +0.177 HD
BRANCH  25  27
ATOM     27  N   UNL     1     -10.173  -2.706   0.935  0.00  0.00    -0.185 NA
ATOM     28  C   UNL     1     -10.677  -3.878   1.173  0.00  0.00    +0.063 C 
ATOM     29  C   UNL     1      -9.770  -5.069   1.340  0.00  0.00    +0.068 C 
BRANCH  28  30
ATOM     30  C   UNL     1     -12.139  -4.043   1.279  0.00  0.00    -0.002 A 
ATOM     31  C   UNL     1     -12.684  -5.305   1.530  0.00  0.00    +0.013 A 
ATOM     32  C   UNL     1     -14.050  -5.454   1.635  0.00  0.00    +0.046 A 
ATOM     33  C   UNL     1     -14.885  -4.355   1.479  0.00  0.00    +0.117 A 
ATOM     34  C   UNL     1     -14.347  -3.100   1.224  0.00  0.00    +0.046 A 
ATOM     35  C   UNL     1     -12.982  -2.940   1.124  0.00  0.00    +0.013 A 
BRANCH  33  36
ATOM     36  O   UNL     1     -16.231  -4.507   1.577  0.00  0.00    -0.507 OA
ATOM     37  H   UNL     1     -16.666  -4.708   0.738  0.00  0.00    +0.292 HD
ENDBRANCH  33  36
ENDBRANCH  28  30
ENDBRANCH  25  27
ENDBRANCH  22  23
ENDBRANCH  21  22
ENDBRANCH   5  21
TORSDOF 9
