REMARK  Name = ZINC29575738
REMARK  11 active torsions:
REMARK  status: ('A' for Active; 'I' for Inactive)
REMARK    1  A    between atoms: C_1  and  C_2
REMARK    2  A    between atoms: C_2  and  O_3
REMARK    3  A    between atoms: O_3  and  C_4
REMARK    4  A    between atoms: C_4  and  C_5
REMARK    5  A    between atoms: C_5  and  C_6
REMARK    6  A    between atoms: C_6  and  N_7
REMARK    7  A    between atoms: C_8  and  S_10
REMARK    8  A    between atoms: S_10  and  C_11
REMARK    9  A    between atoms: C_11  and  C_12
REMARK   10  A    between atoms: C_16  and  C_25
REMARK   11  A    between atoms: N_27  and  C_28
REMARK                            x       y       z     vdW  Elec       q    Type
REMARK                         _______ _______ _______ _____ _____    ______ ____
ROOT
ATOM      1  C   UNL     1       1.306  -2.014  -0.265  0.00  0.00    +0.230 C 
ATOM      2  O   UNL     1       2.379  -2.579  -0.304  0.00  0.00    -0.274 OA
ATOM      3  N   UNL     1       1.251  -0.686  -0.039  0.00  0.00    -0.264 N 
ATOM      4  C   UNL     1      -0.029   0.041  -0.078  0.00  0.00    +0.168 C 
ATOM      5  C   UNL     1      -0.036   1.030   1.097  0.00  0.00    +0.276 C 
ATOM      6  O   UNL     1       1.087   1.905   0.970  0.00  0.00    -0.476 OA
ATOM      7  C   UNL     1       2.305   1.345   0.748  0.00  0.00    +0.143 A 
ATOM      8  C   UNL     1       2.414   0.052   0.241  0.00  0.00    +0.078 A 
ATOM      9  C   UNL     1       3.662  -0.504   0.014  0.00  0.00    +0.027 A 
ATOM     10  C   UNL     1       4.803   0.226   0.294  0.00  0.00    +0.002 A 
ATOM     11  C   UNL     1       4.698   1.508   0.800  0.00  0.00    +0.004 A 
ATOM     12  C   UNL     1       3.454   2.070   1.024  0.00  0.00    +0.047 A 
ENDROOT
BRANCH   5  13
ATOM     13  C   UNL     1      -1.311   1.832   1.074  0.00  0.00    +0.255 C 
ATOM     14  O   UNL     1      -1.271   3.029   0.880  0.00  0.00    -0.272 OA
ATOM     15  N   UNL     1      -2.496   1.221   1.270  0.00  0.00    -0.315 N 
ATOM     16  C   UNL     1      -3.736   2.001   1.247  0.00  0.00    +0.128 C 
ATOM     17  H   UNL     1      -2.532   0.136   1.446  0.00  0.00    +0.148 HD
ENDBRANCH   5  13
BRANCH   1  18
ATOM     18  C   UNL     1       0.035  -2.797  -0.469  0.00  0.00    +0.173 C 
BRANCH  18  19
ATOM     19  S   UNL     1       0.426  -4.559  -0.604  0.00  0.00    -0.084 S 
BRANCH  19  21
ATOM     20  N   UNL     1      -2.224  -4.416  -0.855  0.00  0.00    -0.368 N 
ATOM     21  C   UNL     1      -1.193  -5.215  -0.831  0.00  0.00    +0.126 C 
ATOM     22  N   UNL     1      -1.371  -6.571  -0.982  0.00  0.00    -0.339 N 
ATOM     23  H   UNL     1      -0.502  -7.245  -0.962  0.00  0.00    +0.144 HD
ATOM     24  H   UNL     1      -2.382  -6.981  -1.123  0.00  0.00    +0.144 HD
ATOM     25  H   UNL     1      -2.075  -3.326  -0.837  0.00  0.00    +0.161 HD
BRANCH  20  26
ATOM     26  C   UNL     1      -3.579  -4.970  -0.905  0.00  0.00    +0.116 C 
BRANCH  26  27
ATOM     27  C   UNL     1      -4.336  -4.581   0.367  0.00  0.00    +0.049 C 
BRANCH  27  28
ATOM     28  C   UNL     1      -5.752  -5.159   0.315  0.00  0.00    +0.161 C 
BRANCH  28  29
ATOM     29  O   UNL     1      -6.458  -4.796   1.502  0.00  0.00    -0.380 OA
BRANCH  29  31
ATOM     30  C   UNL     1      -8.456  -4.843   2.862  0.00  0.00    +0.034 C 
ATOM     31  C   UNL     1      -7.799  -5.289   1.554  0.00  0.00    +0.156 C 
ENDBRANCH  29  31
ENDBRANCH  28  29
ENDBRANCH  27  28
ENDBRANCH  26  27
ENDBRANCH  20  26
ENDBRANCH  19  21
ENDBRANCH  18  19
ENDBRANCH   1  18
TORSDOF 9
