REMARK  Name = ZINC40661849
REMARK  9 active torsions:
REMARK  status: ('A' for Active; 'I' for Inactive)
REMARK    1  A    between atoms: C_1  and  C_2
REMARK    2  A    between atoms: C_2  and  N_3
REMARK    3  A    between atoms: N_3  and  C_4
REMARK    4  A    between atoms: C_8  and  C_10
REMARK    5  A    between atoms: C_12  and  N_26
REMARK    6  A    between atoms: C_13  and  N_17
REMARK    7  A    between atoms: N_17  and  C_18
REMARK    8  A    between atoms: C_18  and  C_19
REMARK    9  A    between atoms: C_22  and  C_25
REMARK                            x       y       z     vdW  Elec       q    Type
REMARK                         _______ _______ _______ _____ _____    ______ ____
ROOT
ATOM      1  N   UNL     1       0.685  -0.471  -1.201  0.00  0.00    -0.285 N 
ATOM      2  C   UNL     1      -0.121  -0.676  -2.315  0.00  0.00    +0.129 A 
ATOM      3  C   UNL     1      -1.484  -0.378  -2.269  0.00  0.00    +0.104 A 
ATOM      4  C   UNL     1      -2.247  -0.602  -3.416  0.00  0.00    +0.145 A 
ATOM      5  N   UNL     1      -1.651  -1.087  -4.503  0.00  0.00    -0.221 NA
ATOM      6  C   UNL     1      -0.361  -1.355  -4.504  0.00  0.00    +0.200 A 
ATOM      7  N   UNL     1       0.396  -1.153  -3.445  0.00  0.00    -0.332 N 
ATOM      8  H   UNL     1       1.343  -1.359  -3.488  0.00  0.00    +0.168 HD
ENDROOT
BRANCH   1   9
ATOM      9  C   UNL     1       0.943  -1.527  -0.322  0.00  0.00    +0.035 A 
ATOM     10  C   UNL     1       0.487  -2.806  -0.617  0.00  0.00    +0.023 A 
ATOM     11  C   UNL     1       0.744  -3.847   0.253  0.00  0.00    +0.002 A 
ATOM     12  C   UNL     1       1.456  -3.618   1.417  0.00  0.00    +0.003 A 
ATOM     13  C   UNL     1       1.911  -2.346   1.713  0.00  0.00    -0.049 A 
ATOM     14  C   UNL     1       1.662  -1.302   0.845  0.00  0.00    +0.026 A 
ATOM     15  C   UNL     1       2.685  -2.101   2.983  0.00  0.00    +0.044 C 
ENDBRANCH   1   9
BRANCH   3  16
ATOM     16  N   UNL     1      -2.072   0.132  -1.100  0.00  0.00    -0.353 N 
ATOM     17  H   UNL     1      -1.546   0.213  -0.289  0.00  0.00    +0.143 HD
ATOM     18  H   UNL     1      -3.003   0.403  -1.104  0.00  0.00    +0.143 HD
ENDBRANCH   3  16
BRANCH   1  20
ATOM     19  C   UNL     1       2.682   0.905  -1.516  0.00  0.00    +0.025 C 
ATOM     20  C   UNL     1       1.262   0.851  -0.947  0.00  0.00    +0.109 C 
ENDBRANCH   1  20
BRANCH   4  21
ATOM     21  N   UNL     1      -3.609  -0.324  -3.424  0.00  0.00    -0.323 N 
ATOM     22  H   UNL     1      -4.036   0.029  -2.628  0.00  0.00    +0.148 HD
BRANCH  21  23
ATOM     23  C   UNL     1      -4.399  -0.563  -4.634  0.00  0.00    +0.138 C 
BRANCH  23  24
ATOM     24  C   UNL     1      -5.835  -0.182  -4.380  0.00  0.00    -0.030 A 
ATOM     25  C   UNL     1      -6.722  -1.121  -3.888  0.00  0.00    +0.005 A 
ATOM     26  C   UNL     1      -8.039  -0.771  -3.655  0.00  0.00    +0.003 A 
ATOM     27  C   UNL     1      -8.469   0.517  -3.914  0.00  0.00    -0.050 A 
ATOM     28  C   UNL     1      -7.581   1.456  -4.406  0.00  0.00    +0.003 A 
ATOM     29  C   UNL     1      -6.263   1.107  -4.635  0.00  0.00    +0.005 A 
ATOM     30  C   UNL     1      -9.905   0.898  -3.661  0.00  0.00    +0.044 C 
ENDBRANCH  23  24
ENDBRANCH  21  23
ENDBRANCH   4  21
TORSDOF 6
