REMARK  Name = ZINC51965261
REMARK  12 active torsions:
REMARK  status: ('A' for Active; 'I' for Inactive)
REMARK    1  A    between atoms: C_1  and  C_2
REMARK    2  A    between atoms: C_2  and  C_4
REMARK    3  A    between atoms: C_2  and  N_16
REMARK    4  A    between atoms: C_7  and  N_10
REMARK    5  A    between atoms: C_11  and  C_13
REMARK    6  A    between atoms: C_17  and  C_19
REMARK    7  A    between atoms: C_19  and  N_20
REMARK    8  A    between atoms: N_20  and  C_21
REMARK    9  A    between atoms: C_21  and  C_23
REMARK   10  A    between atoms: C_21  and  C_28
REMARK   11  A    between atoms: C_28  and  C_29
REMARK   12  A    between atoms: C_28  and  C_30
REMARK                            x       y       z     vdW  Elec       q    Type
REMARK                         _______ _______ _______ _____ _____    ______ ____
ROOT
ATOM      1  N   UNL     1       1.556  -0.822   0.866  0.00  0.00    -0.310 N 
ATOM      2  C   UNL     1       0.893  -0.844   2.039  0.00  0.00    +0.196 C 
ATOM      3  O   UNL     1      -0.308  -0.680   2.059  0.00  0.00    -0.278 OA
ATOM      4  H   UNL     1       2.517  -0.953   0.849  0.00  0.00    +0.149 HD
ENDROOT
BRANCH   1   6
ATOM      5  C   UNL     1       0.659   0.902  -0.619  0.00  0.00    +0.033 C 
ATOM      6  C   UNL     1       0.826  -0.601  -0.385  0.00  0.00    +0.100 C 
BRANCH   6   7
ATOM      7  C   UNL     1       1.596  -1.205  -1.530  0.00  0.00    -0.027 A 
ATOM      8  C   UNL     1       2.974  -1.098  -1.568  0.00  0.00    +0.007 A 
ATOM      9  C   UNL     1       3.683  -1.651  -2.616  0.00  0.00    +0.023 A 
ATOM     10  C   UNL     1       3.010  -2.316  -3.633  0.00  0.00    +0.033 A 
ATOM     11  C   UNL     1       1.626  -2.422  -3.592  0.00  0.00    +0.023 A 
ATOM     12  C   UNL     1       0.923  -1.871  -2.539  0.00  0.00    +0.007 A 
BRANCH  10  13
ATOM     13  N   UNL     1       3.725  -2.877  -4.697  0.00  0.00    -0.285 N 
ATOM     14  C   UNL     1       4.958  -3.380  -4.489  0.00  0.00    +0.220 C 
ATOM     15  O   UNL     1       5.410  -3.432  -3.365  0.00  0.00    -0.275 OA
ATOM     16  H   UNL     1       3.333  -2.904  -5.584  0.00  0.00    +0.155 HD
BRANCH  14  17
ATOM     17  C   UNL     1       5.774  -3.879  -5.654  0.00  0.00    +0.075 C 
ATOM     18  C   UNL     1       6.030  -5.385  -5.744  0.00  0.00    +0.013 C 
ATOM     19  C   UNL     1       7.166  -4.438  -5.353  0.00  0.00    +0.013 C 
ENDBRANCH  14  17
ENDBRANCH  10  13
ENDBRANCH   6   7
ENDBRANCH   1   6
BRANCH   2  20
ATOM     20  C   UNL     1       1.645  -1.071   3.325  0.00  0.00    +0.016 C 
BRANCH  20  21
ATOM     21  N   UNL     1       0.703  -1.050   4.453  0.00  0.00    +0.390 N 
ATOM     22  H   UNL     1       0.181  -0.187   4.438  0.00  0.00    -0.084 HD
ATOM     23  H   UNL     1       0.067  -1.830   4.375  0.00  0.00    -0.084 HD
BRANCH  21  24
ATOM     24  C   UNL     1       1.448  -1.151   5.715  0.00  0.00    -0.031 C 
BRANCH  24  25
ATOM     25  C   UNL     1       2.116  -2.499   5.798  0.00  0.00    -0.024 A 
ATOM     26  C   UNL     1       3.349  -2.814   6.265  0.00  0.00    +0.009 A 
ATOM     27  C   UNL     1       3.756  -4.135   6.245  0.00  0.00    +0.008 A 
ATOM     28  C   UNL     1       2.910  -5.076   5.759  0.00  0.00    +0.045 A 
ATOM     29  S   UNL     1       1.485  -4.098   5.314  0.00  0.00    -0.103 S 
ENDBRANCH  24  25
BRANCH  24  30
ATOM     30  C   UNL     1       0.484  -0.985   6.891  0.00  0.00    -0.027 C 
ATOM     31  C   UNL     1       1.267  -1.042   8.204  0.00  0.00    +0.006 C 
ATOM     32  C   UNL     1      -0.229   0.364   6.780  0.00  0.00    +0.006 C 
ENDBRANCH  24  30
ENDBRANCH  21  24
ENDBRANCH  20  21
ENDBRANCH   2  20
TORSDOF 9
