REMARK  Name = ZINC34734815
REMARK  9 active torsions:
REMARK  status: ('A' for Active; 'I' for Inactive)
REMARK    1  A    between atoms: C_1  and  C_2
REMARK    2  A    between atoms: C_2  and  C_3
REMARK    3  A    between atoms: C_2  and  C_4
REMARK    4  A    between atoms: C_4  and  N_5
REMARK    5  A    between atoms: C_20  and  C_22
REMARK    6  A    between atoms: C_20  and  C_23
REMARK    7  A    between atoms: N_26  and  C_27
REMARK    8  A    between atoms: C_27  and  C_28
REMARK    9  A    between atoms: N_30  and  C_31
REMARK                            x       y       z     vdW  Elec       q    Type
REMARK                         _______ _______ _______ _____ _____    ______ ____
ROOT
ATOM      1  N   UNL     1      -1.474   0.753  -2.218  0.00  0.00    +0.382 N 
ATOM      2  C   UNL     1      -2.014   1.401  -3.420  0.00  0.00    -0.060 C 
ATOM      3  C   UNL     1      -3.475   0.983  -3.611  0.00  0.00    +0.089 C 
ATOM      4  N   UNL     1      -3.542  -0.486  -3.631  0.00  0.00    -0.304 N 
ATOM      5  C   UNL     1      -2.882  -1.225  -2.543  0.00  0.00    +0.089 C 
ATOM      6  C   UNL     1      -1.448  -0.703  -2.402  0.00  0.00    -0.060 C 
ATOM      7  C   UNL     1      -4.202  -1.150  -4.636  0.00  0.00    +0.202 A 
ATOM      8  N   UNL     1      -3.549  -1.489  -5.728  0.00  0.00    -0.208 NA
ATOM      9  C   UNL     1      -4.162  -2.131  -6.715  0.00  0.00    +0.118 A 
ATOM     10  C   UNL     1      -5.522  -2.479  -6.650  0.00  0.00    +0.076 A 
ATOM     11  C   UNL     1      -6.055  -3.182  -7.815  0.00  0.00    -0.018 A 
ATOM     12  C   UNL     1      -5.199  -3.427  -8.830  0.00  0.00    +0.021 A 
ATOM     13  S   UNL     1      -3.653  -2.745  -8.302  0.00  0.00    -0.071 S 
ATOM     14  C   UNL     1      -5.523  -4.129 -10.112  0.00  0.00    +0.203 C 
ATOM     15  O   UNL     1      -6.798  -4.773  -9.954  0.00  0.00    -0.368 OA
ATOM     16  C   UNL     1      -7.804  -3.918  -9.404  0.00  0.00    +0.068 C 
ATOM     17  C   UNL     1      -7.508  -3.638  -7.928  0.00  0.00    +0.071 C 
ATOM     18  C   UNL     1      -7.826  -2.598 -10.176  0.00  0.00    +0.041 C 
ATOM     19  C   UNL     1      -9.169  -4.597  -9.527  0.00  0.00    +0.041 C 
ATOM     20  C   UNL     1      -6.205  -2.098  -5.451  0.00  0.00    +0.264 A 
ATOM     21  O   UNL     1      -7.386  -2.357  -5.304  0.00  0.00    -0.267 OA
ATOM     22  N   UNL     1      -5.523  -1.453  -4.487  0.00  0.00    -0.271 N 
ATOM     23  H   UNL     1      -2.057   0.980  -1.426  0.00  0.00    -0.082 HD
ENDROOT
BRANCH   1  24
ATOM     24  C   UNL     1      -0.109   1.239  -1.973  0.00  0.00    -0.076 C 
BRANCH  24  26
ATOM     25  C   UNL     1      -0.900   2.959  -0.343  0.00  0.00    +0.005 C 
ATOM     26  C   UNL     1      -0.149   2.735  -1.657  0.00  0.00    -0.034 C 
ATOM     27  C   UNL     1       1.279   3.267  -1.525  0.00  0.00    +0.005 C 
ENDBRANCH  24  26
ENDBRANCH   1  24
BRANCH  22  28
ATOM     28  C   UNL     1      -6.214  -1.065  -3.255  0.00  0.00    +0.223 C 
BRANCH  28  29
ATOM     29  C   UNL     1      -6.880   0.272  -3.452  0.00  0.00    +0.233 C 
ATOM     30  O   UNL     1      -6.786   0.845  -4.517  0.00  0.00    -0.274 OA
ATOM     31  N   UNL     1      -7.580   0.832  -2.445  0.00  0.00    -0.311 N 
ATOM     32  H   UNL     1      -7.655   0.373  -1.594  0.00  0.00    +0.149 HD
BRANCH  31  33
ATOM     33  C   UNL     1      -8.227   2.132  -2.637  0.00  0.00    +0.073 C 
ATOM     34  C   UNL     1      -7.219   3.249  -2.362  0.00  0.00    +0.022 C 
ATOM     35  C   UNL     1      -7.895   4.607  -2.562  0.00  0.00    +0.002 C 
ATOM     36  C   UNL     1      -9.075   4.736  -1.598  0.00  0.00    +0.000 C 
ATOM     37  C   UNL     1     -10.084   3.619  -1.873  0.00  0.00    +0.002 C 
ATOM     38  C   UNL     1      -9.408   2.261  -1.673  0.00  0.00    +0.022 C 
ENDBRANCH  31  33
ENDBRANCH  28  29
ENDBRANCH  22  28
TORSDOF 5
