REMARK  Name = ZINC59350281
REMARK  12 active torsions:
REMARK  status: ('A' for Active; 'I' for Inactive)
REMARK    1  A    between atoms: C_1  and  C_2
REMARK    2  A    between atoms: C_2  and  C_3
REMARK    3  A    between atoms: C_3  and  N_4
REMARK    4  A    between atoms: N_4  and  C_5
REMARK    5  A    between atoms: N_4  and  C_20
REMARK    6  A    between atoms: C_5  and  C_6
REMARK    7  A    between atoms: N_8  and  C_9
REMARK    8  A    between atoms: C_13  and  C_15
REMARK    9  A    between atoms: N_17  and  C_18
REMARK   10  A    between atoms: N_17  and  C_19
REMARK   11  A    between atoms: C_20  and  C_22
REMARK   12  A    between atoms: C_20  and  C_23
REMARK                            x       y       z     vdW  Elec       q    Type
REMARK                         _______ _______ _______ _____ _____    ______ ____
ROOT
ATOM      1  C   UNL     1       1.801  -2.402  -0.208  0.00  0.00    +0.020 C 
ENDROOT
BRANCH   1   2
ATOM      2  C   UNL     1       1.135  -1.782  -1.409  0.00  0.00    +0.201 C 
ATOM      3  O   UNL     1       0.154  -1.083  -1.265  0.00  0.00    -0.278 OA
ATOM      4  N   UNL     1       1.629  -2.004  -2.643  0.00  0.00    -0.287 N 
ATOM      5  H   UNL     1       2.371  -2.617  -2.765  0.00  0.00    +0.155 HD
BRANCH   4   6
ATOM      6  C   UNL     1       1.071  -1.351  -3.748  0.00  0.00    +0.034 A 
ATOM      7  C   UNL     1       1.003  -1.998  -4.976  0.00  0.00    +0.023 A 
ATOM      8  C   UNL     1       0.453  -1.358  -6.071  0.00  0.00    +0.003 A 
ATOM      9  C   UNL     1      -0.032  -0.071  -5.951  0.00  0.00    +0.013 A 
ATOM     10  C   UNL     1       0.032   0.587  -4.722  0.00  0.00    +0.039 A 
ATOM     11  C   UNL     1       0.581  -0.061  -3.616  0.00  0.00    +0.036 A 
BRANCH  10  12
ATOM     12  C   UNL     1      -0.487   1.966  -4.592  0.00  0.00    +0.246 C 
ATOM     13  O   UNL     1      -1.024   2.318  -3.559  0.00  0.00    -0.270 OA
ATOM     14  N   UNL     1      -0.365   2.832  -5.617  0.00  0.00    -0.304 N 
ATOM     15  C   UNL     1      -0.788   4.225  -5.454  0.00  0.00    +0.132 C 
ATOM     16  C   UNL     1       0.192   2.380  -6.895  0.00  0.00    +0.132 C 
ENDBRANCH  10  12
ENDBRANCH   4   6
ENDBRANCH   1   2
BRANCH   1  17
ATOM     17  N   UNL     1       1.173  -1.891   1.018  0.00  0.00    +0.390 N 
ATOM     18  H   UNL     1       0.176  -2.038   0.972  0.00  0.00    -0.080 HD
BRANCH  17  19
ATOM     19  C   UNL     1       1.720  -2.603   2.181  0.00  0.00    -0.040 C 
ATOM     20  C   UNL     1       1.066  -2.071   3.458  0.00  0.00    -0.008 C 
BRANCH  19  21
ATOM     21  C   UNL     1       1.435  -4.077   2.047  0.00  0.00    -0.060 A 
ATOM     22  C   UNL     1       0.216  -4.503   1.553  0.00  0.00    +0.003 A 
ATOM     23  C   UNL     1      -0.046  -5.854   1.430  0.00  0.00    +0.021 A 
ATOM     24  C   UNL     1       0.911  -6.782   1.801  0.00  0.00    +0.059 A 
ATOM     25  C   UNL     1       2.132  -6.355   2.296  0.00  0.00    +0.059 A 
ATOM     26  C   UNL     1       2.395  -5.002   2.413  0.00  0.00    +0.023 A 
ATOM     27 CL   UNL     1       3.334  -7.517   2.762  0.00  0.00    -0.082 Cl
ATOM     28 CL   UNL     1       0.581  -8.479   1.648  0.00  0.00    -0.082 Cl
ENDBRANCH  19  21
ENDBRANCH  17  19
BRANCH  17  29
ATOM     29  C   UNL     1       1.451  -0.455   1.149  0.00  0.00    -0.078 C 
BRANCH  29  31
ATOM     30  C   UNL     1       3.250   1.279   1.169  0.00  0.00    +0.002 C 
ATOM     31  C   UNL     1       2.963  -0.224   1.131  0.00  0.00    -0.022 C 
ENDBRANCH  29  31
ENDBRANCH  17  29
ENDBRANCH   1  17
TORSDOF 8
