REMARK  Name = ZINC36164766
REMARK  5 active torsions:
REMARK  status: ('A' for Active; 'I' for Inactive)
REMARK    1  A    between atoms: C_1  and  C_2
REMARK    2  A    between atoms: C_5  and  C_8
REMARK    3  A    between atoms: C_8  and  N_9
REMARK    4  A    between atoms: C_13  and  C_30
REMARK    5  A    between atoms: C_23  and  C_25
REMARK                            x       y       z     vdW  Elec       q    Type
REMARK                         _______ _______ _______ _____ _____    ______ ____
ROOT
ATOM      1  N   UNL     1       1.466  -4.741  -0.093  0.00  0.00    -0.264 N 
ATOM      2  C   UNL     1       2.227  -4.998  -1.237  0.00  0.00    +0.043 A 
ATOM      3  C   UNL     1       1.908  -4.883  -2.587  0.00  0.00    +0.024 A 
ATOM      4  C   UNL     1       2.842  -5.199  -3.552  0.00  0.00    +0.005 A 
ATOM      5  C   UNL     1       4.103  -5.633  -3.186  0.00  0.00    -0.050 A 
ATOM      6  C   UNL     1       4.429  -5.752  -1.847  0.00  0.00    +0.012 A 
ATOM      7  C   UNL     1       3.500  -5.438  -0.880  0.00  0.00    +0.017 A 
ATOM      8  C   UNL     1       3.516  -5.453   0.619  0.00  0.00    +0.188 C 
ATOM      9  C   UNL     1       2.156  -4.979   1.040  0.00  0.00    +0.259 C 
ATOM     10  O   UNL     1       1.756  -4.840   2.177  0.00  0.00    -0.272 OA
ATOM     11  N   UNL     1       4.596  -4.649   1.187  0.00  0.00    -0.268 N 
ATOM     12  C   UNL     1       5.624  -5.392   1.919  0.00  0.00    +0.121 C 
ATOM     13  C   UNL     1       5.019  -6.661   2.591  0.00  0.00    +0.091 C 
ATOM     14  S   UNL     1       3.841  -7.145   1.248  0.00  0.00    -0.120 S 
ATOM     15  C   UNL     1       4.642  -3.309   1.047  0.00  0.00    +0.284 C 
ATOM     16  O   UNL     1       3.808  -2.739   0.369  0.00  0.00    -0.267 OA
ATOM     17  C   UNL     1       5.119  -5.978  -4.244  0.00  0.00    +0.044 C 
ENDROOT
BRANCH  15  18
ATOM     18  C   UNL     1       5.698  -2.538   1.712  0.00  0.00    +0.189 A 
ATOM     19  C   UNL     1       5.793  -1.177   1.752  0.00  0.00    +0.054 A 
ATOM     20  C   UNL     1       6.949  -0.875   2.489  0.00  0.00    +0.042 A 
ATOM     21  C   UNL     1       7.502  -2.051   2.862  0.00  0.00    +0.196 A 
ATOM     22  O   UNL     1       6.742  -3.050   2.396  0.00  0.00    -0.458 OA
ENDBRANCH  15  18
BRANCH   1  23
ATOM     23  C   UNL     1       0.082  -4.263  -0.123  0.00  0.00    +0.148 C 
BRANCH  23  28
ATOM     24  C   UNL     1       0.036   1.515  -0.162  0.00  0.00    +0.044 C 
ATOM     25  C   UNL     1       0.048   0.008  -0.151  0.00  0.00    -0.050 A 
ATOM     26  C   UNL     1       0.077  -0.691  -1.344  0.00  0.00    +0.003 A 
ATOM     27  C   UNL     1       0.089  -2.073  -1.335  0.00  0.00    +0.005 A 
ATOM     28  C   UNL     1       0.071  -2.756  -0.133  0.00  0.00    -0.030 A 
ATOM     29  C   UNL     1       0.042  -2.058   1.059  0.00  0.00    +0.005 A 
ATOM     30  C   UNL     1       0.035  -0.675   1.050  0.00  0.00    +0.003 A 
ENDBRANCH  23  28
ENDBRANCH   1  23
TORSDOF 3
