REMARK  Name = ZINC15522996
REMARK  13 active torsions:
REMARK  status: ('A' for Active; 'I' for Inactive)
REMARK    1  A    between atoms: C_1  and  C_2
REMARK    2  A    between atoms: C_5  and  C_7
REMARK    3  A    between atoms: C_7  and  N_61
REMARK    4  A    between atoms: C_8  and  C_9
REMARK    5  A    between atoms: C_8  and  N_61
REMARK    6  A    between atoms: C_9  and  C_10
REMARK    7  A    between atoms: C_16  and  C_17
REMARK    8  A    between atoms: C_16  and  N_61
REMARK    9  A    between atoms: N_19  and  C_20
REMARK   10  A    between atoms: C_20  and  C_21
REMARK   11  A    between atoms: C_21  and  C_22
REMARK   12  A    between atoms: C_25  and  S_28
REMARK   13  A    between atoms: S_28  and  N_31
REMARK                            x       y       z     vdW  Elec       q    Type
REMARK                         _______ _______ _______ _____ _____    ______ ____
ROOT
ATOM      1  C   UNL     1       1.965  -3.810  -1.314  0.00  0.00    +0.019 C 
ENDROOT
BRANCH   1   2
ATOM      2  C   UNL     1       3.437  -3.790  -0.991  0.00  0.00    +0.196 C 
ATOM      3  O   UNL     1       4.022  -2.732  -0.890  0.00  0.00    -0.278 OA
ATOM      4  N   UNL     1       4.104  -4.948  -0.813  0.00  0.00    -0.317 N 
ATOM      5  H   UNL     1       3.636  -5.794  -0.893  0.00  0.00    +0.149 HD
BRANCH   4   6
ATOM      6  C   UNL     1       5.534  -4.929  -0.498  0.00  0.00    +0.109 C 
BRANCH   6   7
ATOM      7  C   UNL     1       6.043  -6.364  -0.348  0.00  0.00    +0.054 C 
BRANCH   7   8
ATOM      8  C   UNL     1       7.514  -6.344  -0.025  0.00  0.00    -0.046 A 
ATOM      9  C   UNL     1       8.447  -6.373  -1.045  0.00  0.00    +0.005 A 
ATOM     10  C   UNL     1       9.797  -6.350  -0.749  0.00  0.00    +0.029 A 
ATOM     11  C   UNL     1      10.215  -6.309   0.568  0.00  0.00    +0.105 A 
ATOM     12  C   UNL     1       9.283  -6.286   1.589  0.00  0.00    +0.029 A 
ATOM     13  C   UNL     1       7.932  -6.304   1.292  0.00  0.00    +0.005 A 
BRANCH  11  14
ATOM     14  S   UNL     1      11.935  -6.284   0.946  0.00  0.00    +0.056 S 
ATOM     15  O   UNL     1      12.595  -5.762  -0.199  0.00  0.00    -0.153 OA
ATOM     16  O   UNL     1      12.060  -5.694   2.233  0.00  0.00    -0.153 OA
BRANCH  14  17
ATOM     17  N   UNL     1      12.426  -7.859   1.098  0.00  0.00    -0.204 NA
ATOM     18  H   UNL     1      11.787  -8.579   0.977  0.00  0.00    +0.144 HD
ATOM     19  H   UNL     1      13.351  -8.061   1.307  0.00  0.00    +0.144 HD
ENDBRANCH  14  17
ENDBRANCH  11  14
ENDBRANCH   7   8
ENDBRANCH   6   7
ENDBRANCH   4   6
ENDBRANCH   1   2
BRANCH   1  20
ATOM     20  N   UNL     1       1.494  -2.418  -1.477  0.00  0.00    +0.389 N 
ATOM     21  H   UNL     1       2.108  -1.935  -2.143  0.00  0.00    -0.081 HD
BRANCH  20  22
ATOM     22  C   UNL     1       1.544  -1.713  -0.179  0.00  0.00    -0.035 C 
BRANCH  22  27
ATOM     23  C   UNL     1       1.998   3.826  -1.280  0.00  0.00    +0.051 C 
ATOM     24  C   UNL     1       1.621   2.404  -0.952  0.00  0.00    -0.013 A 
ATOM     25  C   UNL     1       0.405   1.893  -0.642  0.00  0.00    +0.011 A 
ATOM     26  C   UNL     1       0.294   0.541  -0.374  0.00  0.00    +0.009 A 
ATOM     27  C   UNL     1       1.406  -0.233  -0.427  0.00  0.00    -0.026 A 
ATOM     28  S   UNL     1       2.663   0.956  -0.868  0.00  0.00    -0.100 S 
ENDBRANCH  22  27
ENDBRANCH  20  22
BRANCH  20  29
ATOM     29  C   UNL     1       0.113  -2.411  -2.003  0.00  0.00    -0.073 C 
BRANCH  29  30
ATOM     30  C   UNL     1       0.145  -2.824  -3.476  0.00  0.00    +0.016 C 
BRANCH  30  31
ATOM     31  C   UNL     1      -1.242  -2.725  -4.056  0.00  0.00    -0.049 A 
ATOM     32  C   UNL     1      -2.088  -3.817  -4.014  0.00  0.00    +0.003 A 
ATOM     33  C   UNL     1      -3.362  -3.724  -4.542  0.00  0.00    +0.000 A 
ATOM     34  C   UNL     1      -3.787  -2.543  -5.120  0.00  0.00    +0.000 A 
ATOM     35  C   UNL     1      -2.938  -1.453  -5.168  0.00  0.00    +0.000 A 
ATOM     36  C   UNL     1      -1.666  -1.543  -4.635  0.00  0.00    +0.003 A 
ENDBRANCH  30  31
ENDBRANCH  29  30
ENDBRANCH  20  29
ENDBRANCH   1  20
TORSDOF 12
