REMARK  Name = ZINC09403872
REMARK  6 active torsions:
REMARK  status: ('A' for Active; 'I' for Inactive)
REMARK    1  A    between atoms: C_3  and  N_15
REMARK    2  A    between atoms: C_5  and  S_7
REMARK    3  A    between atoms: S_7  and  N_10
REMARK    4  A    between atoms: N_15  and  C_16
REMARK    5  A    between atoms: C_16  and  N_18
REMARK    6  A    between atoms: C_19  and  C_21
REMARK                            x       y       z     vdW  Elec       q    Type
REMARK                         _______ _______ _______ _____ _____    ______ ____
ROOT
ATOM      1  C   UNL     1       1.077   1.768   0.411  0.00  0.00    +0.004 A 
ATOM      2  C   UNL     1       1.076   3.150   0.413  0.00  0.00    +0.023 A 
ATOM      3  C   UNL     1      -0.065   3.842   0.029  0.00  0.00    +0.034 A 
ATOM      4  C   UNL     1      -1.202   3.143  -0.354  0.00  0.00    +0.052 A 
ATOM      5  C   UNL     1      -1.193   1.762  -0.358  0.00  0.00    +0.110 A 
ATOM      6  C   UNL     1      -0.057   1.075   0.029  0.00  0.00    +0.029 A 
ENDROOT
BRANCH   5   7
ATOM      7  S   UNL     1      -2.632   0.874  -0.852  0.00  0.00    +0.073 S 
ATOM      8  O   UNL     1      -3.381   1.746  -1.688  0.00  0.00    -0.150 OA
ATOM      9  O   UNL     1      -2.192  -0.406  -1.285  0.00  0.00    -0.150 OA
BRANCH   7  10
ATOM     10  N   UNL     1      -3.544   0.625   0.508  0.00  0.00    -0.205 N 
ATOM     11  C   UNL     1      -4.091   1.692   1.171  0.00  0.00    +0.088 C 
ATOM     12  C   UNL     1      -4.653   3.845   1.713  0.00  0.00    +0.114 C 
ATOM     13  C   UNL     1      -4.948   3.021   2.988  0.00  0.00    +0.028 C 
ATOM     14  C   UNL     1      -4.943   1.581   2.416  0.00  0.00    +0.072 C 
ATOM     15  H   UNL     1      -3.691  -0.276   0.835  0.00  0.00    +0.175 HD
ATOM     16  N   UNL     1      -3.943   2.926   0.798  0.00  0.00    -0.375 N 
ATOM     17  H   UNL     1      -3.404   3.224  -0.023  0.00  0.00    +0.161 HD
ENDBRANCH   7  10
ENDBRANCH   5   7
BRANCH   3  18
ATOM     18  N   UNL     1      -0.069   5.241   0.030  0.00  0.00    -0.297 N 
ATOM     19  H   UNL     1       0.296   5.727   0.786  0.00  0.00    +0.154 HD
BRANCH  18  20
ATOM     20  C   UNL     1      -0.581   5.914  -1.020  0.00  0.00    +0.141 C 
ATOM     21  S   UNL     1      -1.324   5.060  -2.304  0.00  0.00    -0.018 S 
BRANCH  20  22
ATOM     22  N   UNL     1      -0.508   7.259  -1.058  0.00  0.00    -0.264 N 
ATOM     23  C   UNL     1      -1.021   7.932  -2.108  0.00  0.00    +0.250 C 
ATOM     24  O   UNL     1      -1.548   7.325  -3.019  0.00  0.00    -0.270 OA
ATOM     25  H   UNL     1      -0.088   7.743  -0.330  0.00  0.00    +0.157 HD
BRANCH  23  26
ATOM     26  C   UNL     1      -0.941   9.406  -2.150  0.00  0.00    +0.037 A 
ATOM     27  C   UNL     1      -0.341  10.106  -1.101  0.00  0.00    +0.014 A 
ATOM     28  C   UNL     1      -0.264  11.482  -1.149  0.00  0.00    +0.016 A 
ATOM     29  C   UNL     1      -0.791  12.171  -2.229  0.00  0.00    +0.018 A 
ATOM     30  C   UNL     1      -1.393  11.483  -3.269  0.00  0.00    +0.016 A 
ATOM     31  C   UNL     1      -1.471  10.106  -3.236  0.00  0.00    +0.014 A 
ATOM     32 BR   UNL     1      -0.688  14.058  -2.284  0.00  0.00    -0.050 Br
ENDBRANCH  23  26
ENDBRANCH  20  22
ENDBRANCH  18  20
ENDBRANCH   3  18
TORSDOF 6
