REMARK  Name = ZINC44899848
REMARK  8 active torsions:
REMARK  status: ('A' for Active; 'I' for Inactive)
REMARK    1  A    between atoms: C_1  and  C_2
REMARK    2  A    between atoms: C_2  and  C_4
REMARK    3  A    between atoms: C_2  and  N_11
REMARK    4  A    between atoms: C_12  and  C_14
REMARK    5  A    between atoms: C_14  and  N_15
REMARK    6  A    between atoms: N_15  and  C_16
REMARK    7  A    between atoms: N_15  and  S_24
REMARK    8  A    between atoms: S_24  and  C_27
REMARK                            x       y       z     vdW  Elec       q    Type
REMARK                         _______ _______ _______ _____ _____    ______ ____
ROOT
ATOM      1  N   UNL     1      -3.942  -1.170  -2.492  0.00  0.00    -0.194 N 
ENDROOT
BRANCH   1   2
ATOM      2  C   UNL     1      -3.701  -2.400  -3.111  0.00  0.00    +0.053 A 
ATOM      3  C   UNL     1      -3.901  -2.541  -4.479  0.00  0.00    +0.027 A 
ATOM      4  C   UNL     1      -3.663  -3.757  -5.089  0.00  0.00    +0.042 A 
ATOM      5  C   UNL     1      -3.225  -4.835  -4.340  0.00  0.00    +0.142 A 
ATOM      6  C   UNL     1      -3.025  -4.698  -2.976  0.00  0.00    +0.078 A 
ATOM      7  C   UNL     1      -3.256  -3.481  -2.362  0.00  0.00    +0.047 A 
ATOM      8 CL   UNL     1      -2.476  -6.052  -2.038  0.00  0.00    -0.081 Cl
ATOM      9  F   UNL     1      -2.994  -6.024  -4.939  0.00  0.00    -0.204 F 
ENDBRANCH   1   2
BRANCH   1  10
ATOM     10  S   UNL     1      -5.487  -0.584  -2.387  0.00  0.00    +0.075 S 
ATOM     11  O   UNL     1      -6.356  -1.686  -2.613  0.00  0.00    -0.150 OA
ATOM     12  O   UNL     1      -5.545   0.201  -1.204  0.00  0.00    -0.150 OA
BRANCH  10  13
ATOM     13  C   UNL     1      -5.717   0.523  -3.739  0.00  0.00    +0.109 A 
ATOM     14  C   UNL     1      -5.287   1.833  -3.640  0.00  0.00    +0.029 A 
ATOM     15  C   UNL     1      -5.467   2.701  -4.700  0.00  0.00    +0.002 A 
ATOM     16  C   UNL     1      -6.077   2.260  -5.859  0.00  0.00    +0.000 A 
ATOM     17  C   UNL     1      -6.507   0.949  -5.958  0.00  0.00    +0.002 A 
ATOM     18  C   UNL     1      -6.323   0.080  -4.900  0.00  0.00    +0.029 A 
ENDBRANCH  10  13
ENDBRANCH   1  10
BRANCH   1  19
ATOM     19  C   UNL     1      -2.828  -0.400  -1.935  0.00  0.00    +0.227 C 
BRANCH  19  21
ATOM     20  N   UNL     1      -1.150   1.230  -2.740  0.00  0.00    -0.307 N 
ATOM     21  C   UNL     1      -2.201   0.434  -3.022  0.00  0.00    +0.233 C 
ATOM     22  O   UNL     1      -2.642   0.390  -4.151  0.00  0.00    -0.274 OA
ATOM     23  H   UNL     1      -0.797   1.265  -1.837  0.00  0.00    +0.149 HD
BRANCH  20  25
ATOM     24  C   UNL     1      -1.310   3.355  -3.939  0.00  0.00    +0.033 C 
ATOM     25  C   UNL     1      -0.540   2.041  -3.797  0.00  0.00    +0.100 C 
BRANCH  25  26
ATOM     26  C   UNL     1       0.894   2.334  -3.440  0.00  0.00    -0.027 A 
ATOM     27  C   UNL     1       1.234   2.629  -2.133  0.00  0.00    +0.008 A 
ATOM     28  C   UNL     1       2.550   2.898  -1.805  0.00  0.00    +0.038 A 
ATOM     29  C   UNL     1       3.526   2.873  -2.786  0.00  0.00    +0.123 A 
ATOM     30  C   UNL     1       3.184   2.578  -4.095  0.00  0.00    +0.038 A 
ATOM     31  C   UNL     1       1.869   2.304  -4.420  0.00  0.00    +0.008 A 
ATOM     32  F   UNL     1       4.812   3.136  -2.467  0.00  0.00    -0.205 F 
ENDBRANCH  25  26
ENDBRANCH  20  25
ENDBRANCH  19  21
ENDBRANCH   1  19
TORSDOF 7
