REMARK  Name = ZINC36157208
REMARK  11 active torsions:
REMARK  status: ('A' for Active; 'I' for Inactive)
REMARK    1  A    between atoms: C_1  and  C_2
REMARK    2  A    between atoms: C_5  and  C_8
REMARK    3  A    between atoms: C_8  and  N_9
REMARK    4  A    between atoms: N_9  and  C_10
REMARK    5  A    between atoms: N_9  and  C_32
REMARK    6  A    between atoms: C_10  and  C_11
REMARK    7  A    between atoms: C_14  and  C_16
REMARK    8  A    between atoms: C_16  and  C_17
REMARK    9  A    between atoms: C_16  and  C_24
REMARK   10  A    between atoms: C_16  and  O_31
REMARK   11  A    between atoms: C_32  and  C_33
REMARK                            x       y       z     vdW  Elec       q    Type
REMARK                         _______ _______ _______ _____ _____    ______ ____
ROOT
ATOM      1  C   UNL     1       3.597  -6.403   1.097  0.00  0.00    +0.089 A 
ATOM      2  C   UNL     1       4.826  -6.458   1.643  0.00  0.00    +0.043 A 
ATOM      3  C   UNL     1       5.735  -6.681   0.584  0.00  0.00    +0.048 A 
ATOM      4  C   UNL     1       5.008  -6.750  -0.546  0.00  0.00    +0.146 A 
ATOM      5  O   UNL     1       3.713  -6.586  -0.228  0.00  0.00    -0.463 OA
ENDROOT
BRANCH   1   6
ATOM      6  C   UNL     1       2.309  -6.180   1.847  0.00  0.00    -0.003 C 
BRANCH   6   7
ATOM      7  N   UNL     1       2.024  -4.741   1.913  0.00  0.00    +0.389 N 
ATOM      8  H   UNL     1       2.813  -4.260   2.318  0.00  0.00    -0.081 HD
BRANCH   7   9
ATOM      9  C   UNL     1       0.834  -4.515   2.745  0.00  0.00    -0.042 C 
BRANCH   9  14
ATOM     10  C   UNL     1       1.988  -6.001   8.209  0.00  0.00    +0.044 C 
ATOM     11  C   UNL     1       1.687  -5.614   6.784  0.00  0.00    -0.050 A 
ATOM     12  C   UNL     1       2.031  -4.357   6.322  0.00  0.00    +0.003 A 
ATOM     13  C   UNL     1       1.756  -4.002   5.014  0.00  0.00    +0.002 A 
ATOM     14  C   UNL     1       1.136  -4.903   4.169  0.00  0.00    -0.064 A 
ATOM     15  C   UNL     1       0.792  -6.160   4.631  0.00  0.00    +0.002 A 
ATOM     16  C   UNL     1       1.072  -6.517   5.937  0.00  0.00    +0.003 A 
ENDBRANCH   9  14
ENDBRANCH   7   9
BRANCH   7  17
ATOM     17  C   UNL     1       1.779  -4.227   0.559  0.00  0.00    -0.046 C 
BRANCH  17  18
ATOM     18  C   UNL     1       1.645  -2.704   0.608  0.00  0.00    +0.102 C 
ATOM     19  C   UNL     1       1.353  -2.158  -0.806  0.00  0.00    +0.032 C 
ATOM     20  C   UNL     1       2.201  -0.857  -0.839  0.00  0.00    +0.030 C 
ATOM     21  C   UNL     1       3.418  -1.278   0.023  0.00  0.00    +0.160 C 
ATOM     22  O   UNL     1       2.876  -2.121   1.053  0.00  0.00    -0.378 OA
ENDBRANCH  17  18
ENDBRANCH   7  17
ENDBRANCH   6   7
ENDBRANCH   1   6
BRANCH   4  23
ATOM     23  C   UNL     1       5.553  -6.977  -1.932  0.00  0.00    +0.174 C 
BRANCH  23  24
ATOM     24  C   UNL     1       4.525  -7.698  -2.765  0.00  0.00    -0.002 A 
ATOM     25  C   UNL     1       4.792  -8.966  -3.248  0.00  0.00    +0.007 A 
ATOM     26  C   UNL     1       3.849  -9.628  -4.011  0.00  0.00    +0.003 A 
ATOM     27  C   UNL     1       2.639  -9.023  -4.294  0.00  0.00    +0.038 A 
ATOM     28  C   UNL     1       2.370  -7.754  -3.811  0.00  0.00    +0.124 A 
ATOM     29  C   UNL     1       3.313  -7.094  -3.040  0.00  0.00    +0.045 A 
ATOM     30  F   UNL     1       1.188  -7.162  -4.086  0.00  0.00    -0.205 F 
ENDBRANCH  23  24
BRANCH  23  31
ATOM     31  C   UNL     1       5.875  -5.650  -2.569  0.00  0.00    -0.002 A 
ATOM     32  C   UNL     1       5.008  -4.583  -2.420  0.00  0.00    +0.007 A 
ATOM     33  C   UNL     1       5.301  -3.365  -3.004  0.00  0.00    +0.003 A 
ATOM     34  C   UNL     1       6.462  -3.212  -3.738  0.00  0.00    +0.038 A 
ATOM     35  C   UNL     1       7.331  -4.279  -3.888  0.00  0.00    +0.124 A 
ATOM     36  C   UNL     1       7.039  -5.497  -3.298  0.00  0.00    +0.045 A 
ATOM     37  F   UNL     1       8.466  -4.131  -4.606  0.00  0.00    -0.205 F 
ENDBRANCH  23  31
BRANCH  23  38
ATOM     38  O   UNL     1       6.741  -7.768  -1.853  0.00  0.00    -0.372 OA
ATOM     39  H   UNL     1       7.448  -7.364  -1.331  0.00  0.00    +0.212 HD
ENDBRANCH  23  38
ENDBRANCH   4  23
TORSDOF 10
