REMARK  Name = ZINC24804894
REMARK  10 active torsions:
REMARK  status: ('A' for Active; 'I' for Inactive)
REMARK    1  A    between atoms: C_1  and  N_2
REMARK    2  A    between atoms: N_2  and  C_3
REMARK    3  A    between atoms: N_2  and  C_20
REMARK    4  A    between atoms: C_3  and  C_4
REMARK    5  A    between atoms: N_6  and  C_7
REMARK    6  A    between atoms: C_7  and  C_8
REMARK    7  A    between atoms: C_8  and  N_14
REMARK    8  A    between atoms: C_20  and  C_21
REMARK    9  A    between atoms: N_23  and  C_24
REMARK   10  A    between atoms: C_29  and  C_30
REMARK                            x       y       z     vdW  Elec       q    Type
REMARK                         _______ _______ _______ _____ _____    ______ ____
ROOT
ATOM      1  C   UNL     1       2.341   1.055  -1.801  0.00  0.00    -0.095 C 
ATOM      2  N   UNL     1       2.210   1.720  -0.498  0.00  0.00    +0.389 N 
ATOM      3  H   UNL     1       1.915   0.960   0.241  0.00  0.00    -0.081 HD
ENDROOT
BRANCH   2   4
ATOM      4  C   UNL     1       3.493   2.292  -0.068  0.00  0.00    +0.019 C 
BRANCH   4   5
ATOM      5  C   UNL     1       4.476   1.181   0.194  0.00  0.00    +0.197 C 
ATOM      6  O   UNL     1       4.142   0.026   0.037  0.00  0.00    -0.278 OA
ATOM      7  N   UNL     1       5.728   1.471   0.602  0.00  0.00    -0.315 N 
ATOM      8  H   UNL     1       6.031   2.519   0.744  0.00  0.00    +0.149 HD
BRANCH   7   9
ATOM      9  C   UNL     1       6.684   0.391   0.856  0.00  0.00    +0.126 C 
BRANCH   9  10
ATOM     10  C   UNL     1       7.979   0.978   1.422  0.00  0.00    +0.038 C 
ATOM     11  C   UNL     1       9.023  -0.132   1.565  0.00  0.00    +0.024 C 
ATOM     12  C   UNL     1       8.494  -1.210   2.512  0.00  0.00    +0.002 C 
ATOM     13  C   UNL     1       8.216  -0.592   3.884  0.00  0.00    +0.000 C 
ATOM     14  C   UNL     1       7.173   0.517   3.742  0.00  0.00    +0.002 C 
ATOM     15  C   UNL     1       7.701   1.596   2.794  0.00  0.00    +0.024 C 
BRANCH  10  16
ATOM     16  N   UNL     1       8.486   2.014   0.512  0.00  0.00    -0.291 NA
ATOM     17  C   UNL     1       8.773   1.453  -0.816  0.00  0.00    +0.113 C 
ATOM     18  C   UNL     1       9.241   2.575  -1.747  0.00  0.00    +0.175 C 
ATOM     19  O   UNL     1      10.381   3.219  -1.173  0.00  0.00    -0.377 OA
ATOM     20  C   UNL     1      10.137   3.777   0.121  0.00  0.00    +0.175 C 
ATOM     21  C   UNL     1       9.678   2.668   1.071  0.00  0.00    +0.113 C 
ENDBRANCH  10  16
ENDBRANCH   9  10
ENDBRANCH   7   9
ENDBRANCH   4   5
ENDBRANCH   2   4
BRANCH   2  22
ATOM     22  C   UNL     1       1.161   2.747  -0.533  0.00  0.00    +0.019 C 
BRANCH  22  23
ATOM     23  C   UNL     1      -0.180   2.088  -0.737  0.00  0.00    +0.201 C 
ATOM     24  O   UNL     1      -0.254   0.882  -0.841  0.00  0.00    -0.278 OA
ATOM     25  N   UNL     1      -1.296   2.841  -0.808  0.00  0.00    -0.287 N 
ATOM     26  H   UNL     1      -1.238   3.927  -0.647  0.00  0.00    +0.155 HD
BRANCH  25  27
ATOM     27  C   UNL     1      -2.528   2.239  -1.086  0.00  0.00    +0.045 A 
ATOM     28  C   UNL     1      -2.796   0.956  -0.628  0.00  0.00    +0.024 A 
ATOM     29  C   UNL     1      -4.014   0.366  -0.900  0.00  0.00    +0.002 A 
ATOM     30  C   UNL     1      -4.964   1.049  -1.638  0.00  0.00    +0.001 A 
ATOM     31  C   UNL     1      -4.699   2.325  -2.100  0.00  0.00    +0.014 A 
ATOM     32  C   UNL     1      -3.484   2.922  -1.827  0.00  0.00    +0.076 A 
BRANCH  32  33
ATOM     33  C   UNL     1      -3.196   4.312  -2.331  0.00  0.00    +0.419 C 
ATOM     34  F   UNL     1      -4.301   4.788  -3.044  0.00  0.00    -0.166 F 
ATOM     35  F   UNL     1      -2.941   5.159  -1.247  0.00  0.00    -0.166 F 
ATOM     36  F   UNL     1      -2.077   4.281  -3.171  0.00  0.00    -0.166 F 
ENDBRANCH  32  33
ENDBRANCH  25  27
ENDBRANCH  22  23
ENDBRANCH   2  22
TORSDOF 9
