REMARK  Name = ZINC65740484
REMARK  13 active torsions:
REMARK  status: ('A' for Active; 'I' for Inactive)
REMARK    1  A    between atoms: C_1  and  N_2
REMARK    2  A    between atoms: N_2  and  C_3
REMARK    3  A    between atoms: N_2  and  C_4
REMARK    4  A    between atoms: C_4  and  C_5
REMARK    5  A    between atoms: C_5  and  C_6
REMARK    6  A    between atoms: C_6  and  C_8
REMARK    7  A    between atoms: C_6  and  N_16
REMARK    8  A    between atoms: C_8  and  S_9
REMARK    9  A    between atoms: S_9  and  C_10
REMARK   10  A    between atoms: N_16  and  C_17
REMARK   11  A    between atoms: C_20  and  S_26
REMARK   12  A    between atoms: C_22  and  N_23
REMARK   13  A    between atoms: S_26  and  N_29
REMARK                            x       y       z     vdW  Elec       q    Type
REMARK                         _______ _______ _______ _____ _____    ______ ____
ROOT
ATOM      1  N   UNL     1      -3.542  -2.171  -1.169  0.00  0.00    -0.338 N 
ATOM      2  H   UNL     1      -3.317  -2.542  -2.036  0.00  0.00    +0.146 HD
ENDROOT
BRANCH   1   3
ATOM      3  C   UNL     1      -4.638  -1.315  -1.038  0.00  0.00    +0.058 A 
ATOM      4  C   UNL     1      -5.043  -0.890   0.221  0.00  0.00    +0.027 A 
ATOM      5  C   UNL     1      -6.127  -0.043   0.347  0.00  0.00    +0.030 A 
ATOM      6  C   UNL     1      -6.808   0.382  -0.779  0.00  0.00    +0.107 A 
ATOM      7  C   UNL     1      -6.408  -0.040  -2.034  0.00  0.00    +0.063 A 
ATOM      8  C   UNL     1      -5.322  -0.882  -2.167  0.00  0.00    +0.149 A 
BRANCH   8   9
ATOM      9  N   UNL     1      -4.890  -1.328  -3.510  0.00  0.00    +0.058 N 
ATOM     10  O   UNL     1      -5.417  -0.870  -4.497  0.00  0.00    -0.126 OA
ATOM     11  O   UNL     1      -4.011  -2.150  -3.621  0.00  0.00    -0.126 OA
ENDBRANCH   8   9
BRANCH   6  12
ATOM     12  S   UNL     1      -8.190   1.462  -0.614  0.00  0.00    +0.056 S 
ATOM     13  O   UNL     1      -8.991   1.278  -1.774  0.00  0.00    -0.153 OA
ATOM     14  O   UNL     1      -8.698   1.275   0.700  0.00  0.00    -0.153 OA
BRANCH  12  15
ATOM     15  N   UNL     1      -7.611   3.012  -0.680  0.00  0.00    -0.204 NA
ATOM     16  H   UNL     1      -6.660   3.170  -0.792  0.00  0.00    +0.144 HD
ATOM     17  H   UNL     1      -8.222   3.762  -0.607  0.00  0.00    +0.144 HD
ENDBRANCH  12  15
ENDBRANCH   6  12
ENDBRANCH   1   3
BRANCH   1  18
ATOM     18  C   UNL     1      -2.733  -2.509   0.005  0.00  0.00    +0.079 C 
BRANCH  18  19
ATOM     19  C   UNL     1      -1.319  -1.951  -0.173  0.00  0.00    +0.004 C 
BRANCH  19  20
ATOM     20  C   UNL     1      -1.374  -0.422  -0.195  0.00  0.00    -0.078 C 
BRANCH  20  22
ATOM     21  C   UNL     1      -0.064   1.577  -0.399  0.00  0.00    -0.097 C 
ATOM     22  N   UNL     1      -0.008   0.116  -0.257  0.00  0.00    +0.376 N 
ATOM     23  C   UNL     1       0.711  -0.230   0.976  0.00  0.00    -0.097 C 
ATOM     24  H   UNL     1       0.473  -0.281  -1.050  0.00  0.00    -0.083 HD
ENDBRANCH  20  22
ENDBRANCH  19  20
ENDBRANCH  18  19
BRANCH  18  25
ATOM     25  C   UNL     1      -2.665  -4.030   0.157  0.00  0.00    +0.096 C 
BRANCH  25  26
ATOM     26  S   UNL     1      -4.341  -4.692   0.367  0.00  0.00    -0.123 S 
BRANCH  26  27
ATOM     27  C   UNL     1      -4.096  -6.429   0.526  0.00  0.00    +0.008 A 
ATOM     28  C   UNL     1      -2.812  -6.959   0.478  0.00  0.00    +0.015 A 
ATOM     29  C   UNL     1      -2.624  -8.321   0.604  0.00  0.00    +0.001 A 
ATOM     30  C   UNL     1      -3.711  -9.158   0.777  0.00  0.00    +0.000 A 
ATOM     31  C   UNL     1      -4.991  -8.635   0.825  0.00  0.00    +0.001 A 
ATOM     32  C   UNL     1      -5.186  -7.273   0.706  0.00  0.00    +0.015 A 
ENDBRANCH  26  27
ENDBRANCH  25  26
ENDBRANCH  18  25
ENDBRANCH   1  18
TORSDOF 11
