REMARK  Name = ZINC36629037
REMARK  6 active torsions:
REMARK  status: ('A' for Active; 'I' for Inactive)
REMARK    1  A    between atoms: C_1  and  C_2
REMARK    2  A    between atoms: C_2  and  C_3
REMARK    3  A    between atoms: C_2  and  N_4
REMARK    4  A    between atoms: C_10  and  N_15
REMARK    5  A    between atoms: C_11  and  C_12
REMARK    6  A    between atoms: C_16  and  C_18
REMARK                            x       y       z     vdW  Elec       q    Type
REMARK                         _______ _______ _______ _____ _____    ______ ____
ROOT
ATOM      1  N   UNL     1       0.639  -0.222  -1.304  0.00  0.00    +0.384 N 
ATOM      2  C   UNL     1       0.580  -1.649  -1.645  0.00  0.00    -0.073 C 
ATOM      3  C   UNL     1       0.948  -1.856  -3.118  0.00  0.00    +0.018 C 
ATOM      4  C   UNL     1       2.274  -1.153  -3.371  0.00  0.00    -0.027 A 
ATOM      5  C   UNL     1       2.731  -0.227  -2.497  0.00  0.00    -0.021 A 
ATOM      6  S   UNL     1       4.271   0.309  -3.177  0.00  0.00    -0.079 S 
ATOM      7  C   UNL     1       4.319  -0.641  -4.562  0.00  0.00    +0.085 A 
ATOM      8  C   UNL     1       3.146  -1.380  -4.507  0.00  0.00    +0.068 A 
ATOM      9  C   UNL     1       2.046   0.216  -1.242  0.00  0.00    -0.035 C 
ATOM     10  H   UNL     1       0.152   0.312  -2.008  0.00  0.00    -0.081 HD
ENDROOT
BRANCH   8  11
ATOM     11  C   UNL     1       2.802  -2.349  -5.552  0.00  0.00    +0.244 C 
ATOM     12  O   UNL     1       2.158  -1.995  -6.523  0.00  0.00    -0.270 OA
ATOM     13  N   UNL     1       3.199  -3.632  -5.439  0.00  0.00    -0.325 N 
ATOM     14  H   UNL     1       3.712  -3.914  -4.666  0.00  0.00    +0.145 HD
ATOM     15  H   UNL     1       2.972  -4.273  -6.131  0.00  0.00    +0.145 HD
ENDBRANCH   8  11
BRANCH   7  16
ATOM     16  N   UNL     1       5.304  -0.679  -5.535  0.00  0.00    -0.273 N 
ATOM     17  C   UNL     1       6.388   0.115  -5.427  0.00  0.00    +0.284 C 
ATOM     18  O   UNL     1       6.501   0.865  -4.475  0.00  0.00    -0.266 OA
ATOM     19  H   UNL     1       5.214  -1.276  -6.293  0.00  0.00    +0.156 HD
BRANCH  17  20
ATOM     20  C   UNL     1       7.430   0.075  -6.456  0.00  0.00    +0.191 A 
ATOM     21  C   UNL     1       8.576   0.819  -6.467  0.00  0.00    +0.056 A 
ATOM     22  C   UNL     1       9.277   0.462  -7.628  0.00  0.00    +0.058 A 
ATOM     23  C   UNL     1       8.538  -0.472  -8.270  0.00  0.00    +0.171 A 
ATOM     24  O   UNL     1       7.428  -0.707  -7.556  0.00  0.00    -0.444 OA
ATOM     25 BR   UNL     1       8.998  -1.313  -9.899  0.00  0.00    -0.008 Br
ENDBRANCH  17  20
ENDBRANCH   7  16
BRANCH   1  27
ATOM     26  C   UNL     1       0.156   1.464   0.406  0.00  0.00    -0.014 C 
ATOM     27  C   UNL     1       0.002  -0.004   0.002  0.00  0.00    -0.074 C 
ATOM     28  C   UNL     1      -1.484  -0.355  -0.091  0.00  0.00    -0.014 C 
ENDBRANCH   1  27
TORSDOF 4
