REMARK  Name = ZINC20101165
REMARK  7 active torsions:
REMARK  status: ('A' for Active; 'I' for Inactive)
REMARK    1  A    between atoms: C_4  and  O_7
REMARK    2  A    between atoms: O_7  and  C_8
REMARK    3  A    between atoms: C_11  and  N_14
REMARK    4  A    between atoms: C_15  and  C_17
REMARK    5  A    between atoms: C_17  and  C_18
REMARK    6  A    between atoms: C_26  and  C_28
REMARK    7  A    between atoms: C_28  and  N_29
REMARK                            x       y       z     vdW  Elec       q    Type
REMARK                         _______ _______ _______ _____ _____    ______ ____
ROOT
ATOM      1  C   UNL     1       6.417  -8.741   0.794  0.00  0.00    +0.171 C 
ATOM      2  C   UNL     1       6.448 -10.212   1.103  0.00  0.00    +0.234 C 
ATOM      3  O   UNL     1       6.080 -10.581   2.199  0.00  0.00    -0.274 OA
ATOM      4  N   UNL     1       6.861 -11.130   0.229  0.00  0.00    -0.312 N 
ATOM      5  C   UNL     1       7.414 -10.831  -1.085  0.00  0.00    +0.123 C 
ATOM      6  C   UNL     1       6.977  -9.442  -1.554  0.00  0.00    +0.127 C 
ATOM      7  N   UNL     1       7.178  -8.495  -0.441  0.00  0.00    -0.287 N 
ATOM      8  C   UNL     1       8.022  -7.450  -0.548  0.00  0.00    +0.230 C 
ATOM      9  O   UNL     1       8.168  -6.690   0.385  0.00  0.00    -0.274 OA
ATOM     10  H   UNL     1       6.789 -12.063   0.486  0.00  0.00    +0.149 HD
ENDROOT
BRANCH   1  11
ATOM     11  C   UNL     1       4.968  -8.288   0.602  0.00  0.00    +0.128 C 
BRANCH  11  13
ATOM     12  N   UNL     1       3.752  -6.168   0.219  0.00  0.00    -0.285 N 
ATOM     13  C   UNL     1       4.930  -6.794   0.408  0.00  0.00    +0.219 C 
ATOM     14  O   UNL     1       5.961  -6.154   0.422  0.00  0.00    -0.275 OA
ATOM     15  H   UNL     1       2.938  -6.687   0.122  0.00  0.00    +0.155 HD
BRANCH  12  19
ATOM     16  C   UNL     1       3.603  -2.005   0.050  0.00  0.00    +0.129 A 
ATOM     17  C   UNL     1       2.634  -2.760  -0.594  0.00  0.00    +0.048 A 
ATOM     18  C   UNL     1       2.682  -4.139  -0.539  0.00  0.00    +0.027 A 
ATOM     19  C   UNL     1       3.702  -4.769   0.162  0.00  0.00    +0.034 A 
ATOM     20  C   UNL     1       4.672  -4.013   0.806  0.00  0.00    +0.027 A 
ATOM     21  C   UNL     1       4.625  -2.635   0.746  0.00  0.00    +0.048 A 
BRANCH  16  22
ATOM     22  O   UNL     1       3.554  -0.647  -0.005  0.00  0.00    -0.456 OA
BRANCH  22  26
ATOM     23  C   UNL     1       0.756   1.287   2.329  0.00  0.00    +0.000 A 
ATOM     24  C   UNL     1       1.674   2.021   1.601  0.00  0.00    +0.004 A 
ATOM     25  C   UNL     1       2.612   1.376   0.819  0.00  0.00    +0.046 A 
ATOM     26  C   UNL     1       2.633  -0.010   0.764  0.00  0.00    +0.128 A 
ATOM     27  C   UNL     1       1.710  -0.745   1.495  0.00  0.00    +0.046 A 
ATOM     28  C   UNL     1       0.774  -0.095   2.276  0.00  0.00    +0.004 A 
ENDBRANCH  22  26
ENDBRANCH  16  22
ENDBRANCH  12  19
ENDBRANCH  11  13
ENDBRANCH   1  11
BRANCH   8  29
ATOM     29  C   UNL     1       8.787  -7.228  -1.828  0.00  0.00    +0.180 C 
BRANCH  29  30
ATOM     30  N   UNL     1       9.632  -6.034  -1.692  0.00  0.00    -0.291 NA
ATOM     31  C   UNL     1       8.813  -4.822  -1.550  0.00  0.00    +0.104 C 
ATOM     32  C   UNL     1       9.722  -3.631  -1.231  0.00  0.00    +0.122 C 
ATOM     33  N   UNL     1      10.771  -3.555  -2.258  0.00  0.00    -0.314 N 
ATOM     34  C   UNL     1      11.544  -4.771  -2.554  0.00  0.00    +0.122 C 
ATOM     35  C   UNL     1      10.564  -5.918  -2.821  0.00  0.00    +0.104 C 
ATOM     36  C   UNL     1      11.026  -2.366  -2.931  0.00  0.00    +0.099 A 
ATOM     37  C   UNL     1      10.364  -1.203  -2.551  0.00  0.00    +0.042 A 
ATOM     38  C   UNL     1      10.627  -0.026  -3.230  0.00  0.00    +0.005 A 
ATOM     39  C   UNL     1      11.548  -0.053  -4.269  0.00  0.00    +0.018 A 
ATOM     40  C   UNL     1      12.169  -1.242  -4.592  0.00  0.00    +0.084 A 
ATOM     41  N   UNL     1      11.902  -2.349  -3.924  0.00  0.00    -0.350 N 
ATOM     42  H   UNL     1      12.355  -3.170  -4.169  0.00  0.00    +0.166 HD
ENDBRANCH  29  30
ENDBRANCH   8  29
TORSDOF 7
