REMARK  Name = ZINC12132622
REMARK  11 active torsions:
REMARK  status: ('A' for Active; 'I' for Inactive)
REMARK    1  A    between atoms: C_1  and  O_2
REMARK    2  A    between atoms: O_2  and  C_3
REMARK    3  A    between atoms: C_8  and  C_19
REMARK    4  A    between atoms: C_15  and  O_18
REMARK    5  A    between atoms: C_19  and  N_66
REMARK    6  A    between atoms: C_20  and  N_66
REMARK    7  A    between atoms: C_23  and  O_26
REMARK    8  A    between atoms: C_27  and  O_31
REMARK    9  A    between atoms: C_28  and  O_29
REMARK   10  A    between atoms: O_29  and  C_30
REMARK   11  A    between atoms: O_31  and  C_32
REMARK                            x       y       z     vdW  Elec       q    Type
REMARK                         _______ _______ _______ _____ _____    ______ ____
ROOT
ATOM      1  C   UNL     1      -0.143   9.113   0.648  0.00  0.00    +0.167 A 
ATOM      2  C   UNL     1      -0.082   7.763   0.384  0.00  0.00    +0.078 A 
ATOM      3  C   UNL     1       1.162   7.117   0.322  0.00  0.00    +0.080 A 
ATOM      4  C   UNL     1       2.346   7.867   0.532  0.00  0.00    +0.046 A 
ATOM      5  C   UNL     1       3.591   7.213   0.468  0.00  0.00    +0.019 A 
ATOM      6  C   UNL     1       3.608   5.876   0.204  0.00  0.00    -0.024 A 
ATOM      7  C   UNL     1       2.404   5.188   0.005  0.00  0.00    +0.123 A 
ATOM      8  N   UNL     1       1.241   5.805   0.061  0.00  0.00    -0.232 NA
ATOM      9  N   UNL     1       2.437   3.827  -0.263  0.00  0.00    -0.313 N 
ATOM     10  C   UNL     1       1.787   3.527  -1.545  0.00  0.00    +0.106 C 
ATOM     11  C   UNL     1       1.969   2.044  -1.876  0.00  0.00    +0.021 C 
ATOM     12  C   UNL     1       1.353   1.197  -0.760  0.00  0.00    +0.034 C 
ATOM     13  C   UNL     1       2.013   1.564   0.572  0.00  0.00    +0.132 C 
ATOM     14  C   UNL     1       1.830   3.060   0.833  0.00  0.00    +0.137 C 
ATOM     15  C   UNL     1       2.261   9.246   0.801  0.00  0.00    +0.174 A 
ATOM     16  C   UNL     1       1.025   9.855   0.856  0.00  0.00    +0.204 A 
ENDROOT
BRANCH   1  18
ATOM     17  C   UNL     1      -2.507   8.921   0.486  0.00  0.00    +0.277 C 
ATOM     18  O   UNL     1      -1.351   9.732   0.707  0.00  0.00    -0.491 OA
ENDBRANCH   1  18
BRANCH  13  19
ATOM     19  O   UNL     1       1.404   0.817   1.628  0.00  0.00    -0.390 OA
ATOM     20  H   UNL     1       1.482  -0.141   1.527  0.00  0.00    +0.210 HD
ENDBRANCH  13  19
BRANCH  16  21
ATOM     21  O   UNL     1       0.940  11.189   1.116  0.00  0.00    -0.488 OA
ATOM     22  C   UNL     1       0.914  12.068  -0.011  0.00  0.00    +0.277 C 
ENDBRANCH  16  21
BRANCH  15  23
ATOM     23  O   UNL     1       3.391   9.973   1.003  0.00  0.00    -0.491 OA
ATOM     24  C   UNL     1       3.824  10.137   2.355  0.00  0.00    +0.277 C 
ENDBRANCH  15  23
BRANCH   6  25
ATOM     25  C   UNL     1       4.920   5.139   0.126  0.00  0.00    -0.043 C 
BRANCH  25  26
ATOM     26  N   UNL     1       5.271   4.926  -1.291  0.00  0.00    +0.384 N 
ATOM     27  H   UNL     1       5.393   5.836  -1.750  0.00  0.00    -0.085 HD
ATOM     28  H   UNL     1       4.515   4.407  -1.753  0.00  0.00    -0.085 HD
BRANCH  26  29
ATOM     29  C   UNL     1       6.525   4.156  -1.398  0.00  0.00    -0.071 C 
ATOM     30  C   UNL     1       7.719   5.109  -1.310  0.00  0.00    -0.013 C 
ATOM     31  C   UNL     1       9.019   4.311  -1.430  0.00  0.00    +0.030 C 
ATOM     32  C   UNL     1       9.047   3.581  -2.774  0.00  0.00    +0.114 C 
ATOM     33  C   UNL     1       7.853   2.628  -2.862  0.00  0.00    +0.030 C 
ATOM     34  C   UNL     1       6.553   3.426  -2.742  0.00  0.00    -0.013 C 
BRANCH  32  35
ATOM     35  O   UNL     1      10.261   2.836  -2.886  0.00  0.00    -0.392 OA
ATOM     36  H   UNL     1      11.061   3.377  -2.838  0.00  0.00    +0.210 HD
ENDBRANCH  32  35
ENDBRANCH  26  29
ENDBRANCH  25  26
ENDBRANCH   6  25
TORSDOF 8
