REMARK  Name = ZINC48797156
REMARK  7 active torsions:
REMARK  status: ('A' for Active; 'I' for Inactive)
REMARK    1  A    between atoms: C_3  and  C_9
REMARK    2  A    between atoms: C_4  and  O_8
REMARK    3  A    between atoms: C_9  and  N_10
REMARK    4  A    between atoms: N_10  and  C_11
REMARK    5  A    between atoms: C_11  and  C_12
REMARK    6  A    between atoms: N_16  and  C_18
REMARK    7  A    between atoms: C_18  and  C_19
REMARK                            x       y       z     vdW  Elec       q    Type
REMARK                         _______ _______ _______ _____ _____    ______ ____
ROOT
ATOM      1  N   UNL     1       4.200   2.245  -1.392  0.00  0.00    +0.382 N 
ATOM      2  H   UNL     1       4.368   1.307  -1.724  0.00  0.00    -0.085 HD
ATOM      3  H   UNL     1       3.531   2.700  -1.994  0.00  0.00    -0.085 HD
ENDROOT
BRANCH   1   4
ATOM      4  C   UNL     1       3.670   2.193  -0.023  0.00  0.00    -0.043 C 
BRANCH   4   7
ATOM      5  C   UNL     1      -0.017   1.378   0.010  0.00  0.00    +0.002 A 
ATOM      6  C   UNL     1       1.170   2.088   0.002  0.00  0.00    +0.005 A 
ATOM      7  C   UNL     1       2.378   1.418  -0.013  0.00  0.00    -0.022 A 
ATOM      8  C   UNL     1       2.400   0.031  -0.021  0.00  0.00    +0.132 A 
ATOM      9  C   UNL     1       1.208  -0.680  -0.013  0.00  0.00    +0.059 A 
ATOM     10  C   UNL     1       0.002  -0.004   0.002  0.00  0.00    +0.019 A 
ATOM     11 BR   UNL     1       1.233  -2.571  -0.024  0.00  0.00    -0.047 Br
BRANCH   8  12
ATOM     12  O   UNL     1       3.587  -0.631  -0.037  0.00  0.00    -0.505 OA
ATOM     13  H   UNL     1       3.940  -0.827   0.842  0.00  0.00    +0.292 HD
ENDBRANCH   8  12
ENDBRANCH   4   7
ENDBRANCH   1   4
BRANCH   1  14
ATOM     14  C   UNL     1       5.460   3.001  -1.401  0.00  0.00    -0.077 C 
BRANCH  14  15
ATOM     15  C   UNL     1       6.012   3.055  -2.827  0.00  0.00    -0.013 C 
ATOM     16  C   UNL     1       6.506   1.658  -3.285  0.00  0.00    +0.018 C 
ATOM     17  C   UNL     1       7.578   1.998  -4.341  0.00  0.00    +0.085 C 
ATOM     18  N   UNL     1       8.039   3.372  -4.070  0.00  0.00    -0.294 NA
ATOM     19  C   UNL     1       7.319   3.885  -2.885  0.00  0.00    +0.086 C 
BRANCH  18  20
ATOM     20  C   UNL     1       9.492   3.408  -3.860  0.00  0.00    +0.198 C 
BRANCH  20  21
ATOM     21  C   UNL     1      10.206   3.130  -5.184  0.00  0.00    +0.402 C 
ATOM     22  F   UNL     1       9.846   4.103  -6.122  0.00  0.00    -0.169 F 
ATOM     23  F   UNL     1      11.590   3.164  -4.985  0.00  0.00    -0.169 F 
ATOM     24  F   UNL     1       9.834   1.867  -5.658  0.00  0.00    -0.169 F 
ENDBRANCH  20  21
ENDBRANCH  18  20
ENDBRANCH  14  15
ENDBRANCH   1  14
TORSDOF 7
