REMARK  Name = ZINC08934980
REMARK  7 active torsions:
REMARK  status: ('A' for Active; 'I' for Inactive)
REMARK    1  A    between atoms: C_6  and  C_7
REMARK    2  A    between atoms: C_10  and  C_12
REMARK    3  A    between atoms: C_12  and  C_27
REMARK    4  A    between atoms: C_13  and  N_14
REMARK    5  A    between atoms: N_14  and  C_15
REMARK    6  A    between atoms: C_18  and  S_21
REMARK    7  A    between atoms: S_21  and  N_24
REMARK                            x       y       z     vdW  Elec       q    Type
REMARK                         _______ _______ _______ _____ _____    ______ ____
ROOT
ATOM      1  N   UNL     1      -2.558   5.681  -0.256  0.00  0.00    -0.319 N 
ATOM      2  H   UNL     1      -1.857   6.335  -0.109  0.00  0.00    +0.152 HD
ENDROOT
BRANCH   1   3
ATOM      3  C   UNL     1      -3.894   6.031  -0.046  0.00  0.00    +0.031 A 
ATOM      4  C   UNL     1      -4.901   5.098  -0.261  0.00  0.00    +0.025 A 
ATOM      5  C   UNL     1      -6.220   5.445  -0.045  0.00  0.00    +0.031 A 
ATOM      6  C   UNL     1      -6.541   6.724   0.371  0.00  0.00    +0.111 A 
ATOM      7  C   UNL     1      -5.542   7.657   0.581  0.00  0.00    +0.031 A 
ATOM      8  C   UNL     1      -4.220   7.315   0.374  0.00  0.00    +0.025 A 
BRANCH   6   9
ATOM      9  S   UNL     1      -8.226   7.165   0.637  0.00  0.00    +0.080 S 
ATOM     10  O   UNL     1      -8.926   5.956   0.898  0.00  0.00    -0.148 OA
ATOM     11  O   UNL     1      -8.221   8.255   1.549  0.00  0.00    -0.148 OA
BRANCH   9  12
ATOM     12  N   UNL     1      -8.811   7.751  -0.797  0.00  0.00    -0.228 N 
ATOM     13  C   UNL     1      -8.910   6.921  -1.889  0.00  0.00    +0.186 C 
ATOM     14  N   UNL     1      -9.396   7.407  -3.080  0.00  0.00    -0.370 N 
ATOM     15  H   UNL     1      -9.083   8.679  -0.867  0.00  0.00    +0.191 HD
ATOM     16  H   UNL     1      -8.576   5.010  -2.509  0.00  0.00    +0.159 HD
ATOM     17  H   UNL     1      -9.668   8.336  -3.150  0.00  0.00    +0.159 HD
ATOM     18  H   UNL     1      -9.466   6.822  -3.850  0.00  0.00    +0.159 HD
ATOM     19  N   UNL     1      -8.521   5.665  -1.729  0.00  0.00    -0.370 N 
ATOM     20  H   UNL     1      -8.166   5.349  -0.819  0.00  0.00    +0.159 HD
ENDBRANCH   9  12
ENDBRANCH   6   9
ENDBRANCH   1   3
BRANCH   1  22
ATOM     21  C   UNL     1      -0.936   4.077  -0.874  0.00  0.00    +0.098 C 
ATOM     22  C   UNL     1      -2.240   4.418  -0.668  0.00  0.00    +0.093 C 
BRANCH  21  26
ATOM     23  C   UNL     1       0.724   0.933  -1.966  0.00  0.00    +0.079 A 
ATOM     24  C   UNL     1      -0.396   0.161  -2.118  0.00  0.00    +0.075 A 
ATOM     25  S   UNL     1      -1.671   1.331  -1.667  0.00  0.00    -0.074 S 
ATOM     26  C   UNL     1      -0.592   2.713  -1.319  0.00  0.00    +0.120 A 
ATOM     27  N   UNL     1       0.598   2.188  -1.571  0.00  0.00    -0.238 NA
BRANCH  23  33
ATOM     28  C   UNL     1       2.195  -0.958  -2.655  0.00  0.00    +0.013 A 
ATOM     29  C   UNL     1       3.446  -1.479  -2.917  0.00  0.00    +0.039 A 
ATOM     30  C   UNL     1       4.573  -0.690  -2.762  0.00  0.00    +0.123 A 
ATOM     31  C   UNL     1       4.451   0.627  -2.348  0.00  0.00    +0.039 A 
ATOM     32  C   UNL     1       3.204   1.158  -2.089  0.00  0.00    +0.013 A 
ATOM     33  C   UNL     1       2.067   0.367  -2.244  0.00  0.00    +0.001 A 
ATOM     34  F   UNL     1       5.796  -1.206  -3.014  0.00  0.00    -0.205 F 
ENDBRANCH  23  33
ENDBRANCH  21  26
BRANCH  21  35
ATOM     35  C   UNL     1       0.099   5.042  -0.657  0.00  0.00    +0.103 C 
ATOM     36  N   UNL     1       0.921   5.808  -0.485  0.00  0.00    -0.191 NA
ENDBRANCH  21  35
ENDBRANCH   1  22
TORSDOF 7
