REMARK  Name = ZINC06952408
REMARK  10 active torsions:
REMARK  status: ('A' for Active; 'I' for Inactive)
REMARK    1  A    between atoms: C_1  and  C_2
REMARK    2  A    between atoms: C_2  and  C_3
REMARK    3  A    between atoms: C_2  and  C_4
REMARK    4  A    between atoms: C_4  and  C_5
REMARK    5  A    between atoms: C_5  and  C_7
REMARK    6  A    between atoms: C_5  and  N_31
REMARK    7  A    between atoms: N_9  and  N_10
REMARK    8  A    between atoms: N_18  and  C_21
REMARK    9  A    between atoms: C_21  and  C_22
REMARK   10  A    between atoms: C_26  and  N_28
REMARK                            x       y       z     vdW  Elec       q    Type
REMARK                         _______ _______ _______ _____ _____    ______ ____
ROOT
ATOM      1  N   UNL     1       3.339  -0.027  -4.794  0.00  0.00    -0.175 NA
ATOM      2  C   UNL     1       3.191   0.727  -5.856  0.00  0.00    +0.153 C 
ATOM      3  C   UNL     1       3.770   0.513  -7.202  0.00  0.00    +0.028 A 
ATOM      4  C   UNL     1       4.590  -0.473  -7.741  0.00  0.00    +0.012 A 
ATOM      5  C   UNL     1       4.971  -0.398  -9.065  0.00  0.00    +0.001 A 
ATOM      6  C   UNL     1       4.539   0.655  -9.854  0.00  0.00    +0.002 A 
ATOM      7  C   UNL     1       3.725   1.638  -9.329  0.00  0.00    +0.024 A 
ATOM      8  C   UNL     1       3.330   1.580  -7.996  0.00  0.00    +0.046 A 
ATOM      9  N   UNL     1       2.530   2.422  -7.232  0.00  0.00    -0.261 N 
ATOM     10  C   UNL     1       2.406   1.973  -5.972  0.00  0.00    +0.272 C 
ATOM     11  O   UNL     1       1.764   2.501  -5.083  0.00  0.00    -0.268 OA
ENDROOT
BRANCH   1  14
ATOM     12  C   UNL     1       2.863  -0.451  -2.500  0.00  0.00    +0.218 C 
ATOM     13  O   UNL     1       3.544  -1.452  -2.558  0.00  0.00    -0.276 OA
ATOM     14  N   UNL     1       2.711   0.325  -3.592  0.00  0.00    -0.208 N 
ATOM     15  H   UNL     1       2.166   1.126  -3.546  0.00  0.00    +0.177 HD
BRANCH  12  16
ATOM     16  C   UNL     1       2.187  -0.073  -1.207  0.00  0.00    +0.015 C 
BRANCH  16  17
ATOM     17  N   UNL     1       2.856  -0.751  -0.089  0.00  0.00    +0.386 N 
ATOM     18  H   UNL     1       2.798  -1.750  -0.219  0.00  0.00    -0.089 HD
ATOM     19  H   UNL     1       3.824  -0.472  -0.056  0.00  0.00    -0.089 HD
ATOM     20  H   UNL     1       2.403  -0.498   0.777  0.00  0.00    -0.089 HD
ENDBRANCH  16  17
BRANCH  16  21
ATOM     21  C   UNL     1       0.718  -0.497  -1.257  0.00  0.00    -0.004 C 
BRANCH  21  23
ATOM     22  C   UNL     1      -0.019   1.526   0.010  0.00  0.00    +0.007 C 
ATOM     23  C   UNL     1       0.002  -0.004   0.002  0.00  0.00    -0.018 C 
ATOM     24  C   UNL     1      -1.433  -0.534   0.013  0.00  0.00    +0.007 C 
ENDBRANCH  21  23
ENDBRANCH  16  21
ENDBRANCH  12  16
ENDBRANCH   1  14
BRANCH   9  25
ATOM     25  C   UNL     1       1.897   3.642  -7.739  0.00  0.00    +0.149 C 
BRANCH  25  26
ATOM     26  C   UNL     1       0.532   3.310  -8.286  0.00  0.00    -0.028 A 
ATOM     27  C   UNL     1       0.388   2.954  -9.614  0.00  0.00    +0.005 A 
ATOM     28  C   UNL     1      -0.863   2.649 -10.116  0.00  0.00    +0.003 A 
ATOM     29  C   UNL     1      -1.971   2.700  -9.290  0.00  0.00    +0.033 A 
ATOM     30  C   UNL     1      -1.826   3.056  -7.962  0.00  0.00    +0.127 A 
ATOM     31  C   UNL     1      -0.574   3.356  -7.459  0.00  0.00    +0.038 A 
BRANCH  30  32
ATOM     32  N   UNL     1      -3.012   3.111  -7.077  0.00  0.00    +0.056 N 
ATOM     33  O   UNL     1      -4.106   2.845  -7.516  0.00  0.00    -0.126 OA
ATOM     34  O   UNL     1      -2.885   3.422  -5.916  0.00  0.00    -0.126 OA
ENDBRANCH  30  32
ENDBRANCH  25  26
ENDBRANCH   9  25
TORSDOF 8
