REMARK  Name = ZINC63893041
REMARK  7 active torsions:
REMARK  status: ('A' for Active; 'I' for Inactive)
REMARK    1  A    between atoms: C_7  and  C_10
REMARK    2  A    between atoms: C_10  and  C_11
REMARK    3  A    between atoms: C_11  and  N_12
REMARK    4  A    between atoms: C_13  and  C_15
REMARK    5  A    between atoms: C_15  and  S_16
REMARK    6  A    between atoms: S_16  and  C_17
REMARK    7  A    between atoms: N_23  and  C_24
REMARK                            x       y       z     vdW  Elec       q    Type
REMARK                         _______ _______ _______ _____ _____    ______ ____
ROOT
ATOM      1  N   UNL     1      -0.458  -4.798  -1.460  0.00  0.00    -0.314 N 
ATOM      2  C   UNL     1      -0.811  -5.380  -2.623  0.00  0.00    +0.223 C 
ATOM      3  O   UNL     1      -0.371  -4.957  -3.671  0.00  0.00    -0.275 OA
ATOM      4  H   UNL     1      -0.810  -5.136  -0.622  0.00  0.00    +0.149 HD
ENDROOT
BRANCH   1   5
ATOM      5  C   UNL     1       0.457  -3.653  -1.462  0.00  0.00    +0.108 C 
BRANCH   5   6
ATOM      6  C   UNL     1       0.691  -3.186  -0.024  0.00  0.00    +0.052 C 
BRANCH   6  13
ATOM      7  C   UNL     1      -0.016   1.348   0.009  0.00  0.00    +0.001 A 
ATOM      8  C   UNL     1       1.166   2.101   0.002  0.00  0.00    +0.002 A 
ATOM      9  C   UNL     1       2.391   1.535  -0.013  0.00  0.00    +0.026 A 
ATOM     10  C   UNL     1       2.529   0.120  -0.022  0.00  0.00    +0.043 A 
ATOM     11  N   UNL     1       3.587  -0.654  -0.037  0.00  0.00    -0.380 N 
ATOM     12  C   UNL     1       3.143  -2.053  -0.041  0.00  0.00    +0.144 C 
ATOM     13  C   UNL     1       1.631  -2.008  -0.025  0.00  0.00    -0.040 C 
ATOM     14  C   UNL     1       1.295  -0.698  -0.014  0.00  0.00    -0.001 A 
ATOM     15  C   UNL     1       0.002  -0.004   0.002  0.00  0.00    +0.010 A 
ATOM     16  H   UNL     1       4.509  -0.353  -0.045  0.00  0.00    +0.160 HD
ENDBRANCH   6  13
ENDBRANCH   5   6
ENDBRANCH   1   5
BRANCH   2  17
ATOM     17  C   UNL     1      -1.752  -6.557  -2.622  0.00  0.00    +0.167 C 
BRANCH  17  18
ATOM     18  S   UNL     1      -2.029  -7.112  -4.326  0.00  0.00    -0.117 S 
BRANCH  18  19
ATOM     19  C   UNL     1      -3.167  -8.514  -4.152  0.00  0.00    +0.212 C 
ATOM     20  N   UNL     1      -4.393  -8.125  -3.420  0.00  0.00    -0.244 N 
ATOM     21  N   UNL     1      -4.599  -8.783  -2.228  0.00  0.00    -0.163 NA
ATOM     22  C   UNL     1      -3.788  -9.682  -1.762  0.00  0.00    +0.174 C 
ATOM     23  S   UNL     1      -2.498  -9.779  -2.994  0.00  0.00    -0.054 S 
ATOM     24  N   UNL     1      -3.898 -10.401  -0.579  0.00  0.00    -0.320 N 
ATOM     25  H   UNL     1      -5.008  -7.454  -3.756  0.00  0.00    +0.170 HD
ATOM     26  H   UNL     1      -3.218 -11.051  -0.342  0.00  0.00    +0.148 HD
BRANCH  24  27
ATOM     27  C   UNL     1      -5.040 -10.179   0.311  0.00  0.00    +0.072 C 
ATOM     28  C   UNL     1      -4.758 -10.080   1.811  0.00  0.00    +0.024 C 
ATOM     29  C   UNL     1      -5.443 -11.324   1.242  0.00  0.00    +0.024 C 
ENDBRANCH  24  27
ENDBRANCH  18  19
ENDBRANCH  17  18
ENDBRANCH   2  17
TORSDOF 7
