REMARK  Name = ZINC08708059
REMARK  6 active torsions:
REMARK  status: ('A' for Active; 'I' for Inactive)
REMARK    1  A    between atoms: C_8  and  C_29
REMARK    2  A    between atoms: C_11  and  C_12
REMARK    3  A    between atoms: C_11  and  N_57
REMARK    4  A    between atoms: N_14  and  C_15
REMARK    5  A    between atoms: C_19  and  S_21
REMARK    6  A    between atoms: S_21  and  N_24
REMARK                            x       y       z     vdW  Elec       q    Type
REMARK                         _______ _______ _______ _____ _____    ______ ____
ROOT
ATOM      1  C   UNL     1       1.508  -2.719  -1.913  0.00  0.00    +0.201 C 
ATOM      2  O   UNL     1       2.261  -2.044  -2.582  0.00  0.00    -0.278 OA
ATOM      3  N   UNL     1       1.446  -4.051  -2.105  0.00  0.00    -0.287 N 
ATOM      4  H   UNL     1       0.794  -4.582  -1.619  0.00  0.00    +0.155 HD
ENDROOT
BRANCH   3   5
ATOM      5  C   UNL     1       2.321  -4.670  -3.004  0.00  0.00    +0.035 A 
ATOM      6  C   UNL     1       2.698  -4.016  -4.170  0.00  0.00    +0.023 A 
ATOM      7  C   UNL     1       3.566  -4.627  -5.053  0.00  0.00    +0.004 A 
ATOM      8  C   UNL     1       4.052  -5.894  -4.783  0.00  0.00    +0.028 A 
ATOM      9  C   UNL     1       3.674  -6.550  -3.626  0.00  0.00    +0.107 A 
ATOM     10  C   UNL     1       2.810  -5.942  -2.736  0.00  0.00    +0.051 A 
BRANCH   9  11
ATOM     11  S   UNL     1       4.295  -8.164  -3.286  0.00  0.00    +0.061 S 
ATOM     12  O   UNL     1       5.513  -8.290  -4.007  0.00  0.00    -0.153 OA
ATOM     13  O   UNL     1       4.221  -8.339  -1.878  0.00  0.00    -0.153 OA
BRANCH  11  14
ATOM     14  N   UNL     1       3.235  -9.246  -3.955  0.00  0.00    -0.177 NA
ATOM     15  C   UNL     1       2.071  -9.835  -3.277  0.00  0.00    +0.109 C 
ATOM     16  C   UNL     1       1.399 -10.800  -4.277  0.00  0.00    +0.018 C 
ATOM     17  C   UNL     1       2.550 -11.135  -5.261  0.00  0.00    +0.018 C 
ATOM     18  C   UNL     1       3.307  -9.784  -5.325  0.00  0.00    +0.109 C 
ENDBRANCH  11  14
ENDBRANCH   9  11
ENDBRANCH   3   5
BRANCH   1  19
ATOM     19  C   UNL     1       0.641  -2.067  -0.866  0.00  0.00    +0.020 C 
BRANCH  19  29
ATOM     20  C   UNL     1       2.860   3.895   0.049  0.00  0.00    +0.000 A 
ATOM     21  C   UNL     1       3.915   3.007   0.149  0.00  0.00    +0.000 A 
ATOM     22  C   UNL     1       3.683   1.651   0.050  0.00  0.00    +0.002 A 
ATOM     23  C   UNL     1       2.396   1.171  -0.149  0.00  0.00    -0.061 A 
ATOM     24  C   UNL     1       1.345   2.057  -0.251  0.00  0.00    -0.047 A 
ATOM     25  C   UNL     1       1.579   3.420  -0.150  0.00  0.00    +0.004 A 
ATOM     26  C   UNL     1      -0.069   1.585  -0.472  0.00  0.00    +0.029 C 
ATOM     27  C   UNL     1      -0.179   0.096  -0.143  0.00  0.00    +0.024 C 
ATOM     28  C   UNL     1       2.193  -0.318  -0.247  0.00  0.00    -0.041 C 
ATOM     29  N   UNL     1       0.893  -0.608  -0.875  0.00  0.00    +0.396 N 
ATOM     30  H   UNL     1       0.909  -0.278  -1.847  0.00  0.00    -0.080 HD
BRANCH  27  31
ATOM     31  C   UNL     1      -1.520  -0.424  -0.593  0.00  0.00    +0.197 C 
ATOM     32  O   UNL     1      -1.682  -0.768  -1.745  0.00  0.00    -0.278 OA
ATOM     33  N   UNL     1      -2.540  -0.508   0.284  0.00  0.00    -0.331 N 
ATOM     34  H   UNL     1      -2.410  -0.233   1.206  0.00  0.00    +0.145 HD
ATOM     35  H   UNL     1      -3.403  -0.842  -0.005  0.00  0.00    +0.145 HD
ENDBRANCH  27  31
ENDBRANCH  19  29
ENDBRANCH   1  19
TORSDOF 6
