REMARK  Name = ZINC39660256
REMARK  9 active torsions:
REMARK  status: ('A' for Active; 'I' for Inactive)
REMARK    1  A    between atoms: C_1  and  C_2
REMARK    2  A    between atoms: C_2  and  C_3
REMARK    3  A    between atoms: C_3  and  C_4
REMARK    4  A    between atoms: C_4  and  C_5
REMARK    5  A    between atoms: C_5  and  C_6
REMARK    6  A    between atoms: C_6  and  N_7
REMARK    7  A    between atoms: C_8  and  C_10
REMARK    8  A    between atoms: C_21  and  C_23
REMARK    9  A    between atoms: C_26  and  C_29
REMARK                            x       y       z     vdW  Elec       q    Type
REMARK                         _______ _______ _______ _____ _____    ______ ____
ROOT
ATOM      1  C   UNL     1       3.332  -6.291  -5.811  0.00  0.00    +0.100 C 
ATOM      2  C   UNL     1       4.717  -5.675  -5.513  0.00  0.00    +0.121 C 
ATOM      3  N   UNL     1       5.483  -6.770  -4.872  0.00  0.00    -0.296 N 
ATOM      4  C   UNL     1       5.090  -7.985  -5.624  0.00  0.00    +0.115 C 
ATOM      5  C   UNL     1       3.581  -7.807  -5.887  0.00  0.00    -0.004 C 
ATOM      6  C   UNL     1       3.220  -8.334  -7.272  0.00  0.00    -0.010 C 
ATOM      7  C   UNL     1       3.421  -9.851  -7.305  0.00  0.00    -0.082 C 
ATOM      8  N   UNL     1       2.575 -10.481  -6.285  0.00  0.00    +0.379 N 
ATOM      9  C   UNL     1       2.990 -10.040  -4.948  0.00  0.00    -0.082 C 
ATOM     10  C   UNL     1       2.771  -8.530  -4.815  0.00  0.00    -0.010 C 
ATOM     11  C   UNL     1       6.344  -6.680  -3.839  0.00  0.00    +0.247 C 
ATOM     12  O   UNL     1       6.470  -5.629  -3.242  0.00  0.00    -0.270 OA
ATOM     13  H   UNL     1       1.612 -10.220  -6.439  0.00  0.00    -0.086 HD
ATOM     14  H   UNL     1       2.663 -11.484  -6.349  0.00  0.00    -0.086 HD
ENDROOT
BRANCH  11  15
ATOM     15  C   UNL     1       7.136  -7.861  -3.432  0.00  0.00    +0.037 A 
ATOM     16  C   UNL     1       7.340  -8.911  -4.329  0.00  0.00    +0.013 A 
ATOM     17  C   UNL     1       8.080 -10.009  -3.943  0.00  0.00    +0.013 A 
ATOM     18  C   UNL     1       8.619 -10.071  -2.670  0.00  0.00    +0.055 A 
ATOM     19  C   UNL     1       8.420  -9.034  -1.776  0.00  0.00    +0.013 A 
ATOM     20  C   UNL     1       7.687  -7.927  -2.151  0.00  0.00    +0.013 A 
BRANCH  18  21
ATOM     21  C   UNL     1       9.426 -11.274  -2.255  0.00  0.00    +0.417 C 
ATOM     22  F   UNL     1      10.774 -11.061  -2.562  0.00  0.00    -0.166 F 
ATOM     23  F   UNL     1       9.288 -11.476  -0.877  0.00  0.00    -0.166 F 
ATOM     24  F   UNL     1       8.965 -12.404  -2.940  0.00  0.00    -0.166 F 
ENDBRANCH  18  21
ENDBRANCH  11  15
BRANCH   1  26
ATOM     25  N   UNL     1       1.039  -5.978  -4.935  0.00  0.00    -0.315 N 
ATOM     26  C   UNL     1       2.366  -5.974  -4.698  0.00  0.00    +0.218 C 
ATOM     27  O   UNL     1       2.783  -5.714  -3.589  0.00  0.00    -0.275 OA
ATOM     28  H   UNL     1       0.706  -6.186  -5.822  0.00  0.00    +0.149 HD
BRANCH  25  29
ATOM     29  C   UNL     1       0.101  -5.669  -3.854  0.00  0.00    +0.104 C 
BRANCH  29  30
ATOM     30  C   UNL     1      -1.332  -5.742  -4.385  0.00  0.00    +0.019 C 
BRANCH  30  31
ATOM     31  C   UNL     1      -2.312  -5.420  -3.255  0.00  0.00    +0.002 C 
BRANCH  31  32
ATOM     32  C   UNL     1      -3.745  -5.493  -3.787  0.00  0.00    -0.000 C 
BRANCH  32  34
ATOM     33  C   UNL     1      -6.158  -5.244  -3.188  0.00  0.00    +0.004 C 
ATOM     34  C   UNL     1      -4.725  -5.171  -2.657  0.00  0.00    -0.003 C 
ENDBRANCH  32  34
ENDBRANCH  31  32
ENDBRANCH  30  31
ENDBRANCH  29  30
ENDBRANCH  25  29
ENDBRANCH   1  26
TORSDOF 8
