REMARK  Name = ZINC31718233
REMARK  5 active torsions:
REMARK  status: ('A' for Active; 'I' for Inactive)
REMARK    1  A    between atoms: C_1  and  C_2
REMARK    2  A    between atoms: C_3  and  C_9
REMARK    3  A    between atoms: C_4  and  N_7
REMARK    4  A    between atoms: N_7  and  C_8
REMARK    5  A    between atoms: N_11  and  C_12
REMARK                            x       y       z     vdW  Elec       q    Type
REMARK                         _______ _______ _______ _____ _____    ______ ____
ROOT
ATOM      1  C   UNL     1       5.917   3.414  -0.032  0.00  0.00    +0.052 A 
ATOM      2  C   UNL     1       4.868   4.027   0.652  0.00  0.00    +0.028 A 
ATOM      3  C   UNL     1       3.682   3.333   0.797  0.00  0.00    +0.045 A 
ATOM      4  C   UNL     1       3.574   2.054   0.260  0.00  0.00    +0.122 A 
ATOM      5  N   UNL     1       4.593   1.501  -0.378  0.00  0.00    -0.238 NA
ATOM      6  C   UNL     1       5.738   2.137  -0.540  0.00  0.00    +0.136 A 
ATOM      7  N   UNL     1       2.383   1.347   0.400  0.00  0.00    -0.305 N 
ATOM      8  C   UNL     1       2.478   0.022  -0.235  0.00  0.00    +0.125 C 
ATOM      9  C   UNL     1       1.282  -0.822   0.207  0.00  0.00    +0.123 C 
ATOM     10  N   UNL     1       0.043  -0.074   0.013  0.00  0.00    -0.313 N 
ATOM     11  C   UNL     1       0.012   1.254  -0.140  0.00  0.00    +0.230 C 
ATOM     12  O   UNL     1      -1.064   1.799  -0.270  0.00  0.00    -0.274 OA
ATOM     13  C   UNL     1       1.254   2.099  -0.163  0.00  0.00    +0.202 C 
ATOM     14  H   UNL     1      -0.921  -0.603  -0.012  0.00  0.00    +0.149 HD
ENDROOT
BRANCH   1  17
ATOM     15  C   UNL     1       7.580   4.931   0.744  0.00  0.00    +0.252 C 
ATOM     16  O   UNL     1       6.969   5.048   1.790  0.00  0.00    -0.270 OA
ATOM     17  N   UNL     1       7.138   4.080  -0.203  0.00  0.00    -0.280 N 
ATOM     18  H   UNL     1       7.736   3.909  -1.111  0.00  0.00    +0.155 HD
BRANCH  15  21
ATOM     19  C   UNL     1      10.228   3.902   1.519  0.00  0.00    +0.067 C 
ATOM     20  C   UNL     1      10.063   5.252   0.871  0.00  0.00    +0.061 A 
ATOM     21  C   UNL     1       8.799   5.716   0.515  0.00  0.00    +0.088 A 
ATOM     22  C   UNL     1       8.774   6.981  -0.084  0.00  0.00    +0.098 A 
ATOM     23  S   UNL     1      10.453   7.407  -0.090  0.00  0.00    +0.027 S 
ATOM     24  N   UNL     1      11.101   6.004   0.636  0.00  0.00    -0.213 NA
BRANCH  22  25
ATOM     25  N   UNL     1       7.693   7.702  -0.547  0.00  0.00    -0.340 N 
ATOM     26  C   UNL     1       7.896   9.024  -1.145  0.00  0.00    +0.126 C 
ATOM     27  H   UNL     1       6.678   7.285  -0.466  0.00  0.00    +0.146 HD
ENDBRANCH  22  25
ENDBRANCH  15  21
ENDBRANCH   1  17
TORSDOF 3
