REMARK  Name = ZINC36677865
REMARK  5 active torsions:
REMARK  status: ('A' for Active; 'I' for Inactive)
REMARK    1  A    between atoms: C_1  and  C_2
REMARK    2  A    between atoms: C_2  and  C_4
REMARK    3  A    between atoms: C_2  and  C_14
REMARK    4  A    between atoms: C_4  and  N_5
REMARK    5  A    between atoms: N_15  and  O_16
REMARK                            x       y       z     vdW  Elec       q    Type
REMARK                         _______ _______ _______ _____ _____    ______ ____
ROOT
ATOM      1  C   UNL     1       0.742  -0.511   1.242  0.00  0.00    -0.068 C 
ENDROOT
BRANCH   1   2
ATOM      2  N   UNL     1      -0.010  -0.139   2.447  0.00  0.00    +0.383 N 
ATOM      3  C   UNL     1       0.776  -0.493   3.636  0.00  0.00    -0.073 C 
ATOM      4  C   UNL     1       0.151   0.187   4.867  0.00  0.00    +0.024 C 
ATOM      5  C   UNL     1      -1.321  -0.059   4.818  0.00  0.00    -0.011 A 
ATOM      6  C   UNL     1      -2.028  -0.527   3.751  0.00  0.00    -0.054 A 
ATOM      7  C   UNL     1      -3.399  -0.686   3.935  0.00  0.00    +0.009 A 
ATOM      8  C   UNL     1      -3.962  -0.377   5.126  0.00  0.00    +0.045 A 
ATOM      9  S   UNL     1      -2.548   0.168   6.073  0.00  0.00    -0.101 S 
ATOM     10  C   UNL     1      -1.300  -0.840   2.447  0.00  0.00    -0.042 C 
ATOM     11  H   UNL     1      -0.174   0.857   2.442  0.00  0.00    -0.081 HD
ENDBRANCH   1   2
BRANCH   1  13
ATOM     12  C   UNL     1      -0.019   1.526   0.010  0.00  0.00    +0.013 C 
ATOM     13  C   UNL     1       0.002  -0.004   0.002  0.00  0.00    +0.036 C 
BRANCH  13  14
ATOM     14  C   UNL     1       0.707  -0.490  -1.238  0.00  0.00    +0.133 C 
ATOM     15  N   UNL     1       1.575   0.266  -1.826  0.00  0.00    -0.077 NA
ATOM     16  N   UNL     1       0.428  -1.740  -1.744  0.00  0.00    -0.344 N 
ATOM     17  H   UNL     1      -0.224  -2.307  -1.303  0.00  0.00    +0.144 HD
ATOM     18  H   UNL     1       0.882  -2.053  -2.542  0.00  0.00    +0.144 HD
BRANCH  15  19
ATOM     19  O   UNL     1       2.237  -0.191  -2.991  0.00  0.00    -0.408 OA
ATOM     20  H   UNL     1       2.868   0.443  -3.359  0.00  0.00    +0.328 HD
ENDBRANCH  15  19
ENDBRANCH  13  14
ENDBRANCH   1  13
TORSDOF 4
