REMARK  Name = ZINC42910633
REMARK  9 active torsions:
REMARK  status: ('A' for Active; 'I' for Inactive)
REMARK    1  A    between atoms: C_1  and  C_2
REMARK    2  A    between atoms: C_2  and  C_26
REMARK    3  A    between atoms: C_4  and  N_10
REMARK    4  A    between atoms: C_6  and  C_8
REMARK    5  A    between atoms: C_6  and  C_9
REMARK    6  A    between atoms: N_13  and  C_14
REMARK    7  A    between atoms: C_14  and  C_15
REMARK    8  A    between atoms: C_15  and  C_17
REMARK    9  A    between atoms: C_15  and  O_25
REMARK                            x       y       z     vdW  Elec       q    Type
REMARK                         _______ _______ _______ _____ _____    ______ ____
ROOT
ATOM      1  N   UNL     1       2.615  -0.819  -2.626  0.00  0.00    -0.297 N 
ATOM      2  C   UNL     1       3.770  -0.334  -3.123  0.00  0.00    +0.300 C 
ATOM      3  O   UNL     1       4.376   0.532  -2.522  0.00  0.00    -0.253 OA
ATOM      4  N   UNL     1       4.255  -0.809  -4.288  0.00  0.00    -0.297 N 
ATOM      5  H   UNL     1       2.133  -1.510  -3.106  0.00  0.00    +0.151 HD
ATOM      6  H   UNL     1       3.772  -1.500  -4.768  0.00  0.00    +0.150 HD
ENDROOT
BRANCH   1  10
ATOM      7  C   UNL     1      -0.019   1.528   0.010  0.00  0.00    -0.010 C 
ATOM      8  C   UNL     1       0.002  -0.004   0.002  0.00  0.00    -0.072 C 
ATOM      9  C   UNL     1       0.573  -0.505  -1.321  0.00  0.00    +0.009 C 
ATOM     10  C   UNL     1       2.088  -0.301  -1.357  0.00  0.00    +0.072 C 
ATOM     11  C   UNL     1       2.703  -1.086  -0.198  0.00  0.00    +0.009 C 
ATOM     12  C   UNL     1       2.147  -0.590   1.133  0.00  0.00    -0.072 C 
ATOM     13  N   UNL     1       0.697  -0.529   1.164  0.00  0.00    +0.386 N 
ATOM     14  C   UNL     1       2.769   0.766   1.481  0.00  0.00    -0.010 C 
ATOM     15  C   UNL     1       2.600  -1.589   2.223  0.00  0.00    -0.010 C 
ATOM     16  C   UNL     1      -1.468  -0.478   0.079  0.00  0.00    -0.010 C 
ATOM     17  H   UNL     1       0.416   0.021   1.982  0.00  0.00    -0.084 HD
ATOM     18  H   UNL     1       0.341  -1.472   1.351  0.00  0.00    -0.084 HD
ENDBRANCH   1  10
BRANCH   4  19
ATOM     19  C   UNL     1       5.510  -0.282  -4.829  0.00  0.00    +0.141 C 
BRANCH  19  20
ATOM     20  C   UNL     1       5.832  -0.986  -6.149  0.00  0.00    +0.162 C 
BRANCH  20  21
ATOM     21  C   UNL     1       7.123  -0.444  -6.705  0.00  0.00    -0.015 A 
ATOM     22  C   UNL     1       8.330  -0.973  -6.288  0.00  0.00    +0.009 A 
ATOM     23  C   UNL     1       9.516  -0.477  -6.797  0.00  0.00    +0.041 A 
ATOM     24  C   UNL     1       9.495   0.549  -7.726  0.00  0.00    +0.158 A 
ATOM     25  C   UNL     1       8.285   1.079  -8.144  0.00  0.00    +0.159 A 
ATOM     26  C   UNL     1       7.099   0.577  -7.636  0.00  0.00    +0.047 A 
ATOM     27  F   UNL     1       8.262   2.081  -9.050  0.00  0.00    -0.202 F 
ATOM     28  F   UNL     1      10.654   1.034  -8.223  0.00  0.00    -0.202 F 
ENDBRANCH  20  21
BRANCH  20  29
ATOM     29  O   UNL     1       5.964  -2.390  -5.920  0.00  0.00    -0.386 OA
ATOM     30  H   UNL     1       6.664  -2.623  -5.295  0.00  0.00    +0.210 HD
ENDBRANCH  20  29
ENDBRANCH  19  20
ENDBRANCH   4  19
TORSDOF 5
