REMARK  Name = ZINC52067370
REMARK  12 active torsions:
REMARK  status: ('A' for Active; 'I' for Inactive)
REMARK    1  A    between atoms: C_1  and  C_2
REMARK    2  A    between atoms: C_2  and  N_3
REMARK    3  A    between atoms: N_3  and  C_4
REMARK    4  A    between atoms: C_4  and  C_6
REMARK    5  A    between atoms: C_4  and  C_7
REMARK    6  A    between atoms: C_12  and  O_13
REMARK    7  A    between atoms: O_13  and  C_14
REMARK    8  A    between atoms: C_14  and  C_16
REMARK    9  A    between atoms: C_14  and  C_17
REMARK   10  A    between atoms: N_19  and  C_20
REMARK   11  A    between atoms: C_20  and  C_21
REMARK   12  A    between atoms: C_20  and  C_22
REMARK                            x       y       z     vdW  Elec       q    Type
REMARK                         _______ _______ _______ _____ _____    ______ ____
ROOT
ATOM      1  C   UNL     1      -2.788  -2.446  -0.320  0.00  0.00    -0.019 A 
ATOM      2  C   UNL     1      -3.855  -1.631   0.008  0.00  0.00    +0.020 A 
ATOM      3  C   UNL     1      -5.127  -2.166   0.115  0.00  0.00    +0.018 A 
ATOM      4  C   UNL     1      -5.333  -3.516  -0.105  0.00  0.00    +0.019 A 
ATOM      5  C   UNL     1      -4.269  -4.333  -0.434  0.00  0.00    +0.047 A 
ATOM      6  C   UNL     1      -2.994  -3.799  -0.547  0.00  0.00    +0.123 A 
ATOM      7 BR   UNL     1      -6.585  -1.049   0.565  0.00  0.00    -0.050 Br
ENDROOT
BRANCH   1   8
ATOM      8  C   UNL     1      -1.403  -1.863  -0.436  0.00  0.00    -0.040 C 
ATOM      9  C   UNL     1      -0.617  -2.158   0.843  0.00  0.00    -0.009 C 
BRANCH   8  10
ATOM     10  N   UNL     1      -1.498  -0.410  -0.629  0.00  0.00    +0.383 N 
ATOM     11  H   UNL     1      -1.897   0.013   0.196  0.00  0.00    -0.085 HD
ATOM     12  H   UNL     1      -2.085  -0.214  -1.425  0.00  0.00    -0.085 HD
BRANCH  10  14
ATOM     13  C   UNL     1      -0.255   1.655  -1.062  0.00  0.00    -0.017 C 
ATOM     14  C   UNL     1      -0.157   0.142  -0.862  0.00  0.00    -0.085 C 
ENDBRANCH  10  14
ENDBRANCH   8  10
ENDBRANCH   1   8
BRANCH   6  15
ATOM     15  O   UNL     1      -1.946  -4.600  -0.874  0.00  0.00    -0.480 OA
BRANCH  15  16
ATOM     16  C   UNL     1      -2.247  -5.957  -1.206  0.00  0.00    +0.255 C 
ATOM     17  C   UNL     1      -2.328  -6.790   0.075  0.00  0.00    +0.062 C 
BRANCH  16  18
ATOM     18  C   UNL     1      -1.162  -6.509  -2.095  0.00  0.00    +0.254 C 
ATOM     19  O   UNL     1      -0.180  -5.841  -2.340  0.00  0.00    -0.272 OA
ATOM     20  N   UNL     1      -1.284  -7.745  -2.619  0.00  0.00    -0.310 N 
ATOM     21  H   UNL     1      -2.069  -8.279  -2.424  0.00  0.00    +0.149 HD
BRANCH  20  22
ATOM     22  C   UNL     1      -0.229  -8.281  -3.483  0.00  0.00    +0.067 C 
ATOM     23  C   UNL     1      -0.261  -9.810  -3.438  0.00  0.00    +0.027 C 
ATOM     24  C   UNL     1      -0.459  -7.809  -4.921  0.00  0.00    +0.027 C 
ENDBRANCH  20  22
ENDBRANCH  16  18
ENDBRANCH  15  16
ENDBRANCH   6  15
TORSDOF 7
