REMARK  Name = ZINC44249370
REMARK  5 active torsions:
REMARK  status: ('A' for Active; 'I' for Inactive)
REMARK    1  A    between atoms: C_1  and  C_2
REMARK    2  A    between atoms: C_2  and  C_3
REMARK    3  A    between atoms: C_11  and  C_20
REMARK    4  A    between atoms: C_12  and  C_14
REMARK    5  A    between atoms: C_20  and  N_21
REMARK                            x       y       z     vdW  Elec       q    Type
REMARK                         _______ _______ _______ _____ _____    ______ ____
ROOT
ATOM      1  C   UNL     1       0.707  -0.490  -1.238  0.00  0.00    +0.043 A 
ATOM      2  C   UNL     1       2.034  -0.646  -1.385  0.00  0.00    +0.045 A 
ATOM      3  C   UNL     1       2.273  -1.121  -2.692  0.00  0.00    +0.244 A 
ATOM      4  N   UNL     1       1.127  -1.239  -3.297  0.00  0.00    -0.135 NA
ATOM      5  H   UNL     1      -0.834  -0.846  -2.583  0.00  0.00    +0.189 HD
ATOM      6  N   UNL     1       0.119  -0.853  -2.400  0.00  0.00    -0.278 N 
ATOM      7  O   UNL     1       3.529  -1.386  -3.159  0.00  0.00    -0.422 OA
ATOM      8  C   UNL     1       4.532  -0.938  -2.355  0.00  0.00    +0.193 C 
ATOM      9  C   UNL     1       4.392  -1.123  -0.860  0.00  0.00    +0.069 C 
ATOM     10  C   UNL     1       3.132  -0.383  -0.383  0.00  0.00    +0.066 C 
ATOM     11  N   UNL     1       5.578  -0.370  -2.856  0.00  0.00    -0.270 NA
ATOM     12  H   UNL     1       5.655  -0.258  -3.816  0.00  0.00    +0.190 HD
ENDROOT
BRANCH  10  13
ATOM     13  C   UNL     1       3.408   1.096  -0.305  0.00  0.00    -0.039 A 
ATOM     14  C   UNL     1       3.815   1.783  -1.434  0.00  0.00    +0.004 A 
ATOM     15  C   UNL     1       4.069   3.140  -1.363  0.00  0.00    +0.000 A 
ATOM     16  C   UNL     1       3.915   3.810  -0.163  0.00  0.00    +0.000 A 
ATOM     17  C   UNL     1       3.507   3.123   0.965  0.00  0.00    +0.000 A 
ATOM     18  C   UNL     1       3.250   1.767   0.893  0.00  0.00    +0.004 A 
ENDBRANCH  10  13
BRANCH   1  20
ATOM     19  C   UNL     1      -0.019   1.526   0.010  0.00  0.00    +0.010 C 
ATOM     20  C   UNL     1       0.002  -0.004   0.002  0.00  0.00    +0.052 C 
ENDBRANCH   1  20
BRANCH   9  21
ATOM     21  C   UNL     1       4.263  -2.614  -0.538  0.00  0.00    -0.073 C 
BRANCH  21  22
ATOM     22  N   UNL     1       5.510  -3.302  -0.899  0.00  0.00    +0.379 N 
ATOM     23  H   UNL     1       5.425  -4.284  -0.687  0.00  0.00    -0.090 HD
ATOM     24  H   UNL     1       5.686  -3.184  -1.885  0.00  0.00    -0.090 HD
ATOM     25  H   UNL     1       6.275  -2.909  -0.372  0.00  0.00    -0.090 HD
ENDBRANCH  21  22
ENDBRANCH   9  21
TORSDOF 4
