REMARK  Name = ZINC63531051
REMARK  14 active torsions:
REMARK  status: ('A' for Active; 'I' for Inactive)
REMARK    1  A    between atoms: C_1  and  C_2
REMARK    2  A    between atoms: C_2  and  C_3
REMARK    3  A    between atoms: C_2  and  N_4
REMARK    4  A    between atoms: N_4  and  C_5
REMARK    5  A    between atoms: N_4  and  C_30
REMARK    6  A    between atoms: C_5  and  C_6
REMARK    7  A    between atoms: C_6  and  C_7
REMARK    8  A    between atoms: C_7  and  N_8
REMARK    9  A    between atoms: C_9  and  C_11
REMARK   10  A    between atoms: C_13  and  S_23
REMARK   11  A    between atoms: C_17  and  O_21
REMARK   12  A    between atoms: O_21  and  C_22
REMARK   13  A    between atoms: S_23  and  C_24
REMARK   14  A    between atoms: C_30  and  C_31
REMARK                            x       y       z     vdW  Elec       q    Type
REMARK                         _______ _______ _______ _____ _____    ______ ____
ROOT
ATOM      1  N   UNL     1      -0.744  -4.625   3.799  0.00  0.00    -0.313 N 
ATOM      2  C   UNL     1      -0.789  -5.969   3.877  0.00  0.00    +0.240 C 
ATOM      3  O   UNL     1      -1.223  -6.617   2.948  0.00  0.00    -0.273 OA
ATOM      4  H   UNL     1      -0.398  -4.107   4.543  0.00  0.00    +0.149 HD
ENDROOT
BRANCH   2   5
ATOM      5  C   UNL     1      -0.300  -6.668   5.120  0.00  0.00    +0.204 C 
ATOM      6  C   UNL     1       1.207  -6.787   5.091  0.00  0.00    +0.030 C 
ATOM      7  C   UNL     1       1.478  -8.149   5.117  0.00  0.00    +0.010 A 
ATOM      8  C   UNL     1       2.689  -8.879   5.109  0.00  0.00    +0.014 A 
ATOM      9  C   UNL     1       2.659 -10.234   5.140  0.00  0.00    +0.046 A 
ATOM     10  C   UNL     1       1.448 -10.939   5.182  0.00  0.00    +0.122 A 
ATOM     11  C   UNL     1       0.246 -10.297   5.192  0.00  0.00    +0.071 A 
ATOM     12  C   UNL     1       0.204  -8.884   5.160  0.00  0.00    +0.048 A 
ATOM     13  N   UNL     1      -0.816  -8.040   5.163  0.00  0.00    -0.369 N 
ATOM     14  H   UNL     1      -1.753  -8.289   5.189  0.00  0.00    +0.161 HD
BRANCH  10  15
ATOM     15  O   UNL     1       1.474 -12.295   5.212  0.00  0.00    -0.495 OA
ATOM     16  C   UNL     1       2.758 -12.921   5.199  0.00  0.00    +0.277 C 
ENDBRANCH  10  15
BRANCH   6  17
ATOM     17  S   UNL     1       2.309  -5.547   5.039  0.00  0.00    -0.091 S 
BRANCH  17  18
ATOM     18  C   UNL     1       2.094  -4.721   6.580  0.00  0.00    +0.013 A 
ATOM     19  C   UNL     1       1.271  -5.270   7.556  0.00  0.00    +0.015 A 
ATOM     20  C   UNL     1       1.105  -4.619   8.763  0.00  0.00    +0.001 A 
ATOM     21  C   UNL     1       1.756  -3.423   9.001  0.00  0.00    +0.000 A 
ATOM     22  C   UNL     1       2.576  -2.873   8.032  0.00  0.00    +0.001 A 
ATOM     23  C   UNL     1       2.752  -3.521   6.825  0.00  0.00    +0.015 A 
ENDBRANCH  17  18
ENDBRANCH   6  17
ENDBRANCH   2   5
BRANCH   1  24
ATOM     24  C   UNL     1      -1.219  -3.945   2.591  0.00  0.00    +0.102 C 
BRANCH  24  25
ATOM     25  C   UNL     1      -1.059  -2.433   2.761  0.00  0.00    +0.000 C 
BRANCH  25  26
ATOM     26  C   UNL     1      -1.556  -1.723   1.500  0.00  0.00    -0.076 C 
BRANCH  26  27
ATOM     27  N   UNL     1      -1.426  -0.270   1.672  0.00  0.00    +0.384 N 
ATOM     28  H   UNL     1      -1.911   0.014   2.510  0.00  0.00    -0.081 HD
BRANCH  27  30
ATOM     29  C   UNL     1       0.684  -0.133   0.436  0.00  0.00    -0.014 C 
ATOM     30  C   UNL     1      -0.005   0.085   1.785  0.00  0.00    -0.074 C 
ATOM     31  C   UNL     1       0.123   1.554   2.192  0.00  0.00    -0.014 C 
ENDBRANCH  27  30
BRANCH  27  32
ATOM     32  C   UNL     1      -2.011   0.415   0.512  0.00  0.00    -0.043 C 
BRANCH  32  33
ATOM     33  C   UNL     1      -2.068   1.897   0.780  0.00  0.00    -0.064 A 
ATOM     34  C   UNL     1      -2.690   2.369   1.920  0.00  0.00    +0.002 A 
ATOM     35  C   UNL     1      -2.743   3.729   2.166  0.00  0.00    +0.000 A 
ATOM     36  C   UNL     1      -2.174   4.616   1.272  0.00  0.00    +0.000 A 
ATOM     37  C   UNL     1      -1.551   4.143   0.132  0.00  0.00    +0.000 A 
ATOM     38  C   UNL     1      -1.494   2.784  -0.112  0.00  0.00    +0.002 A 
ENDBRANCH  32  33
ENDBRANCH  27  32
ENDBRANCH  26  27
ENDBRANCH  25  26
ENDBRANCH  24  25
ENDBRANCH   1  24
TORSDOF 11
