REMARK  Name = ZINC39855992
REMARK  5 active torsions:
REMARK  status: ('A' for Active; 'I' for Inactive)
REMARK    1  A    between atoms: C_1  and  C_2
REMARK    2  A    between atoms: C_6  and  C_7
REMARK    3  A    between atoms: C_20  and  C_28
REMARK    4  A    between atoms: C_20  and  C_29
REMARK    5  A    between atoms: N_23  and  N_24
REMARK                            x       y       z     vdW  Elec       q    Type
REMARK                         _______ _______ _______ _____ _____    ______ ____
ROOT
ATOM      1  C   UNL     1      -0.018   1.503   0.010  0.00  0.00    +0.048 C 
ATOM      2  C   UNL     1       0.002  -0.004   0.002  0.00  0.00    +0.009 A 
ATOM      3  C   UNL     1       0.009  -0.838  -1.122  0.00  0.00    +0.043 A 
ATOM      4  C   UNL     1       0.027  -2.137  -0.673  0.00  0.00    +0.116 A 
ATOM      5  O   UNL     1       0.035  -2.112   0.658  0.00  0.00    -0.454 OA
ATOM      6  C   UNL     1       0.024  -0.831   1.091  0.00  0.00    +0.193 A 
ATOM      7  C   UNL     1       0.034  -3.326  -1.600  0.00  0.00    +0.081 C 
ATOM      8  C   UNL     1      -0.491  -2.902  -2.974  0.00  0.00    -0.023 C 
ATOM      9  C   UNL     1       0.279  -1.685  -3.495  0.00  0.00    +0.064 C 
ATOM     10  C   UNL     1       0.000  -0.512  -2.566  0.00  0.00    +0.073 C 
ATOM     11  N   UNL     1      -0.227   0.686  -3.007  0.00  0.00    -0.175 NA
ATOM     12  C   UNL     1      -0.324  -4.063  -3.957  0.00  0.00    +0.011 C 
ATOM     13  C   UNL     1      -1.976  -2.549  -2.860  0.00  0.00    +0.011 C 
ENDROOT
BRANCH   6  14
ATOM     14  C   UNL     1       0.031  -0.400   2.493  0.00  0.00    +0.285 C 
ATOM     15  O   UNL     1       0.016   0.786   2.766  0.00  0.00    -0.266 OA
ATOM     16  N   UNL     1       0.053  -1.318   3.480  0.00  0.00    -0.258 N 
ATOM     17  C   UNL     1       0.060  -0.912   4.803  0.00  0.00    +0.166 A 
ATOM     18  N   UNL     1       0.041   0.307   5.290  0.00  0.00    -0.225 NA
ATOM     19  C   UNL     1       0.051   0.558   6.617  0.00  0.00    +0.080 A 
ATOM     20  C   UNL     1       0.033   1.814   7.268  0.00  0.00    +0.029 A 
ATOM     21  C   UNL     1       0.048   1.893   8.636  0.00  0.00    +0.002 A 
ATOM     22  C   UNL     1       0.079   0.755   9.428  0.00  0.00    +0.001 A 
ATOM     23  C   UNL     1       0.096  -0.489   8.825  0.00  0.00    +0.017 A 
ATOM     24  C   UNL     1       0.082  -0.579   7.456  0.00  0.00    +0.041 A 
ATOM     25  S   UNL     1       0.088  -1.913   6.283  0.00  0.00    -0.052 S 
ATOM     26  H   UNL     1       0.065  -2.263   3.263  0.00  0.00    +0.157 HD
ENDBRANCH   6  14
BRANCH  11  27
ATOM     27  N   UNL     1      -0.223   0.938  -4.386  0.00  0.00    -0.248 N 
ATOM     28  C   UNL     1      -0.463   2.203  -4.851  0.00  0.00    +0.187 C 
ATOM     29  N   UNL     1      -0.459   2.442  -6.162  0.00  0.00    -0.370 N 
ATOM     30  N   UNL     1      -0.701   3.195  -3.994  0.00  0.00    -0.370 N 
ATOM     31  H   UNL     1      -0.049   0.216  -5.010  0.00  0.00    +0.192 HD
ATOM     32  H   UNL     1      -0.629   3.338  -6.492  0.00  0.00    +0.159 HD
ATOM     33  H   UNL     1      -0.705   3.021  -3.039  0.00  0.00    +0.159 HD
ATOM     34  H   UNL     1      -0.872   4.091  -4.324  0.00  0.00    +0.159 HD
ATOM     35  H   UNL     1      -0.285   1.720  -6.787  0.00  0.00    +0.159 HD
ENDBRANCH  11  27
TORSDOF 2
