REMARK  Name = ZINC56786198
REMARK  7 active torsions:
REMARK  status: ('A' for Active; 'I' for Inactive)
REMARK    1  A    between atoms: C_1  and  C_2
REMARK    2  A    between atoms: N_7  and  C_9
REMARK    3  A    between atoms: C_9  and  C_10
REMARK    4  A    between atoms: C_10  and  C_12
REMARK    5  A    between atoms: C_10  and  N_13
REMARK    6  A    between atoms: N_16  and  N_17
REMARK    7  A    between atoms: C_18  and  C_20
REMARK                            x       y       z     vdW  Elec       q    Type
REMARK                         _______ _______ _______ _____ _____    ______ ____
ROOT
ATOM      1  N   UNL     1       0.199  -4.504   2.224  0.00  0.00    -0.297 N 
ATOM      2  C   UNL     1      -0.001  -5.764   1.791  0.00  0.00    +0.316 C 
ATOM      3  O   UNL     1       0.951  -6.475   1.530  0.00  0.00    -0.251 OA
ATOM      4  N   UNL     1      -1.254  -6.237   1.646  0.00  0.00    -0.218 N 
ATOM      5  H   UNL     1      -0.560  -3.937   2.433  0.00  0.00    +0.150 HD
ATOM      6  H   UNL     1      -1.398  -7.144   1.334  0.00  0.00    +0.174 HD
ENDROOT
BRANCH   4   7
ATOM      7  N   UNL     1      -2.350  -5.417   1.946  0.00  0.00    -0.228 N 
ATOM      8  C   UNL     1      -3.604  -5.889   1.802  0.00  0.00    +0.276 C 
ATOM      9  O   UNL     1      -3.785  -7.027   1.410  0.00  0.00    -0.267 OA
ATOM     10  H   UNL     1      -2.207  -4.510   2.259  0.00  0.00    +0.173 HD
BRANCH   8  11
ATOM     11  C   UNL     1      -4.752  -5.032   2.116  0.00  0.00    +0.104 A 
ATOM     12  C   UNL     1      -6.082  -5.383   2.021  0.00  0.00    +0.047 A 
ATOM     13  C   UNL     1      -6.830  -4.269   2.417  0.00  0.00    +0.036 A 
ATOM     14  C   UNL     1      -5.963  -3.279   2.739  0.00  0.00    +0.098 A 
ATOM     15  N   UNL     1      -4.697  -3.732   2.566  0.00  0.00    -0.356 N 
ATOM     16  H   UNL     1      -3.887  -3.224   2.730  0.00  0.00    +0.166 HD
ATOM     17 BR   UNL     1      -8.717  -4.163   2.487  0.00  0.00    -0.049 Br
ENDBRANCH   8  11
ENDBRANCH   4   7
BRANCH   1  18
ATOM     18  C   UNL     1       1.562  -3.991   2.382  0.00  0.00    +0.055 C 
ATOM     19  C   UNL     1       2.089  -4.359   3.771  0.00  0.00    +0.026 C 
BRANCH  18  20
ATOM     20  C   UNL     1       1.555  -2.469   2.225  0.00  0.00    -0.057 C 
BRANCH  20  26
ATOM     21  C   UNL     1       2.049  -2.806  -2.633  0.00  0.00    +0.005 C 
ATOM     22  C   UNL     1       1.152  -2.301  -1.502  0.00  0.00    -0.031 C 
ATOM     23  C   UNL     1       0.953  -0.789  -1.644  0.00  0.00    -0.001 C 
ATOM     24  C   UNL     1       0.119  -0.281  -0.464  0.00  0.00    -0.018 C 
ATOM     25  C   UNL     1       0.818  -0.653   0.845  0.00  0.00    -0.079 C 
ATOM     26  N   UNL     1       0.955  -2.112   0.933  0.00  0.00    +0.381 N 
ATOM     27  C   UNL     1       1.812  -2.599  -0.154  0.00  0.00    -0.076 C 
ATOM     28  H   UNL     1       0.044  -2.539   0.859  0.00  0.00    -0.082 HD
ENDBRANCH  20  26
ENDBRANCH  18  20
ENDBRANCH   1  18
TORSDOF 5
