REMARK  Name = ZINC66977550
REMARK  5 active torsions:
REMARK  status: ('A' for Active; 'I' for Inactive)
REMARK    1  A    between atoms: C_5  and  C_7
REMARK    2  A    between atoms: C_7  and  C_8
REMARK    3  A    between atoms: N_10  and  N_11
REMARK    4  A    between atoms: N_14  and  C_15
REMARK    5  A    between atoms: N_24  and  C_26
REMARK                            x       y       z     vdW  Elec       q    Type
REMARK                         _______ _______ _______ _____ _____    ______ ____
ROOT
ATOM      1  N   UNL     1       1.548  -4.494   2.938  0.00  0.00    -0.218 N 
ATOM      2  C   UNL     1       1.590  -5.820   3.176  0.00  0.00    +0.316 C 
ATOM      3  O   UNL     1       1.706  -6.230   4.314  0.00  0.00    -0.251 OA
ATOM      4  N   UNL     1       1.502  -6.691   2.151  0.00  0.00    -0.295 N 
ATOM      5  H   UNL     1       1.611  -3.867   3.676  0.00  0.00    +0.174 HD
ATOM      6  H   UNL     1       1.409  -6.364   1.243  0.00  0.00    +0.151 HD
ENDROOT
BRANCH   4   7
ATOM      7  C   UNL     1       1.547  -8.129   2.409  0.00  0.00    +0.077 C 
ATOM      8  C   UNL     1       0.146  -8.657   2.725  0.00  0.00    -0.007 C 
ATOM      9  C   UNL     1       0.235 -10.132   3.102  0.00  0.00    +0.003 C 
ATOM     10  C   UNL     1       0.907 -10.973   2.028  0.00  0.00    +0.001 C 
ATOM     11  C   UNL     1       2.193 -10.358   1.498  0.00  0.00    +0.003 C 
ATOM     12  C   UNL     1       2.046  -8.876   1.170  0.00  0.00    -0.007 C 
ATOM     13  C   UNL     1       1.100  -8.652   0.001  0.00  0.00    -0.073 C 
ATOM     14  N   UNL     1      -0.282  -9.013   0.298  0.00  0.00    +0.382 N 
ATOM     15  C   UNL     1      -0.782  -8.435   1.541  0.00  0.00    -0.073 C 
ATOM     16  H   UNL     1      -0.386 -10.016   0.312  0.00  0.00    -0.081 HD
BRANCH  14  17
ATOM     17  C   UNL     1      -1.126  -8.527  -0.801  0.00  0.00    -0.069 C 
ATOM     18  C   UNL     1      -2.086  -9.526  -1.450  0.00  0.00    -0.017 C 
ATOM     19  C   UNL     1      -0.837  -9.063  -2.204  0.00  0.00    -0.017 C 
ENDBRANCH  14  17
ENDBRANCH   4   7
BRANCH   1  22
ATOM     20  C   UNL     1       1.372  -2.695   1.389  0.00  0.00    +0.234 C 
ATOM     21  O   UNL     1       1.451  -1.911   2.311  0.00  0.00    -0.274 OA
ATOM     22  N   UNL     1       1.414  -4.021   1.627  0.00  0.00    -0.233 N 
ATOM     23  H   UNL     1       1.351  -4.648   0.889  0.00  0.00    +0.173 HD
BRANCH  20  24
ATOM     24  C   UNL     1       1.228  -2.186  -0.022  0.00  0.00    +0.135 C 
BRANCH  24  29
ATOM     25  C   UNL     1      -0.017   1.378   0.010  0.00  0.00    +0.000 A 
ATOM     26  C   UNL     1       1.171   2.087   0.002  0.00  0.00    +0.003 A 
ATOM     27  C   UNL     1       2.377   1.414  -0.013  0.00  0.00    +0.038 A 
ATOM     28  C   UNL     1       2.397   0.029  -0.021  0.00  0.00    +0.127 A 
ATOM     29  C   UNL     1       1.208  -0.679  -0.013  0.00  0.00    -0.003 A 
ATOM     30  C   UNL     1       0.002  -0.004   0.002  0.00  0.00    +0.007 A 
ATOM     31  F   UNL     1       3.577  -0.630  -0.036  0.00  0.00    -0.205 F 
ENDBRANCH  24  29
ENDBRANCH  20  24
ENDBRANCH   1  22
TORSDOF 5
