REMARK  Name = ZINC14428714
REMARK  10 active torsions:
REMARK  status: ('A' for Active; 'I' for Inactive)
REMARK    1  A    between atoms: C_1  and  C_2
REMARK    2  A    between atoms: C_5  and  N_9
REMARK    3  A    between atoms: C_10  and  C_12
REMARK    4  A    between atoms: C_12  and  C_14
REMARK    5  A    between atoms: C_12  and  N_18
REMARK    6  A    between atoms: C_14  and  C_15
REMARK    7  A    between atoms: C_15  and  S_16
REMARK    8  A    between atoms: S_16  and  C_17
REMARK    9  A    between atoms: C_19  and  C_21
REMARK   10  A    between atoms: C_25  and  N_27
REMARK                            x       y       z     vdW  Elec       q    Type
REMARK                         _______ _______ _______ _____ _____    ______ ____
ROOT
ATOM      1  C   UNL     1      -2.451  -2.931   0.148  0.00  0.00    +0.160 C 
ENDROOT
BRANCH   1   3
ATOM      2  N   UNL     1      -3.300  -5.095  -0.700  0.00  0.00    -0.284 N 
ATOM      3  C   UNL     1      -2.242  -4.296  -0.455  0.00  0.00    +0.238 C 
ATOM      4  O   UNL     1      -1.121  -4.677  -0.720  0.00  0.00    -0.273 OA
ATOM      5  H   UNL     1      -4.187  -4.823  -0.419  0.00  0.00    +0.155 HD
BRANCH   2  10
ATOM      6  C   UNL     1      -2.559 -10.043  -3.376  0.00  0.00    +0.045 C 
ATOM      7  C   UNL     1      -2.756  -8.728  -2.665  0.00  0.00    -0.032 A 
ATOM      8  C   UNL     1      -1.953  -7.647  -2.978  0.00  0.00    +0.006 A 
ATOM      9  C   UNL     1      -2.135  -6.440  -2.333  0.00  0.00    +0.023 A 
ATOM     10  C   UNL     1      -3.118  -6.315  -1.359  0.00  0.00    +0.035 A 
ATOM     11  C   UNL     1      -3.922  -7.402  -1.046  0.00  0.00    +0.043 A 
ATOM     12  C   UNL     1      -3.740  -8.606  -1.700  0.00  0.00    +0.046 A 
ATOM     13 CL   UNL     1      -4.745  -9.966  -1.309  0.00  0.00    -0.083 Cl
ENDBRANCH   2  10
ENDBRANCH   1   3
BRANCH   1  14
ATOM     14  N   UNL     1      -1.156  -2.267   0.314  0.00  0.00    -0.300 N 
ATOM     15  C   UNL     1      -1.089  -0.921   0.344  0.00  0.00    +0.245 C 
ATOM     16  O   UNL     1      -2.102  -0.259   0.234  0.00  0.00    -0.270 OA
ATOM     17  H   UNL     1      -0.348  -2.795   0.402  0.00  0.00    +0.150 HD
BRANCH  15  18
ATOM     18  C   UNL     1       0.218  -0.250   0.512  0.00  0.00    +0.039 A 
ATOM     19  C   UNL     1       1.384  -1.009   0.638  0.00  0.00    +0.014 A 
ATOM     20  C   UNL     1       2.600  -0.378   0.794  0.00  0.00    +0.023 A 
ATOM     21  C   UNL     1       2.666   1.006   0.826  0.00  0.00    +0.071 A 
ATOM     22  C   UNL     1       1.513   1.763   0.700  0.00  0.00    +0.145 A 
ATOM     23  C   UNL     1       0.291   1.143   0.544  0.00  0.00    +0.047 A 
ATOM     24 CL   UNL     1       4.201   1.793   1.022  0.00  0.00    -0.081 Cl
BRANCH  22  25
ATOM     25  N   UNL     1       1.593   3.241   0.735  0.00  0.00    +0.058 N 
ATOM     26  O   UNL     1       0.580   3.908   0.625  0.00  0.00    -0.126 OA
ATOM     27  O   UNL     1       2.671   3.789   0.873  0.00  0.00    -0.126 OA
ENDBRANCH  22  25
ENDBRANCH  15  18
ENDBRANCH   1  14
BRANCH   1  28
ATOM     28  C   UNL     1      -3.130  -3.074   1.512  0.00  0.00    +0.042 C 
BRANCH  28  29
ATOM     29  C   UNL     1      -3.455  -1.687   2.068  0.00  0.00    +0.071 C 
BRANCH  29  30
ATOM     30  S   UNL     1      -4.260  -1.856   3.685  0.00  0.00    -0.164 S 
ATOM     31  C   UNL     1      -4.575  -0.146   4.199  0.00  0.00    +0.084 C 
ENDBRANCH  29  30
ENDBRANCH  28  29
ENDBRANCH   1  28
TORSDOF 8
