REMARK  Name = ZINC06280628
REMARK  11 active torsions:
REMARK  status: ('A' for Active; 'I' for Inactive)
REMARK    1  A    between atoms: C_1  and  C_2
REMARK    2  A    between atoms: C_7  and  N_8
REMARK    3  A    between atoms: C_13  and  C_15
REMARK    4  A    between atoms: C_13  and  C_29
REMARK    5  A    between atoms: C_13  and  N_67
REMARK    6  A    between atoms: C_20  and  O_27
REMARK    7  A    between atoms: O_27  and  C_28
REMARK    8  A    between atoms: N_33  and  C_34
REMARK    9  A    between atoms: C_34  and  C_35
REMARK   10  A    between atoms: C_35  and  O_36
REMARK   11  A    between atoms: O_36  and  C_37
REMARK                            x       y       z     vdW  Elec       q    Type
REMARK                         _______ _______ _______ _____ _____    ______ ____
ROOT
ATOM      1  C   UNL     1      -8.090  -0.013   3.182  0.00  0.00    +0.039 C 
ENDROOT
BRANCH   1   2
ATOM      2  C   UNL     1      -6.653   0.388   2.968  0.00  0.00    +0.011 A 
ATOM      3  C   UNL     1      -5.681  -0.136   3.758  0.00  0.00    +0.017 A 
ATOM      4  C   UNL     1      -4.296   0.273   3.525  0.00  0.00    -0.001 A 
ATOM      5  C   UNL     1      -3.252  -0.232   4.309  0.00  0.00    +0.013 A 
ATOM      6  C   UNL     1      -1.969   0.163   4.065  0.00  0.00    +0.046 A 
ATOM      7  C   UNL     1      -1.690   1.077   3.049  0.00  0.00    +0.122 A 
ATOM      8  C   UNL     1      -2.709   1.588   2.264  0.00  0.00    +0.072 A 
ATOM      9  C   UNL     1      -4.020   1.192   2.494  0.00  0.00    +0.053 A 
ATOM     10  N   UNL     1      -5.054   1.687   1.727  0.00  0.00    -0.322 N 
ATOM     11  H   UNL     1      -4.863   2.319   1.017  0.00  0.00    +0.169 HD
ATOM     12  C   UNL     1      -6.324   1.305   1.949  0.00  0.00    +0.251 A 
ATOM     13  O   UNL     1      -7.213   1.762   1.252  0.00  0.00    -0.268 OA
BRANCH   7  14
ATOM     14  O   UNL     1      -0.408   1.463   2.825  0.00  0.00    -0.495 OA
ATOM     15  C   UNL     1       0.597   0.899   3.669  0.00  0.00    +0.277 C 
ENDBRANCH   7  14
ENDBRANCH   1   2
BRANCH   1  21
ATOM     16  N   UNL     1     -10.556   2.813   5.127  0.00  0.00    -0.333 N 
ATOM     17  C   UNL     1     -11.108   2.100   3.967  0.00  0.00    +0.086 C 
ATOM     18  C   UNL     1     -10.297   0.825   3.722  0.00  0.00    -0.058 C 
ATOM     19  C   UNL     1      -8.336   1.893   4.657  0.00  0.00    -0.058 C 
ATOM     20  C   UNL     1      -9.147   3.167   4.902  0.00  0.00    +0.086 C 
ATOM     21  N   UNL     1      -8.888   1.197   3.475  0.00  0.00    +0.391 N 
ATOM     22  H   UNL     1      -8.846   1.829   2.667  0.00  0.00    -0.080 HD
BRANCH  16  29
ATOM     23  C   UNL     1     -11.768   2.976   7.695  0.00  0.00    +0.045 C 
ATOM     24  C   UNL     1     -11.924   4.068   6.669  0.00  0.00    -0.029 A 
ATOM     25  C   UNL     1     -12.674   5.190   6.962  0.00  0.00    +0.006 A 
ATOM     26  C   UNL     1     -12.819   6.193   6.021  0.00  0.00    +0.020 A 
ATOM     27  C   UNL     1     -12.213   6.076   4.782  0.00  0.00    +0.043 A 
ATOM     28  C   UNL     1     -11.457   4.957   4.484  0.00  0.00    +0.043 A 
ATOM     29  C   UNL     1     -11.315   3.947   5.426  0.00  0.00    +0.034 A 
ATOM     30 CL   UNL     1     -12.397   7.337   3.604  0.00  0.00    -0.083 Cl
ENDBRANCH  16  29
ENDBRANCH   1  21
BRANCH   1  31
ATOM     31  C   UNL     1      -8.174  -0.990   4.327  0.00  0.00    +0.143 A 
ATOM     32  N   UNL     1      -8.060  -0.713   5.602  0.00  0.00    -0.115 NA
ATOM     33  N   UNL     1      -8.193  -1.812   6.262  0.00  0.00    -0.023 NA
ATOM     34  N   UNL     1      -8.380  -2.784   5.439  0.00  0.00    -0.044 NA
ATOM     35  N   UNL     1      -8.375  -2.318   4.236  0.00  0.00    -0.228 N 
BRANCH  35  36
ATOM     36  C   UNL     1      -8.554  -3.089   3.003  0.00  0.00    +0.175 C 
BRANCH  36  37
ATOM     37  C   UNL     1      -7.191  -3.568   2.499  0.00  0.00    +0.183 C 
BRANCH  37  38
ATOM     38  O   UNL     1      -7.366  -4.320   1.296  0.00  0.00    -0.381 OA
ATOM     39  C   UNL     1      -6.147  -4.816   0.739  0.00  0.00    +0.194 C 
ENDBRANCH  37  38
ENDBRANCH  36  37
ENDBRANCH  35  36
ENDBRANCH   1  31
TORSDOF 8
