REMARK  Name = ZINC51820233
REMARK  9 active torsions:
REMARK  status: ('A' for Active; 'I' for Inactive)
REMARK    1  A    between atoms: C_1  and  C_2
REMARK    2  A    between atoms: C_3  and  C_19
REMARK    3  A    between atoms: C_7  and  C_8
REMARK    4  A    between atoms: N_9  and  O_10
REMARK    5  A    between atoms: N_12  and  C_13
REMARK    6  A    between atoms: N_12  and  C_14
REMARK    7  A    between atoms: C_14  and  C_15
REMARK    8  A    between atoms: C_15  and  C_17
REMARK    9  A    between atoms: C_15  and  O_18
REMARK                            x       y       z     vdW  Elec       q    Type
REMARK                         _______ _______ _______ _____ _____    ______ ____
ROOT
ATOM      1  C   UNL     1      -0.155   1.497   0.006  0.00  0.00    +0.046 C 
ATOM      2  C   UNL     1      -0.063  -0.007  -0.000  0.00  0.00    -0.016 A 
ATOM      3  C   UNL     1      -0.043  -0.717  -1.190  0.00  0.00    +0.035 A 
ATOM      4  N   UNL     1       0.038  -2.033  -1.175  0.00  0.00    -0.280 N 
ATOM      5  N   UNL     1       0.101  -2.710  -0.087  0.00  0.00    -0.158 NA
ATOM      6  C   UNL     1       0.090  -2.132   1.105  0.00  0.00    +0.152 A 
ATOM      7  C   UNL     1       0.012  -0.731   1.195  0.00  0.00    +0.064 A 
ATOM      8  N   UNL     1       0.161  -2.903   2.255  0.00  0.00    -0.314 N 
ATOM      9  C   UNL     1       1.463  -3.340   2.766  0.00  0.00    +0.131 C 
ATOM     10  C   UNL     1      -0.115   0.017  -2.504  0.00  0.00    +0.065 C 
ATOM     11  H   UNL     1       0.049  -2.508  -2.021  0.00  0.00    +0.189 HD
ENDROOT
BRANCH   7  12
ATOM     12  C   UNL     1       0.003  -0.047   2.506  0.00  0.00    +0.166 C 
ATOM     13  N   UNL     1      -1.121   0.143   3.133  0.00  0.00    -0.071 NA
ATOM     14  N   UNL     1       1.191   0.392   3.067  0.00  0.00    -0.340 N 
ATOM     15  H   UNL     1       2.029   0.250   2.599  0.00  0.00    +0.144 HD
ATOM     16  H   UNL     1       1.185   0.841   3.927  0.00  0.00    +0.144 HD
BRANCH  13  17
ATOM     17  O   UNL     1      -1.130   0.798   4.389  0.00  0.00    -0.408 OA
ATOM     18  H   UNL     1      -2.010   0.893   4.777  0.00  0.00    +0.328 HD
ENDBRANCH  13  17
ENDBRANCH   7  12
BRANCH   8  19
ATOM     19  C   UNL     1      -1.066  -3.281   2.960  0.00  0.00    +0.137 C 
BRANCH  19  20
ATOM     20  C   UNL     1      -1.582  -4.612   2.408  0.00  0.00    +0.129 C 
ATOM     21  C   UNL     1      -2.864  -5.007   3.144  0.00  0.00    +0.039 C 
BRANCH  20  22
ATOM     22  O   UNL     1      -1.858  -4.473   1.013  0.00  0.00    -0.391 OA
ATOM     23  H   UNL     1      -2.523  -3.802   0.808  0.00  0.00    +0.210 HD
ENDBRANCH  20  22
ENDBRANCH  19  20
ENDBRANCH   8  19
TORSDOF 5
