REMARK  Name = ZINC07061189
REMARK  7 active torsions:
REMARK  status: ('A' for Active; 'I' for Inactive)
REMARK    1  A    between atoms: C_1  and  C_2
REMARK    2  A    between atoms: C_9  and  S_12
REMARK    3  A    between atoms: S_12  and  C_13
REMARK    4  A    between atoms: C_13  and  C_15
REMARK    5  A    between atoms: C_13  and  C_16
REMARK    6  A    between atoms: N_18  and  C_19
REMARK    7  A    between atoms: C_20  and  C_24
REMARK                            x       y       z     vdW  Elec       q    Type
REMARK                         _______ _______ _______ _____ _____    ______ ____
ROOT
ATOM      1  C   UNL     1       0.002  -0.004   0.002  0.00  0.00    +0.137 C 
ATOM      2  C   UNL     1       0.606  -0.499  -1.314  0.00  0.00    +0.029 C 
ENDROOT
BRANCH   1   3
ATOM      3  C   UNL     1      -1.405  -0.526   0.137  0.00  0.00    +0.231 C 
ATOM      4  O   UNL     1      -2.342   0.158  -0.216  0.00  0.00    -0.274 OA
ATOM      5  N   UNL     1      -1.622  -1.754   0.648  0.00  0.00    -0.278 N 
ATOM      6  H   UNL     1      -0.873  -2.302   0.930  0.00  0.00    +0.155 HD
BRANCH   5   7
ATOM      7  C   UNL     1      -2.917  -2.235   0.772  0.00  0.00    +0.084 A 
ATOM      8  C   UNL     1      -3.338  -3.464   1.265  0.00  0.00    +0.065 A 
ATOM      9  C   UNL     1      -4.762  -3.703   1.283  0.00  0.00    +0.022 A 
ATOM     10  C   UNL     1      -5.555  -2.723   0.813  0.00  0.00    +0.048 A 
ATOM     11  S   UNL     1      -4.401  -1.452   0.342  0.00  0.00    -0.081 S 
BRANCH   8  12
ATOM     12  C   UNL     1      -2.384  -4.467   1.747  0.00  0.00    +0.244 C 
ATOM     13  O   UNL     1      -1.190  -4.233   1.721  0.00  0.00    -0.270 OA
ATOM     14  N   UNL     1      -2.829  -5.649   2.218  0.00  0.00    -0.325 N 
ATOM     15  H   UNL     1      -3.781  -5.835   2.239  0.00  0.00    +0.145 HD
ATOM     16  H   UNL     1      -2.197  -6.313   2.537  0.00  0.00    +0.145 HD
ENDBRANCH   8  12
ENDBRANCH   5   7
ENDBRANCH   1   3
BRANCH   1  17
ATOM     17  S   UNL     1      -0.022   1.806   0.012  0.00  0.00    -0.075 S 
BRANCH  17  26
ATOM     18  C   UNL     1       7.647   1.693  -0.062  0.00  0.00    +0.044 C 
ATOM     19  C   UNL     1       6.234   2.219  -0.046  0.00  0.00    -0.048 A 
ATOM     20  C   UNL     1       6.009   3.587  -0.036  0.00  0.00    +0.005 A 
ATOM     21  C   UNL     1       4.722   4.084  -0.021  0.00  0.00    +0.028 A 
ATOM     22  C   UNL     1       3.646   3.210  -0.015  0.00  0.00    +0.067 A 
ATOM     23  C   UNL     1       3.868   1.823  -0.025  0.00  0.00    +0.090 A 
ATOM     24  C   UNL     1       5.177   1.337  -0.041  0.00  0.00    +0.033 A 
ATOM     25  N   UNL     1       2.649   1.223  -0.017  0.00  0.00    -0.222 NA
ATOM     26  C   UNL     1       1.708   2.135  -0.003  0.00  0.00    +0.168 A 
ATOM     27  N   UNL     1       2.271   3.381  -0.007  0.00  0.00    -0.333 N 
ATOM     28  H   UNL     1       1.781   4.253  -0.004  0.00  0.00    +0.168 HD
ENDBRANCH  17  26
ENDBRANCH   1  17
TORSDOF 5
