REMARK  Name = ZINC14962435
REMARK  4 active torsions:
REMARK  status: ('A' for Active; 'I' for Inactive)
REMARK    1  A    between atoms: C_10  and  C_11
REMARK    2  A    between atoms: C_11  and  N_59
REMARK    3  A    between atoms: C_17  and  C_19
REMARK    4  A    between atoms: C_19  and  C_20
REMARK                            x       y       z     vdW  Elec       q    Type
REMARK                         _______ _______ _______ _____ _____    ______ ____
ROOT
ATOM      1  C   UNL     1       5.162  -3.684  -2.032  0.00  0.00    -0.058 C 
ATOM      2  C   UNL     1       4.685  -4.985  -1.385  0.00  0.00    +0.085 C 
ATOM      3  N   UNL     1       3.339  -5.310  -1.847  0.00  0.00    -0.318 N 
ATOM      4  C   UNL     1       2.529  -4.410  -2.415  0.00  0.00    +0.200 C 
ATOM      5  O   UNL     1       1.414  -4.757  -2.742  0.00  0.00    -0.278 OA
ATOM      6  C   UNL     1       2.942  -2.987  -2.663  0.00  0.00    +0.028 C 
ATOM      7  H   UNL     1       3.018  -6.219  -1.738  0.00  0.00    +0.149 HD
ATOM      8  N   UNL     1       4.115  -2.662  -1.831  0.00  0.00    +0.391 N 
ATOM      9  H   UNL     1       3.835  -2.659  -0.843  0.00  0.00    -0.080 HD
ENDROOT
BRANCH   8  10
ATOM     10  C   UNL     1       4.635  -1.323  -2.189  0.00  0.00    -0.041 C 
BRANCH  10  20
ATOM     11  C   UNL     1       9.699  -2.064  -2.081  0.00  0.00    +0.001 A 
ATOM     12  C   UNL     1       8.677  -2.405  -2.965  0.00  0.00    +0.001 A 
ATOM     13  C   UNL     1       7.386  -2.056  -2.712  0.00  0.00    +0.009 A 
ATOM     14  C   UNL     1       7.075  -1.346  -1.539  0.00  0.00    -0.017 A 
ATOM     15  C   UNL     1       8.115  -0.995  -0.643  0.00  0.00    -0.018 A 
ATOM     16  C   UNL     1       9.436  -1.373  -0.939  0.00  0.00    +0.008 A 
ATOM     17  C   UNL     1       7.805  -0.281   0.526  0.00  0.00    +0.008 A 
ATOM     18  C   UNL     1       6.514   0.069   0.780  0.00  0.00    +0.001 A 
ATOM     19  C   UNL     1       5.492  -0.272  -0.104  0.00  0.00    +0.002 A 
ATOM     20  C   UNL     1       5.755  -0.964  -1.246  0.00  0.00    -0.056 A 
ENDBRANCH  10  20
ENDBRANCH   8  10
BRANCH   6  21
ATOM     21  C   UNL     1       1.791  -2.051  -2.288  0.00  0.00    +0.090 C 
BRANCH  21  22
ATOM     22  C   UNL     1       1.511  -2.167  -0.811  0.00  0.00    +0.215 C 
ATOM     23  O   UNL     1       2.111  -2.981  -0.142  0.00  0.00    -0.276 OA
ATOM     24  N   UNL     1       0.594  -1.364  -0.235  0.00  0.00    -0.294 N 
ATOM     25  C   UNL     1      -0.126  -0.384  -1.048  0.00  0.00    +0.149 C 
ATOM     26  C   UNL     1      -1.615  -0.692  -1.090  0.00  0.00    +0.248 C 
ATOM     27  O   UNL     1      -2.165  -0.645   0.233  0.00  0.00    -0.490 OA
ATOM     28  C   UNL     1      -2.129  -1.808   0.925  0.00  0.00    +0.125 A 
ATOM     29  C   UNL     1      -3.300  -2.519   1.157  0.00  0.00    +0.046 A 
ATOM     30  C   UNL     1      -3.251  -3.732   1.815  0.00  0.00    +0.004 A 
ATOM     31  C   UNL     1      -2.042  -4.246   2.246  0.00  0.00    +0.001 A 
ATOM     32  C   UNL     1      -0.875  -3.531   2.038  0.00  0.00    +0.009 A 
ATOM     33  C   UNL     1      -0.926  -2.314   1.399  0.00  0.00    +0.012 A 
ATOM     34  C   UNL     1       0.327  -1.482   1.202  0.00  0.00    +0.146 C 
ENDBRANCH  21  22
ENDBRANCH   6  21
TORSDOF 4
