REMARK  Name = ZINC61594608
REMARK  8 active torsions:
REMARK  status: ('A' for Active; 'I' for Inactive)
REMARK    1  A    between atoms: C_1  and  C_2
REMARK    2  A    between atoms: C_2  and  C_3
REMARK    3  A    between atoms: C_3  and  C_5
REMARK    4  A    between atoms: C_3  and  N_24
REMARK    5  A    between atoms: C_5  and  C_7
REMARK    6  A    between atoms: C_5  and  S_13
REMARK    7  A    between atoms: S_13  and  C_14
REMARK    8  A    between atoms: N_20  and  C_21
REMARK                            x       y       z     vdW  Elec       q    Type
REMARK                         _______ _______ _______ _____ _____    ______ ____
ROOT
ATOM      1  C   UNL     1       0.966  -2.004  -1.152  0.00  0.00    +0.076 C 
ENDROOT
BRANCH   1   2
ATOM      2  C   UNL     1       1.859  -2.289  -2.332  0.00  0.00    +0.003 A 
ATOM      3  C   UNL     1       1.670  -3.160  -3.353  0.00  0.00    +0.027 A 
ATOM      4  C   UNL     1       2.635  -3.256  -4.339  0.00  0.00    +0.025 A 
ATOM      5  C   UNL     1       3.741  -2.476  -4.255  0.00  0.00    +0.060 A 
ATOM      6  S   UNL     1       3.434  -1.562  -2.752  0.00  0.00    -0.099 S 
ATOM      7 BR   UNL     1       2.416  -4.457  -5.783  0.00  0.00    -0.050 Br
ENDBRANCH   1   2
BRANCH   1   8
ATOM      8  C   UNL     1       0.554  -0.530  -1.169  0.00  0.00    -0.057 C 
BRANCH   8   9
ATOM      9  N   UNL     1      -0.099  -0.219  -2.448  0.00  0.00    +0.381 N 
ATOM     10  H   UNL     1      -0.370   0.752  -2.459  0.00  0.00    -0.090 HD
ATOM     11  H   UNL     1       0.544  -0.398  -3.205  0.00  0.00    -0.090 HD
ATOM     12  H   UNL     1      -0.917  -0.799  -2.557  0.00  0.00    -0.090 HD
ENDBRANCH   8   9
BRANCH   8  14
ATOM     13  C   UNL     1      -0.729   1.237   0.045  0.00  0.00    +0.002 C 
ATOM     14  C   UNL     1      -0.420  -0.260  -0.020  0.00  0.00    -0.018 C 
ENDBRANCH   8  14
ENDBRANCH   1   8
BRANCH   1  15
ATOM     15  S   UNL     1       1.862  -2.363   0.384  0.00  0.00    -0.079 S 
BRANCH  15  16
ATOM     16  C   UNL     1       2.060  -4.114   0.362  0.00  0.00    +0.193 A 
ATOM     17  N   UNL     1       1.561  -4.923  -0.526  0.00  0.00    -0.145 NA
ATOM     18  N   UNL     1       1.946  -6.228  -0.189  0.00  0.00    -0.226 N 
ATOM     19  H   UNL     1       1.719  -7.037  -0.674  0.00  0.00    +0.194 HD
ATOM     20  C   UNL     1       2.692  -6.152   0.932  0.00  0.00    +0.345 A 
ATOM     21  O   UNL     1       3.203  -7.088   1.521  0.00  0.00    -0.245 OA
ATOM     22  N   UNL     1       2.775  -4.852   1.278  0.00  0.00    -0.268 N 
BRANCH  22  23
ATOM     23  C   UNL     1       3.498  -4.317   2.435  0.00  0.00    +0.094 C 
ATOM     24  C   UNL     1       4.394  -5.281   3.215  0.00  0.00    +0.027 C 
ATOM     25  C   UNL     1       3.072  -4.805   3.821  0.00  0.00    +0.027 C 
ENDBRANCH  22  23
ENDBRANCH  15  16
ENDBRANCH   1  15
TORSDOF 7
