REMARK  Name = ZINC63375701
REMARK  8 active torsions:
REMARK  status: ('A' for Active; 'I' for Inactive)
REMARK    1  A    between atoms: C_1  and  C_2
REMARK    2  A    between atoms: C_2  and  C_3
REMARK    3  A    between atoms: C_3  and  N_4
REMARK    4  A    between atoms: C_5  and  C_7
REMARK    5  A    between atoms: C_10  and  N_13
REMARK    6  A    between atoms: C_29  and  C_34
REMARK    7  A    between atoms: C_38  and  O_40
REMARK    8  A    between atoms: O_40  and  C_41
REMARK                            x       y       z     vdW  Elec       q    Type
REMARK                         _______ _______ _______ _____ _____    ______ ____
ROOT
ATOM      1  N   UNL     1       1.396  -8.267  -2.317  0.00  0.00    -0.193 N 
ATOM      2  C   UNL     1       1.878  -9.013  -3.333  0.00  0.00    +0.248 C 
ATOM      3  O   UNL     1       2.332  -8.613  -4.383  0.00  0.00    -0.273 OA
ATOM      4  C   UNL     1       1.735 -10.453  -2.888  0.00  0.00    +0.169 C 
ATOM      5  C   UNL     1       0.842 -11.219  -3.879  0.00  0.00    +0.065 C 
ATOM      6  C   UNL     1       0.252 -12.380  -3.114  0.00  0.00    -0.034 C 
ATOM      7  C   UNL     1      -0.680 -13.262  -3.459  0.00  0.00    -0.001 A 
ATOM      8  C   UNL     1      -1.399 -13.480  -4.725  0.00  0.00    +0.010 A 
ATOM      9  C   UNL     1      -2.319 -14.481  -4.727  0.00  0.00    +0.001 A 
ATOM     10  C   UNL     1      -2.592 -15.276  -3.609  0.00  0.00    +0.002 A 
ATOM     11  C   UNL     1      -1.975 -15.149  -2.408  0.00  0.00    +0.026 A 
ATOM     12  C   UNL     1      -0.982 -14.134  -2.284  0.00  0.00    +0.043 A 
ATOM     13  N   UNL     1      -0.234 -13.809  -1.272  0.00  0.00    -0.375 N 
ATOM     14  C   UNL     1       0.668 -12.732  -1.691  0.00  0.00    +0.131 C 
ATOM     15  C   UNL     1       0.472 -11.472  -0.839  0.00  0.00    +0.135 C 
ATOM     16  N   UNL     1       1.027 -10.338  -1.596  0.00  0.00    -0.264 N 
ATOM     17  C   UNL     1       0.943  -9.032  -1.313  0.00  0.00    +0.317 C 
ATOM     18  O   UNL     1       0.504  -8.590  -0.270  0.00  0.00    -0.252 OA
ATOM     19  H   UNL     1      -0.267 -14.210  -0.390  0.00  0.00    +0.160 HD
ENDROOT
BRANCH   1  23
ATOM     20  C   UNL     1       1.341  -4.099  -2.293  0.00  0.00    +0.037 A 
ATOM     21  C   UNL     1       0.730  -4.813  -1.259  0.00  0.00    +0.015 A 
ATOM     22  C   UNL     1       0.750  -6.190  -1.270  0.00  0.00    +0.025 A 
ATOM     23  C   UNL     1       1.378  -6.870  -2.309  0.00  0.00    +0.045 A 
ATOM     24  C   UNL     1       1.988  -6.162  -3.339  0.00  0.00    +0.025 A 
ATOM     25  C   UNL     1       1.966  -4.785  -3.337  0.00  0.00    +0.015 A 
BRANCH  20  27
ATOM     26  N   UNL     1       0.718  -1.962  -1.277  0.00  0.00    -0.311 N 
ATOM     27  C   UNL     1       1.321  -2.623  -2.285  0.00  0.00    +0.244 C 
ATOM     28  O   UNL     1       1.849  -2.003  -3.188  0.00  0.00    -0.270 OA
ATOM     29  H   UNL     1       0.296  -2.457  -0.556  0.00  0.00    +0.149 HD
BRANCH  26  30
ATOM     30  C   UNL     1       0.698  -0.498  -1.269  0.00  0.00    +0.104 C 
BRANCH  30  32
ATOM     31  C   UNL     1      -0.064   1.525  -0.016  0.00  0.00    +0.005 C 
ATOM     32  C   UNL     1      -0.044  -0.004  -0.024  0.00  0.00    +0.015 C 
ENDBRANCH  30  32
ENDBRANCH  26  30
ENDBRANCH  20  27
ENDBRANCH   1  23
BRANCH  15  33
ATOM     33  C   UNL     1      -0.995 -11.261  -0.563  0.00  0.00    -0.021 A 
ATOM     34  C   UNL     1      -1.804 -10.692  -1.530  0.00  0.00    +0.006 A 
ATOM     35  C   UNL     1      -3.150 -10.497  -1.280  0.00  0.00    +0.004 A 
ATOM     36  C   UNL     1      -3.689 -10.870  -0.064  0.00  0.00    +0.045 A 
ATOM     37  C   UNL     1      -2.879 -11.441   0.907  0.00  0.00    +0.120 A 
ATOM     38  C   UNL     1      -1.530 -11.641   0.651  0.00  0.00    +0.051 A 
BRANCH  37  39
ATOM     39  O   UNL     1      -3.408 -11.809   2.103  0.00  0.00    -0.495 OA
ATOM     40  C   UNL     1      -4.805 -11.579   2.294  0.00  0.00    +0.277 C 
ENDBRANCH  37  39
ENDBRANCH  15  33
TORSDOF 6
