REMARK  Name = ZINC20586796
REMARK  9 active torsions:
REMARK  status: ('A' for Active; 'I' for Inactive)
REMARK    1  A    between atoms: C_1  and  O_2
REMARK    2  A    between atoms: O_2  and  C_3
REMARK    3  A    between atoms: C_8  and  C_9
REMARK    4  A    between atoms: C_9  and  C_11
REMARK    5  A    between atoms: C_9  and  N_21
REMARK    6  A    between atoms: C_13  and  O_19
REMARK    7  A    between atoms: C_15  and  O_17
REMARK    8  A    between atoms: O_17  and  C_18
REMARK    9  A    between atoms: O_19  and  C_20
REMARK                            x       y       z     vdW  Elec       q    Type
REMARK                         _______ _______ _______ _____ _____    ______ ____
ROOT
ATOM      1  C   UNL     1      -0.018   1.465   0.010  0.00  0.00    -0.009 C 
ENDROOT
BRANCH   1   7
ATOM      2  C   UNL     1      -1.259   3.253  -1.234  0.00  0.00    +0.122 A 
ATOM      3  C   UNL     1      -1.930   3.710  -2.360  0.00  0.00    +0.047 A 
ATOM      4  C   UNL     1      -2.085   2.882  -3.454  0.00  0.00    +0.019 A 
ATOM      5  C   UNL     1      -1.573   1.596  -3.428  0.00  0.00    +0.018 A 
ATOM      6  C   UNL     1      -0.900   1.140  -2.309  0.00  0.00    +0.021 A 
ATOM      7  C   UNL     1      -0.747   1.964  -1.211  0.00  0.00    -0.015 A 
ATOM      8 BR   UNL     1      -1.788   0.464  -4.928  0.00  0.00    -0.050 Br
BRANCH   2  10
ATOM      9  C   UNL     1      -1.659   5.380  -0.252  0.00  0.00    +0.277 C 
ATOM     10  O   UNL     1      -1.105   4.066  -0.157  0.00  0.00    -0.495 OA
ENDBRANCH   2  10
ENDBRANCH   1   7
BRANCH   1  11
ATOM     11  C   UNL     1       1.396   1.986  -0.001  0.00  0.00    -0.051 A 
ATOM     12  C   UNL     1       2.354   1.365  -0.778  0.00  0.00    +0.048 A 
ATOM     13  C   UNL     1       3.656   1.847  -0.794  0.00  0.00    +0.124 A 
ATOM     14  C   UNL     1       3.996   2.946  -0.020  0.00  0.00    +0.091 A 
ATOM     15  C   UNL     1       3.034   3.563   0.764  0.00  0.00    +0.124 A 
ATOM     16  C   UNL     1       1.733   3.082   0.772  0.00  0.00    +0.048 A 
BRANCH  15  17
ATOM     17  O   UNL     1       3.365   4.641   1.524  0.00  0.00    -0.495 OA
ATOM     18  C   UNL     1       4.723   5.082   1.467  0.00  0.00    +0.277 C 
ENDBRANCH  15  17
BRANCH  13  19
ATOM     19  O   UNL     1       4.597   1.239  -1.563  0.00  0.00    -0.495 OA
ATOM     20  C   UNL     1       5.917   1.784  -1.526  0.00  0.00    +0.277 C 
ENDBRANCH  13  19
ENDBRANCH   1  11
BRANCH   1  21
ATOM     21  N   UNL     1       0.002  -0.004   0.002  0.00  0.00    +0.385 N 
ATOM     22  H   UNL     1       0.534  -0.368   0.893  0.00  0.00    -0.089 HD
ATOM     23  H   UNL     1       0.517  -0.359  -0.903  0.00  0.00    -0.089 HD
ATOM     24  H   UNL     1      -1.030  -0.385   0.010  0.00  0.00    -0.089 HD
ENDBRANCH   1  21
TORSDOF 6
