REMARK  Name = ZINC67000785
REMARK  9 active torsions:
REMARK  status: ('A' for Active; 'I' for Inactive)
REMARK    1  A    between atoms: C_1  and  N_2
REMARK    2  A    between atoms: N_2  and  C_3
REMARK    3  A    between atoms: N_2  and  C_4
REMARK    4  A    between atoms: C_4  and  C_5
REMARK    5  A    between atoms: C_9  and  N_11
REMARK    6  A    between atoms: C_12  and  C_14
REMARK    7  A    between atoms: N_16  and  C_17
REMARK    8  A    between atoms: C_17  and  C_18
REMARK    9  A    between atoms: C_18  and  O_28
REMARK                            x       y       z     vdW  Elec       q    Type
REMARK                         _______ _______ _______ _____ _____    ______ ____
ROOT
ATOM      1  C   UNL     1      -1.459  -7.185   3.133  0.00  0.00    +0.299 C 
ATOM      2  O   UNL     1      -1.374  -6.670   4.228  0.00  0.00    -0.265 OA
ATOM      3  N   UNL     1      -1.544  -8.526   3.023  0.00  0.00    -0.305 N 
ATOM      4  H   UNL     1      -1.612  -8.938   2.148  0.00  0.00    +0.149 HD
ENDROOT
BRANCH   1   6
ATOM      5  N   UNL     1      -1.384  -4.993   2.015  0.00  0.00    -0.278 N 
ATOM      6  C   UNL     1      -1.469  -6.334   1.905  0.00  0.00    +0.303 C 
ATOM      7  O   UNL     1      -1.554  -6.849   0.810  0.00  0.00    -0.265 OA
ATOM      8  H   UNL     1      -1.241  -4.585   2.883  0.00  0.00    +0.155 HD
BRANCH   5  13
ATOM      9  C   UNL     1      -0.907  -2.211  -0.339  0.00  0.00    -0.062 A 
ATOM     10  C   UNL     1      -1.735  -2.601  -1.376  0.00  0.00    +0.002 A 
ATOM     11  C   UNL     1      -2.446  -3.784  -1.290  0.00  0.00    +0.002 A 
ATOM     12  C   UNL     1      -2.332  -4.580  -0.167  0.00  0.00    +0.023 A 
ATOM     13  C   UNL     1      -1.501  -4.191   0.877  0.00  0.00    +0.034 A 
ATOM     14  C   UNL     1      -0.784  -3.004   0.784  0.00  0.00    +0.025 A 
BRANCH   9  15
ATOM     15  C   UNL     1      -0.134  -0.921  -0.438  0.00  0.00    -0.044 C 
BRANCH  15  17
ATOM     16  C   UNL     1       1.874   0.095  -1.269  0.00  0.00    -0.096 C 
ATOM     17  N   UNL     1       1.170  -1.178  -1.063  0.00  0.00    +0.379 N 
ATOM     18  C   UNL     1       1.970  -2.045  -0.188  0.00  0.00    -0.096 C 
ATOM     19  H   UNL     1       1.032  -1.634  -1.953  0.00  0.00    -0.082 HD
ENDBRANCH  15  17
ENDBRANCH   9  15
ENDBRANCH   5  13
ENDBRANCH   1   6
BRANCH   3  20
ATOM     20  C   UNL     1      -1.534  -9.361   4.227  0.00  0.00    +0.144 C 
BRANCH  20  21
ATOM     21  C   UNL     1      -1.502 -10.836   3.824  0.00  0.00    +0.107 C 
ATOM     22  C   UNL     1      -0.286 -11.090   2.935  0.00  0.00    +0.041 C 
ATOM     23  C   UNL     1      -0.149 -12.602   2.722  0.00  0.00    +0.008 C 
ATOM     24  C   UNL     1       0.282 -13.237   4.043  0.00  0.00    +0.035 C 
ATOM     25  C   UNL     1      -0.622 -12.793   5.163  0.00  0.00    -0.041 A 
ATOM     26  C   UNL     1      -1.438 -11.689   5.064  0.00  0.00    -0.011 A 
ATOM     27  C   UNL     1      -2.243 -11.330   6.138  0.00  0.00    +0.007 A 
ATOM     28  C   UNL     1      -2.233 -12.073   7.300  0.00  0.00    +0.000 A 
ATOM     29  C   UNL     1      -1.417 -13.184   7.398  0.00  0.00    +0.000 A 
ATOM     30  C   UNL     1      -0.615 -13.541   6.333  0.00  0.00    +0.004 A 
BRANCH  21  31
ATOM     31  O   UNL     1      -2.691 -11.151   3.096  0.00  0.00    -0.382 OA
ATOM     32  H   UNL     1      -3.507 -11.007   3.595  0.00  0.00    +0.211 HD
ENDBRANCH  21  31
ENDBRANCH  20  21
ENDBRANCH   3  20
TORSDOF 7
