REMARK  Name = ZINC42027926
REMARK  4 active torsions:
REMARK  status: ('A' for Active; 'I' for Inactive)
REMARK    1  A    between atoms: C_3  and  N_9
REMARK    2  A    between atoms: C_10  and  C_14
REMARK    3  A    between atoms: C_16  and  N_21
REMARK    4  A    between atoms: C_18  and  N_20
REMARK                            x       y       z     vdW  Elec       q    Type
REMARK                         _______ _______ _______ _____ _____    ______ ____
ROOT
ATOM      1  N   UNL     1       3.606   2.121  -0.201  0.00  0.00    -0.192 N 
ATOM      2  C   UNL     1       4.851   1.625   0.053  0.00  0.00    +0.187 A 
ATOM      3  N   UNL     1       5.655   2.660   0.186  0.00  0.00    -0.108 NA
ATOM      4  N   UNL     1       5.005   3.757   0.034  0.00  0.00    -0.022 NA
ATOM      5  N   UNL     1       3.763   3.518  -0.209  0.00  0.00    -0.039 NA
ENDROOT
BRANCH   1   8
ATOM      6  C   UNL     1       1.201  -0.262  -1.641  0.00  0.00    +0.040 A 
ATOM      7  C   UNL     1       2.364   0.454  -1.433  0.00  0.00    +0.032 A 
ATOM      8  C   UNL     1       2.426   1.394  -0.414  0.00  0.00    +0.084 A 
ATOM      9  C   UNL     1       1.318   1.613   0.395  0.00  0.00    +0.046 A 
ATOM     10  C   UNL     1       0.157   0.895   0.184  0.00  0.00    +0.055 A 
ATOM     11  C   UNL     1       0.097  -0.043  -0.834  0.00  0.00    +0.125 A 
ATOM     12  F   UNL     1      -1.039  -0.744  -1.039  0.00  0.00    -0.205 F 
ATOM     13 BR   UNL     1       1.400   2.893   1.785  0.00  0.00    -0.048 Br
ENDBRANCH   1   8
BRANCH   2  14
ATOM     14  C   UNL     1       5.227   0.198   0.159  0.00  0.00    +0.025 A 
ATOM     15  C   UNL     1       4.248  -0.766   0.396  0.00  0.00    +0.034 A 
ATOM     16  C   UNL     1       4.604  -2.104   0.495  0.00  0.00    +0.027 A 
ATOM     17  C   UNL     1       5.933  -2.482   0.359  0.00  0.00    +0.045 A 
ATOM     18  C   UNL     1       6.910  -1.524   0.124  0.00  0.00    +0.027 A 
ATOM     19  C   UNL     1       6.560  -0.186   0.018  0.00  0.00    +0.034 A 
BRANCH  18  20
ATOM     20  N   UNL     1       8.246  -1.909  -0.012  0.00  0.00    -0.358 N 
ATOM     21  H   UNL     1       8.491  -2.845   0.058  0.00  0.00    +0.142 HD
ATOM     22  H   UNL     1       8.929  -1.240  -0.177  0.00  0.00    +0.142 HD
ENDBRANCH  18  20
BRANCH  16  23
ATOM     23  N   UNL     1       3.623  -3.070   0.733  0.00  0.00    -0.358 N 
ATOM     24  H   UNL     1       2.695  -2.807   0.828  0.00  0.00    +0.142 HD
ATOM     25  H   UNL     1       3.872  -4.005   0.802  0.00  0.00    +0.142 HD
ENDBRANCH  16  23
ENDBRANCH   2  14
TORSDOF 4
