REMARK  Name = ZINC01095149
REMARK  9 active torsions:
REMARK  status: ('A' for Active; 'I' for Inactive)
REMARK    1  A    between atoms: C_1  and  C_2
REMARK    2  A    between atoms: C_2  and  C_3
REMARK    3  A    between atoms: C_3  and  C_5
REMARK    4  A    between atoms: C_3  and  O_6
REMARK    5  A    between atoms: O_6  and  C_7
REMARK    6  A    between atoms: C_10  and  C_14
REMARK    7  A    between atoms: N_15  and  N_16
REMARK    8  A    between atoms: C_17  and  C_19
REMARK    9  A    between atoms: C_23  and  N_28
REMARK                            x       y       z     vdW  Elec       q    Type
REMARK                         _______ _______ _______ _____ _____    ______ ____
ROOT
ATOM      1  N   UNL     1      -2.552   4.081  -0.179  0.00  0.00    -0.200 N 
ATOM      2  C   UNL     1      -2.579   5.413  -0.386  0.00  0.00    +0.299 C 
ATOM      3  O   UNL     1      -1.542   6.020  -0.579  0.00  0.00    -0.265 OA
ATOM      4  H   UNL     1      -3.378   3.597  -0.026  0.00  0.00    +0.178 HD
ENDROOT
BRANCH   2   5
ATOM      5  C   UNL     1      -3.861   6.131  -0.378  0.00  0.00    +0.192 A 
ATOM      6  C   UNL     1      -4.009   7.467  -0.574  0.00  0.00    +0.063 A 
ATOM      7  C   UNL     1      -5.444   7.733  -0.481  0.00  0.00    +0.023 A 
ATOM      8  C   UNL     1      -6.231   8.883  -0.588  0.00  0.00    +0.044 A 
ATOM      9  C   UNL     1      -7.587   8.791  -0.447  0.00  0.00    +0.127 A 
ATOM     10  C   UNL     1      -8.187   7.564  -0.198  0.00  0.00    +0.036 A 
ATOM     11  C   UNL     1      -7.429   6.418  -0.089  0.00  0.00    +0.049 A 
ATOM     12  C   UNL     1      -6.048   6.486  -0.229  0.00  0.00    +0.136 A 
ATOM     13  O   UNL     1      -5.068   5.562  -0.181  0.00  0.00    -0.450 OA
BRANCH   9  14
ATOM     14  N   UNL     1      -8.421  10.008  -0.561  0.00  0.00    +0.056 N 
ATOM     15  O   UNL     1      -9.630   9.931  -0.436  0.00  0.00    -0.126 OA
ATOM     16  O   UNL     1      -7.899  11.086  -0.779  0.00  0.00    -0.126 OA
ENDBRANCH   9  14
ENDBRANCH   2   5
BRANCH   1  18
ATOM     17  C   UNL     1      -1.303   2.113   0.012  0.00  0.00    +0.138 C 
ATOM     18  N   UNL     1      -1.329   3.396  -0.187  0.00  0.00    -0.187 NA
BRANCH  17  22
ATOM     19  C   UNL     1       2.400   0.037  -0.023  0.00  0.00    +0.135 A 
ATOM     20  C   UNL     1       2.373   1.409  -0.236  0.00  0.00    +0.047 A 
ATOM     21  C   UNL     1       1.174   2.087  -0.223  0.00  0.00    +0.013 A 
ATOM     22  C   UNL     1      -0.017   1.393   0.004  0.00  0.00    -0.004 A 
ATOM     23  C   UNL     1       0.014   0.012   0.218  0.00  0.00    +0.028 A 
ATOM     24  C   UNL     1       1.218  -0.658   0.204  0.00  0.00    +0.060 A 
ATOM     25 BR   UNL     1       1.263  -2.527   0.493  0.00  0.00    -0.046 Br
BRANCH  19  26
ATOM     26  O   UNL     1       3.585  -0.628  -0.036  0.00  0.00    -0.488 OA
BRANCH  26  27
ATOM     27  C   UNL     1       4.770   0.162  -0.154  0.00  0.00    +0.170 C 
ATOM     28  C   UNL     1       5.049   0.446  -1.631  0.00  0.00    +0.052 C 
BRANCH  27  30
ATOM     29  C   UNL     1       5.731  -0.775   1.954  0.00  0.00    +0.007 C 
ATOM     30  C   UNL     1       5.952  -0.600   0.450  0.00  0.00    +0.041 C 
ENDBRANCH  27  30
ENDBRANCH  26  27
ENDBRANCH  19  26
ENDBRANCH  17  22
ENDBRANCH   1  18
TORSDOF 7
