REMARK  Name = ZINC25372985
REMARK  11 active torsions:
REMARK  status: ('A' for Active; 'I' for Inactive)
REMARK    1  A    between atoms: C_1  and  C_2
REMARK    2  A    between atoms: C_5  and  O_26
REMARK    3  A    between atoms: C_6  and  C_8
REMARK    4  A    between atoms: C_8  and  C_10
REMARK    5  A    between atoms: C_8  and  N_11
REMARK    6  A    between atoms: N_11  and  C_12
REMARK    7  A    between atoms: C_12  and  C_14
REMARK    8  A    between atoms: C_12  and  C_15
REMARK    9  A    between atoms: N_20  and  C_21
REMARK   10  A    between atoms: C_21  and  C_22
REMARK   11  A    between atoms: O_26  and  C_27
REMARK                            x       y       z     vdW  Elec       q    Type
REMARK                         _______ _______ _______ _____ _____    ______ ____
ROOT
ATOM      1  C   UNL     1      -0.952   2.134   0.149  0.00  0.00    +0.014 C 
ATOM      2  C   UNL     1      -1.333   2.672  -1.232  0.00  0.00    -0.004 C 
ENDROOT
BRANCH   1   3
ATOM      3  C   UNL     1      -2.190   1.644   0.856  0.00  0.00    +0.206 C 
ATOM      4  O   UNL     1      -2.273   0.484   1.199  0.00  0.00    -0.277 OA
ATOM      5  N   UNL     1      -3.204   2.495   1.107  0.00  0.00    -0.242 N 
ATOM      6  C   UNL     1      -4.311   2.057   1.739  0.00  0.00    +0.306 C 
ATOM      7  O   UNL     1      -4.394   0.894   2.083  0.00  0.00    -0.252 OA
ATOM      8  N   UNL     1      -5.325   2.908   1.990  0.00  0.00    -0.291 N 
ATOM      9  H   UNL     1      -3.129   3.547   0.795  0.00  0.00    +0.159 HD
ATOM     10  H   UNL     1      -5.250   3.960   1.678  0.00  0.00    +0.151 HD
BRANCH   8  11
ATOM     11  C   UNL     1      -6.528   2.431   2.677  0.00  0.00    +0.219 C 
BRANCH  11  12
ATOM     12  C   UNL     1      -7.517   3.588   2.836  0.00  0.00    +0.405 C 
ATOM     13  F   UNL     1      -7.865   4.080   1.573  0.00  0.00    -0.169 F 
ATOM     14  F   UNL     1      -8.666   3.133   3.492  0.00  0.00    -0.169 F 
ATOM     15  F   UNL     1      -6.924   4.609   3.587  0.00  0.00    -0.169 F 
ENDBRANCH  11  12
ENDBRANCH   8  11
ENDBRANCH   1   3
BRANCH   1  16
ATOM     16  N   UNL     1      -0.003   1.024  -0.004  0.00  0.00    +0.391 N 
ATOM     17  H   UNL     1      -0.264   0.459  -0.911  0.00  0.00    -0.084 HD
ATOM     18  H   UNL     1      -0.086   0.366   0.874  0.00  0.00    -0.084 HD
BRANCH  16  19
ATOM     19  C   UNL     1       1.375   1.520  -0.115  0.00  0.00    -0.039 C 
ATOM     20  C   UNL     1       2.214   0.521  -0.913  0.00  0.00    -0.009 C 
BRANCH  19  26
ATOM     21  C   UNL     1       1.478   0.268   4.728  0.00  0.00    +0.044 C 
ATOM     22  C   UNL     1       2.013   1.085   3.580  0.00  0.00    -0.050 A 
ATOM     23  C   UNL     1       3.043   1.983   3.794  0.00  0.00    +0.007 A 
ATOM     24  C   UNL     1       3.535   2.733   2.744  0.00  0.00    +0.046 A 
ATOM     25  C   UNL     1       2.996   2.585   1.474  0.00  0.00    +0.122 A 
ATOM     26  C   UNL     1       1.963   1.683   1.262  0.00  0.00    -0.020 A 
ATOM     27  C   UNL     1       1.470   0.939   2.317  0.00  0.00    +0.009 A 
BRANCH  25  28
ATOM     28  O   UNL     1       3.478   3.322   0.439  0.00  0.00    -0.495 OA
ATOM     29  C   UNL     1       4.543   4.230   0.731  0.00  0.00    +0.277 C 
ENDBRANCH  25  28
ENDBRANCH  19  26
ENDBRANCH  16  19
ENDBRANCH   1  16
TORSDOF 7
