REMARK  Name = ZINC39951329
REMARK  9 active torsions:
REMARK  status: ('A' for Active; 'I' for Inactive)
REMARK    1  A    between atoms: C_1  and  C_2
REMARK    2  A    between atoms: C_2  and  C_3
REMARK    3  A    between atoms: C_3  and  C_4
REMARK    4  A    between atoms: C_9  and  C_26
REMARK    5  A    between atoms: C_10  and  O_12
REMARK    6  A    between atoms: C_16  and  C_18
REMARK    7  A    between atoms: C_23  and  O_24
REMARK    8  A    between atoms: C_26  and  C_27
REMARK    9  A    between atoms: C_27  and  C_28
REMARK                            x       y       z     vdW  Elec       q    Type
REMARK                         _______ _______ _______ _____ _____    ______ ____
ROOT
ATOM      1  C   UNL     1       0.632  -2.024  -1.200  0.00  0.00    -0.016 C 
ATOM      2  C   UNL     1      -0.834  -2.337  -1.205  0.00  0.00    +0.023 C 
ATOM      3  C   UNL     1      -1.177  -3.655  -0.593  0.00  0.00    +0.083 C 
ATOM      4  N   UNL     1      -0.218  -4.709  -0.818  0.00  0.00    -0.311 NA
ATOM      5  C   UNL     1       0.437  -4.773  -2.096  0.00  0.00    +0.090 C 
ATOM      6  C   UNL     1       1.719  -3.981  -2.252  0.00  0.00    -0.005 C 
ATOM      7  C   UNL     1       1.394  -2.511  -2.406  0.00  0.00    +0.125 C 
ATOM      8  C   UNL     1       2.603  -4.130  -1.009  0.00  0.00    -0.065 C 
ATOM      9  N   UNL     1       1.779  -3.787   0.157  0.00  0.00    +0.394 N 
ATOM     10  C   UNL     1       1.297  -2.412   0.110  0.00  0.00    -0.067 C 
ATOM     11  C   UNL     1       0.721  -4.777   0.316  0.00  0.00    +0.037 C 
ATOM     12  H   UNL     1       2.372  -3.866   0.970  0.00  0.00    -0.079 HD
ENDROOT
BRANCH  11  13
ATOM     13  C   UNL     1       1.331  -6.154   0.377  0.00  0.00    -0.005 A 
ATOM     14  C   UNL     1       2.641  -6.312   0.786  0.00  0.00    +0.022 A 
ATOM     15  C   UNL     1       3.201  -7.575   0.842  0.00  0.00    +0.018 A 
ATOM     16  C   UNL     1       2.451  -8.683   0.489  0.00  0.00    +0.019 A 
ATOM     17  C   UNL     1       1.141  -8.529   0.080  0.00  0.00    +0.047 A 
ATOM     18  C   UNL     1       0.576  -7.263   0.028  0.00  0.00    +0.120 A 
ATOM     19 BR   UNL     1       4.995  -7.788   1.401  0.00  0.00    -0.050 Br
BRANCH  18  20
ATOM     20  O   UNL     1      -0.715  -7.111  -0.370  0.00  0.00    -0.507 OA
ATOM     21  H   UNL     1      -0.821  -6.985  -1.323  0.00  0.00    +0.292 HD
ENDBRANCH  18  20
ENDBRANCH  11  13
BRANCH   7  22
ATOM     22  O   UNL     1       2.617  -1.782  -2.526  0.00  0.00    -0.391 OA
ATOM     23  H   UNL     1       2.497  -0.828  -2.632  0.00  0.00    +0.210 HD
ENDBRANCH   7  22
BRANCH   1  24
ATOM     24  C   UNL     1       0.718  -0.497  -1.257  0.00  0.00    +0.007 C 
BRANCH  24  26
ATOM     25  C   UNL     1       0.106   1.528  -2.585  0.00  0.00    +0.004 C 
ATOM     26  C   UNL     1       0.118  -0.002  -2.574  0.00  0.00    -0.003 C 
ENDBRANCH  24  26
ENDBRANCH   1  24
BRANCH   6  27
ATOM     27  C   UNL     1       2.479  -4.476  -3.485  0.00  0.00    +0.008 C 
BRANCH  27  28
ATOM     28  C   UNL     1       2.813  -5.959  -3.316  0.00  0.00    -0.003 C 
ATOM     29  C   UNL     1       3.573  -6.454  -4.549  0.00  0.00    +0.004 C 
ENDBRANCH  27  28
ENDBRANCH   6  27
TORSDOF 7
