REMARK  Name = ZINC22785267
REMARK  8 active torsions:
REMARK  status: ('A' for Active; 'I' for Inactive)
REMARK    1  A    between atoms: C_3  and  C_6
REMARK    2  A    between atoms: C_6  and  C_8
REMARK    3  A    between atoms: C_6  and  N_15
REMARK    4  A    between atoms: C_16  and  C_18
REMARK    5  A    between atoms: C_18  and  N_19
REMARK    6  A    between atoms: N_22  and  C_25
REMARK    7  A    between atoms: C_25  and  C_26
REMARK    8  A    between atoms: N_28  and  C_29
REMARK                            x       y       z     vdW  Elec       q    Type
REMARK                         _______ _______ _______ _____ _____    ______ ____
ROOT
ATOM      1  N   UNL     1       4.421  -1.125  -0.723  0.00  0.00    +0.387 N 
ATOM      2  C   UNL     1       3.833  -1.545   0.557  0.00  0.00    -0.063 C 
ATOM      3  C   UNL     1       2.309  -1.430   0.477  0.00  0.00    +0.066 C 
ATOM      4  N   UNL     1       1.941  -0.043   0.162  0.00  0.00    -0.298 NA
ATOM      5  C   UNL     1       2.529   0.378  -1.117  0.00  0.00    +0.066 C 
ATOM      6  C   UNL     1       4.053   0.263  -1.038  0.00  0.00    -0.063 C 
ATOM      7  H   UNL     1       4.013  -1.772  -1.513  0.00  0.00    -0.081 HD
ENDROOT
BRANCH   1   8
ATOM      8  C   UNL     1       5.880  -1.293  -0.712  0.00  0.00    +0.019 C 
BRANCH   8  10
ATOM      9  N   UNL     1       7.499  -3.152  -0.507  0.00  0.00    -0.306 N 
ATOM     10  C   UNL     1       6.217  -2.760  -0.644  0.00  0.00    +0.197 C 
ATOM     11  O   UNL     1       5.334  -3.588  -0.714  0.00  0.00    -0.278 OA
ATOM     12  H   UNL     1       8.300  -2.401  -0.444  0.00  0.00    +0.150 HD
BRANCH   9  13
ATOM     13  C   UNL     1       7.826  -4.579  -0.441  0.00  0.00    +0.140 C 
BRANCH  13  14
ATOM     14  C   UNL     1       9.246  -4.790  -0.897  0.00  0.00    -0.022 A 
ATOM     15  C   UNL     1      10.231  -3.892  -0.528  0.00  0.00    +0.008 A 
ATOM     16  C   UNL     1      11.535  -4.088  -0.941  0.00  0.00    +0.038 A 
ATOM     17  C   UNL     1      11.854  -5.178  -1.734  0.00  0.00    +0.123 A 
ATOM     18  C   UNL     1      10.866  -6.073  -2.107  0.00  0.00    +0.038 A 
ATOM     19  C   UNL     1       9.563  -5.879  -1.688  0.00  0.00    +0.008 A 
ATOM     20  F   UNL     1      13.127  -5.367  -2.143  0.00  0.00    -0.205 F 
ENDBRANCH  13  14
BRANCH  13  23
ATOM     21  C   UNL     1       7.126  -6.465   2.794  0.00  0.00    +0.008 A 
ATOM     22  C   UNL     1       7.158  -6.231   1.432  0.00  0.00    +0.013 A 
ATOM     23  C   UNL     1       7.676  -5.063   0.979  0.00  0.00    +0.014 A 
ATOM     24  S   UNL     1       8.129  -4.245   2.499  0.00  0.00    -0.099 S 
ATOM     25  C   UNL     1       7.603  -5.517   3.636  0.00  0.00    +0.045 A 
ENDBRANCH  13  23
ENDBRANCH   9  13
ENDBRANCH   8  10
ENDBRANCH   1   8
BRANCH   4  26
ATOM     26  C   UNL     1       0.482   0.125   0.152  0.00  0.00    +0.180 C 
BRANCH  26  27
ATOM     27  C   UNL     1       0.145   1.592   0.071  0.00  0.00    +0.231 C 
ATOM     28  O   UNL     1       1.034   2.417   0.027  0.00  0.00    -0.274 OA
ATOM     29  N   UNL     1      -1.143   1.988   0.043  0.00  0.00    -0.284 N 
ATOM     30  H   UNL     1      -1.947   1.239  -0.007  0.00  0.00    +0.155 HD
BRANCH  29  31
ATOM     31  C   UNL     1      -1.457   3.352   0.076  0.00  0.00    +0.034 A 
ATOM     32  C   UNL     1      -0.672   4.229   0.813  0.00  0.00    +0.026 A 
ATOM     33  C   UNL     1      -0.981   5.574   0.840  0.00  0.00    +0.040 A 
ATOM     34  C   UNL     1      -2.079   6.048   0.141  0.00  0.00    +0.124 A 
ATOM     35  C   UNL     1      -2.866   5.175  -0.590  0.00  0.00    +0.040 A 
ATOM     36  C   UNL     1      -2.558   3.829  -0.624  0.00  0.00    +0.026 A 
ATOM     37  F   UNL     1      -2.382   7.364   0.173  0.00  0.00    -0.205 F 
ENDBRANCH  29  31
ENDBRANCH  26  27
ENDBRANCH   4  26
TORSDOF 8
