REMARK  Name = ZINC42952382
REMARK  8 active torsions:
REMARK  status: ('A' for Active; 'I' for Inactive)
REMARK    1  A    between atoms: C_1  and  C_2
REMARK    2  A    between atoms: C_2  and  C_4
REMARK    3  A    between atoms: C_2  and  N_23
REMARK    4  A    between atoms: C_4  and  C_6
REMARK    5  A    between atoms: C_4  and  N_13
REMARK    6  A    between atoms: C_18  and  C_20
REMARK    7  A    between atoms: C_20  and  C_21
REMARK    8  A    between atoms: C_21  and  O_22
REMARK                            x       y       z     vdW  Elec       q    Type
REMARK                         _______ _______ _______ _____ _____    ______ ____
ROOT
ATOM      1  C   UNL     1       0.754  -0.376   1.120  0.00  0.00    +0.072 C 
ENDROOT
BRANCH   1   2
ATOM      2  C   UNL     1       1.527  -1.661   1.261  0.00  0.00    -0.032 A 
ATOM      3  C   UNL     1       0.966  -2.736   1.925  0.00  0.00    +0.006 A 
ATOM      4  C   UNL     1       1.674  -3.916   2.054  0.00  0.00    +0.015 A 
ATOM      5  C   UNL     1       2.946  -4.021   1.519  0.00  0.00    +0.018 A 
ATOM      6  C   UNL     1       3.507  -2.945   0.855  0.00  0.00    +0.015 A 
ATOM      7  C   UNL     1       2.796  -1.768   0.722  0.00  0.00    +0.006 A 
ATOM      8 BR   UNL     1       3.916  -5.634   1.696  0.00  0.00    -0.050 Br
ENDBRANCH   1   2
BRANCH   1   9
ATOM      9  N   UNL     1       0.464   0.170   2.453  0.00  0.00    -0.294 NA
ATOM     10  C   UNL     1      -0.771  -0.406   3.000  0.00  0.00    +0.085 C 
ATOM     11  C   UNL     1      -1.119   0.288   4.318  0.00  0.00    +0.015 C 
ATOM     12  C   UNL     1       0.034   0.103   5.307  0.00  0.00    +0.003 C 
ATOM     13  C   UNL     1       1.318   0.668   4.694  0.00  0.00    +0.019 C 
ATOM     14  C   UNL     1       1.596  -0.038   3.364  0.00  0.00    +0.059 C 
BRANCH  14  15
ATOM     15  C   UNL     1       2.868   0.538   2.738  0.00  0.00    +0.046 C 
BRANCH  15  16
ATOM     16  C   UNL     1       4.073   0.177   3.607  0.00  0.00    +0.157 C 
BRANCH  16  17
ATOM     17  O   UNL     1       5.252   0.771   3.058  0.00  0.00    -0.395 OA
ATOM     18  H   UNL     1       6.057   0.584   3.560  0.00  0.00    +0.209 HD
ENDBRANCH  16  17
ENDBRANCH  15  16
ENDBRANCH  14  15
ENDBRANCH   1   9
BRANCH   1  20
ATOM     19  C   UNL     1      -1.303   0.670   0.162  0.00  0.00    -0.012 C 
ATOM     20  C   UNL     1      -0.559  -0.648   0.383  0.00  0.00    -0.056 C 
BRANCH  20  21
ATOM     21  N   UNL     1      -0.272  -1.273  -0.915  0.00  0.00    +0.381 N 
ATOM     22  H   UNL     1       0.301  -0.653  -1.467  0.00  0.00    -0.090 HD
ATOM     23  H   UNL     1       0.219  -2.143  -0.768  0.00  0.00    -0.090 HD
ATOM     24  H   UNL     1      -1.137  -1.453  -1.401  0.00  0.00    -0.090 HD
ENDBRANCH  20  21
ENDBRANCH   1  20
TORSDOF 7
