REMARK  Name = ZINC14557765
REMARK  11 active torsions:
REMARK  status: ('A' for Active; 'I' for Inactive)
REMARK    1  A    between atoms: C_1  and  C_2
REMARK    2  A    between atoms: N_13  and  C_30
REMARK    3  A    between atoms: C_14  and  S_16
REMARK    4  A    between atoms: S_16  and  C_17
REMARK    5  A    between atoms: C_17  and  C_19
REMARK    6  A    between atoms: C_17  and  C_20
REMARK    7  A    between atoms: N_25  and  C_26
REMARK    8  A    between atoms: C_26  and  C_27
REMARK    9  A    between atoms: C_27  and  C_28
REMARK   10  A    between atoms: C_27  and  C_29
REMARK   11  A    between atoms: C_30  and  C_31
REMARK                            x       y       z     vdW  Elec       q    Type
REMARK                         _______ _______ _______ _____ _____    ______ ____
ROOT
ATOM      1  C   UNL     1      -0.019   1.526   0.010  0.00  0.00    +0.008 C 
ATOM      2  C   UNL     1       0.002  -0.004   0.002  0.00  0.00    -0.009 C 
ATOM      3  C   UNL     1       0.726  -0.501  -1.253  0.00  0.00    +0.008 C 
ATOM      4  C   UNL     1       0.536  -2.011  -1.397  0.00  0.00    +0.037 C 
ATOM      5  C   UNL     1       0.950  -2.688  -0.092  0.00  0.00    -0.023 A 
ATOM      6  C   UNL     1       1.032  -1.976   1.055  0.00  0.00    -0.004 A 
ATOM      7  S   UNL     1       1.538  -3.144   2.292  0.00  0.00    -0.073 S 
ATOM      8  C   UNL     1       1.639  -4.581   1.272  0.00  0.00    +0.117 A 
ATOM      9  C   UNL     1       1.273  -4.103  -0.006  0.00  0.00    +0.076 A 
ATOM     10  C   UNL     1       1.257  -5.051  -1.081  0.00  0.00    +0.263 A 
ATOM     11  O   UNL     1       0.955  -4.735  -2.219  0.00  0.00    -0.267 OA
ATOM     12  N   UNL     1       1.598  -6.320  -0.754  0.00  0.00    -0.283 N 
ATOM     13  C   UNL     1       1.938  -6.694   0.511  0.00  0.00    +0.174 A 
ATOM     14  N   UNL     1       1.963  -5.842   1.527  0.00  0.00    -0.216 NA
ATOM     15  C   UNL     1       0.751  -0.516   1.240  0.00  0.00    +0.046 C 
ENDROOT
BRANCH  13  16
ATOM     16  S   UNL     1       2.361  -8.378   0.809  0.00  0.00    -0.075 S 
BRANCH  16  17
ATOM     17  C   UNL     1       2.736  -8.429   2.583  0.00  0.00    +0.137 C 
ATOM     18  C   UNL     1       1.468  -8.117   3.381  0.00  0.00    +0.029 C 
BRANCH  17  19
ATOM     19  C   UNL     1       3.236  -9.802   2.951  0.00  0.00    +0.233 C 
ATOM     20  O   UNL     1       3.000 -10.747   2.229  0.00  0.00    -0.274 OA
ATOM     21  N   UNL     1       3.946  -9.980   4.083  0.00  0.00    -0.239 N 
ATOM     22  C   UNL     1       4.393 -11.207   4.412  0.00  0.00    +0.306 C 
ATOM     23  O   UNL     1       4.156 -12.155   3.689  0.00  0.00    -0.252 OA
ATOM     24  N   UNL     1       5.103 -11.385   5.544  0.00  0.00    -0.299 N 
ATOM     25  H   UNL     1       4.135  -9.223   4.660  0.00  0.00    +0.159 HD
ATOM     26  H   UNL     1       5.292 -10.629   6.122  0.00  0.00    +0.150 HD
BRANCH  24  27
ATOM     27  C   UNL     1       5.589 -12.720   5.903  0.00  0.00    +0.108 C 
BRANCH  27  28
ATOM     28  C   UNL     1       6.359 -12.645   7.223  0.00  0.00    -0.000 C 
ATOM     29  C   UNL     1       6.759 -14.055   7.660  0.00  0.00    +0.009 C 
ATOM     30  C   UNL     1       7.616 -11.794   7.032  0.00  0.00    +0.009 C 
ENDBRANCH  27  28
ENDBRANCH  24  27
ENDBRANCH  17  19
ENDBRANCH  16  17
ENDBRANCH  13  16
BRANCH  12  31
ATOM     31  C   UNL     1       1.601  -7.337  -1.808  0.00  0.00    +0.154 C 
BRANCH  31  32
ATOM     32  C   UNL     1       2.963  -7.391  -2.450  0.00  0.00    -0.013 C 
ATOM     33  C   UNL     1       3.614  -8.527  -2.509  0.00  0.00    +0.005 C 
ENDBRANCH  31  32
ENDBRANCH  12  31
TORSDOF 7
