REMARK  Name = ZINC15817287
REMARK  10 active torsions:
REMARK  status: ('A' for Active; 'I' for Inactive)
REMARK    1  A    between atoms: C_1  and  C_2
REMARK    2  A    between atoms: C_6  and  N_9
REMARK    3  A    between atoms: C_7  and  C_8
REMARK    4  A    between atoms: C_19  and  S_20
REMARK    5  A    between atoms: S_20  and  C_21
REMARK    6  A    between atoms: C_21  and  C_23
REMARK    7  A    between atoms: C_21  and  C_24
REMARK    8  A    between atoms: N_26  and  C_27
REMARK    9  A    between atoms: C_27  and  C_28
REMARK   10  A    between atoms: C_28  and  C_29
REMARK                            x       y       z     vdW  Elec       q    Type
REMARK                         _______ _______ _______ _____ _____    ______ ____
ROOT
ATOM      1  N   UNL     1      -4.377   1.570  -0.478  0.00  0.00    -0.255 N 
ATOM      2  C   UNL     1      -4.916   2.195  -1.551  0.00  0.00    +0.267 A 
ATOM      3  O   UNL     1      -6.077   2.014  -1.869  0.00  0.00    -0.267 OA
ATOM      4  C   UNL     1      -4.047   3.095  -2.321  0.00  0.00    +0.065 A 
ATOM      5  C   UNL     1      -4.507   3.779  -3.446  0.00  0.00    +0.015 A 
ATOM      6  C   UNL     1      -3.656   4.604  -4.127  0.00  0.00    +0.001 A 
ATOM      7  C   UNL     1      -2.341   4.767  -3.711  0.00  0.00    +0.002 A 
ATOM      8  C   UNL     1      -1.863   4.109  -2.613  0.00  0.00    +0.028 A 
ATOM      9  C   UNL     1      -2.709   3.258  -1.895  0.00  0.00    +0.079 A 
ATOM     10  N   UNL     1      -2.278   2.586  -0.802  0.00  0.00    -0.223 NA
ATOM     11  C   UNL     1      -3.072   1.788  -0.131  0.00  0.00    +0.177 A 
ENDROOT
BRANCH   1  17
ATOM     12  C   UNL     1      -6.046  -2.976   0.375  0.00  0.00    +0.044 C 
ATOM     13  C   UNL     1      -5.990  -1.510   0.721  0.00  0.00    -0.046 A 
ATOM     14  C   UNL     1      -6.715  -1.025   1.794  0.00  0.00    +0.004 A 
ATOM     15  C   UNL     1      -6.666   0.319   2.115  0.00  0.00    +0.002 A 
ATOM     16  C   UNL     1      -5.892   1.181   1.363  0.00  0.00    +0.026 A 
ATOM     17  C   UNL     1      -5.163   0.698   0.285  0.00  0.00    +0.055 A 
ATOM     18  C   UNL     1      -5.218  -0.652  -0.037  0.00  0.00    -0.024 A 
ATOM     19  C   UNL     1      -4.433  -1.180  -1.210  0.00  0.00    +0.046 C 
ENDBRANCH   1  17
BRANCH  11  20
ATOM     20  S   UNL     1      -2.427   0.953   1.280  0.00  0.00    -0.075 S 
BRANCH  20  21
ATOM     21  C   UNL     1      -0.729   1.579   1.267  0.00  0.00    +0.137 C 
ATOM     22  C   UNL     1      -0.013   1.086   0.008  0.00  0.00    +0.029 C 
BRANCH  21  23
ATOM     23  C   UNL     1       0.000   1.080   2.488  0.00  0.00    +0.226 C 
ATOM     24  O   UNL     1      -0.360   0.059   3.034  0.00  0.00    -0.275 OA
ATOM     25  N   UNL     1       1.052   1.768   2.973  0.00  0.00    -0.314 N 
ATOM     26  H   UNL     1       1.340   2.585   2.536  0.00  0.00    +0.149 HD
BRANCH  25  27
ATOM     27  C   UNL     1       1.761   1.283   4.160  0.00  0.00    +0.109 C 
BRANCH  27  28
ATOM     28  C   UNL     1       2.905   2.241   4.498  0.00  0.00    +0.054 C 
BRANCH  28  29
ATOM     29  C   UNL     1       3.634   1.742   5.719  0.00  0.00    -0.046 A 
ATOM     30  C   UNL     1       3.235   2.151   6.977  0.00  0.00    +0.004 A 
ATOM     31  C   UNL     1       3.900   1.689   8.098  0.00  0.00    +0.000 A 
ATOM     32  C   UNL     1       4.971   0.826   7.958  0.00  0.00    +0.000 A 
ATOM     33  C   UNL     1       5.374   0.422   6.699  0.00  0.00    +0.000 A 
ATOM     34  C   UNL     1       4.705   0.879   5.580  0.00  0.00    +0.004 A 
ENDBRANCH  28  29
ENDBRANCH  27  28
ENDBRANCH  25  27
ENDBRANCH  21  23
ENDBRANCH  20  21
ENDBRANCH  11  20
TORSDOF 7
