REMARK  Name = ZINC64410885
REMARK  5 active torsions:
REMARK  status: ('A' for Active; 'I' for Inactive)
REMARK    1  A    between atoms: C_8  and  N_11
REMARK    2  A    between atoms: C_12  and  C_14
REMARK    3  A    between atoms: C_14  and  N_15
REMARK    4  A    between atoms: N_18  and  C_21
REMARK    5  A    between atoms: C_21  and  C_22
REMARK                            x       y       z     vdW  Elec       q    Type
REMARK                         _______ _______ _______ _____ _____    ______ ____
ROOT
ATOM      1  N   UNL     1       5.388  -5.978  -2.485  0.00  0.00    -0.292 NA
ATOM      2  C   UNL     1       6.576  -5.132  -2.304  0.00  0.00    +0.100 C 
ATOM      3  C   UNL     1       7.793  -6.019  -2.027  0.00  0.00    +0.100 C 
ATOM      4  N   UNL     1       7.980  -6.952  -3.146  0.00  0.00    -0.296 NA
ATOM      5  C   UNL     1       6.793  -7.798  -3.328  0.00  0.00    +0.100 C 
ATOM      6  C   UNL     1       5.576  -6.912  -3.605  0.00  0.00    +0.100 C 
ENDROOT
BRANCH   1   7
ATOM      7  C   UNL     1       4.183  -5.160  -2.678  0.00  0.00    +0.180 C 
BRANCH   7   9
ATOM      8  N   UNL     1       2.820  -3.575  -1.356  0.00  0.00    -0.287 N 
ATOM      9  C   UNL     1       3.886  -4.397  -1.413  0.00  0.00    +0.229 C 
ATOM     10  O   UNL     1       4.607  -4.523  -0.446  0.00  0.00    -0.274 OA
ATOM     11  H   UNL     1       2.243  -3.475  -2.130  0.00  0.00    +0.151 HD
BRANCH   8  19
ATOM     12  C   UNL     1      -0.231   1.169  -0.047  0.00  0.00    +0.002 A 
ATOM     13  C   UNL     1       0.934   1.911   0.018  0.00  0.00    +0.001 A 
ATOM     14  C   UNL     1       2.151   1.249   0.029  0.00  0.00    +0.016 A 
ATOM     15  C   UNL     1       2.184  -0.126  -0.026  0.00  0.00    +0.032 A 
ATOM     16  C   UNL     1       1.024  -0.904  -0.093  0.00  0.00    +0.043 A 
ATOM     17  C   UNL     1      -0.197  -0.205  -0.102  0.00  0.00    +0.024 A 
ATOM     18  N   UNL     1       1.166  -2.290  -0.145  0.00  0.00    -0.316 N 
ATOM     19  C   UNL     1       2.531  -2.834  -0.127  0.00  0.00    +0.224 C 
ATOM     20  S   UNL     1       3.526  -1.292  -0.033  0.00  0.00    -0.082 S 
ATOM     21  H   UNL     1       0.393  -2.873  -0.192  0.00  0.00    +0.149 HD
ENDBRANCH   8  19
ENDBRANCH   7   9
ENDBRANCH   1   7
BRANCH   4  22
ATOM     22  C   UNL     1       9.185  -7.770  -2.953  0.00  0.00    +0.131 C 
BRANCH  22  23
ATOM     23  C   UNL     1      10.424  -6.947  -3.313  0.00  0.00    +0.188 C 
ATOM     24  N   UNL     1      10.542  -5.795  -2.411  0.00  0.00    -0.362 N 
ATOM     25  C   UNL     1      10.484  -4.719  -3.142  0.00  0.00    +0.060 A 
ATOM     26  C   UNL     1      10.546  -3.287  -2.819  0.00  0.00    +0.027 A 
ATOM     27  C   UNL     1      10.457  -2.377  -3.810  0.00  0.00    +0.002 A 
ATOM     28  C   UNL     1      10.306  -2.739  -5.160  0.00  0.00    +0.002 A 
ATOM     29  C   UNL     1      10.237  -4.023  -5.565  0.00  0.00    +0.027 A 
ATOM     30  C   UNL     1      10.324  -5.102  -4.572  0.00  0.00    +0.060 A 
ATOM     31  N   UNL     1      10.289  -6.400  -4.669  0.00  0.00    -0.362 N 
ATOM     32  H   UNL     1      10.645  -5.828  -1.447  0.00  0.00    +0.162 HD
ATOM     33  H   UNL     1      10.192  -6.912  -5.487  0.00  0.00    +0.162 HD
ENDBRANCH  22  23
ENDBRANCH   4  22
TORSDOF 5
