REMARK  Name = ZINC12786864
REMARK  10 active torsions:
REMARK  status: ('A' for Active; 'I' for Inactive)
REMARK    1  A    between atoms: C_1  and  C_2
REMARK    2  A    between atoms: C_4  and  C_36
REMARK    3  A    between atoms: C_6  and  C_8
REMARK    4  A    between atoms: N_10  and  C_11
REMARK    5  A    between atoms: N_10  and  C_19
REMARK    6  A    between atoms: C_11  and  C_12
REMARK    7  A    between atoms: C_12  and  C_13
REMARK    8  A    between atoms: C_20  and  N_35
REMARK    9  A    between atoms: N_21  and  C_28
REMARK   10  A    between atoms: C_28  and  C_29
REMARK                            x       y       z     vdW  Elec       q    Type
REMARK                         _______ _______ _______ _____ _____    ______ ____
ROOT
ATOM      1  C   UNL     1      -4.100  -1.347  -2.037  0.00  0.00    +0.251 C 
ATOM      2  O   UNL     1      -3.911  -0.274  -2.575  0.00  0.00    -0.270 OA
ATOM      3  N   UNL     1      -3.100  -1.949  -1.364  0.00  0.00    -0.260 N 
ENDROOT
BRANCH   3   4
ATOM      4  C   UNL     1      -3.287  -3.240  -0.827  0.00  0.00    +0.140 A 
ATOM      5  C   UNL     1      -4.242  -3.463   0.145  0.00  0.00    +0.128 A 
ATOM      6  N   UNL     1      -4.405  -4.734   0.646  0.00  0.00    -0.276 N 
ATOM      7  C   UNL     1      -3.636  -5.745   0.201  0.00  0.00    +0.331 A 
ATOM      8  O   UNL     1      -3.792  -6.860   0.661  0.00  0.00    -0.246 OA
ATOM      9  N   UNL     1      -2.697  -5.545  -0.741  0.00  0.00    -0.273 N 
ATOM     10  H   UNL     1      -2.139  -6.313  -1.054  0.00  0.00    +0.173 HD
ATOM     11  C   UNL     1      -2.501  -4.320  -1.268  0.00  0.00    +0.277 A 
ATOM     12  O   UNL     1      -1.647  -4.150  -2.122  0.00  0.00    -0.266 OA
BRANCH   5  13
ATOM     13  N   UNL     1      -5.023  -2.430   0.603  0.00  0.00    -0.343 N 
ATOM     14  H   UNL     1      -4.936  -1.546   0.213  0.00  0.00    +0.144 HD
ATOM     15  H   UNL     1      -5.662  -2.584   1.317  0.00  0.00    +0.144 HD
ENDBRANCH   5  13
BRANCH   6  16
ATOM     16  C   UNL     1      -5.418  -4.987   1.673  0.00  0.00    +0.163 C 
BRANCH  16  17
ATOM     17  C   UNL     1      -4.817  -4.767   3.037  0.00  0.00    -0.028 A 
ATOM     18  C   UNL     1      -4.102  -5.779   3.650  0.00  0.00    +0.005 A 
ATOM     19  C   UNL     1      -3.546  -5.575   4.899  0.00  0.00    +0.000 A 
ATOM     20  C   UNL     1      -3.714  -4.362   5.540  0.00  0.00    +0.000 A 
ATOM     21  C   UNL     1      -4.433  -3.351   4.929  0.00  0.00    +0.000 A 
ATOM     22  C   UNL     1      -4.984  -3.553   3.678  0.00  0.00    +0.005 A 
ENDBRANCH  16  17
ENDBRANCH   6  16
ENDBRANCH   3   4
BRANCH   1  28
ATOM     23  C   UNL     1      -6.907  -5.473  -1.973  0.00  0.00    +0.044 C 
ATOM     24  C   UNL     1      -6.783  -3.975  -2.091  0.00  0.00    -0.049 A 
ATOM     25  C   UNL     1      -7.914  -3.201  -2.277  0.00  0.00    +0.006 A 
ATOM     26  C   UNL     1      -7.809  -1.826  -2.387  0.00  0.00    -0.049 A 
ATOM     27  C   UNL     1      -6.573  -1.218  -2.309  0.00  0.00    +0.016 A 
ATOM     28  C   UNL     1      -5.428  -1.993  -2.120  0.00  0.00    +0.038 A 
ATOM     29  C   UNL     1      -5.540  -3.380  -2.017  0.00  0.00    +0.016 A 
ATOM     30  C   UNL     1      -9.047  -0.991  -2.590  0.00  0.00    +0.044 C 
ENDBRANCH   1  28
BRANCH   3  31
ATOM     31  C   UNL     1      -1.817  -1.263  -1.190  0.00  0.00    +0.118 C 
BRANCH  31  32
ATOM     32  C   UNL     1      -1.890  -0.346   0.032  0.00  0.00    +0.050 C 
BRANCH  32  33
ATOM     33  C   UNL     1      -0.571   0.360   0.210  0.00  0.00    -0.072 C 
ATOM     34  C   UNL     1      -0.442   1.543  -0.298  0.00  0.00    -0.028 C 
ATOM     35  C   UNL     1       0.812   2.363  -0.212  0.00  0.00    +0.027 C 
ATOM     36  C   UNL     1       1.726   1.815   0.886  0.00  0.00    +0.004 C 
ATOM     37  C   UNL     1       1.867   0.300   0.687  0.00  0.00    +0.005 C 
ATOM     38  C   UNL     1       0.512  -0.353   0.967  0.00  0.00    +0.030 C 
ENDBRANCH  32  33
ENDBRANCH  31  32
ENDBRANCH   3  31
TORSDOF 8
