REMARK  Name = ZINC22936272
REMARK  12 active torsions:
REMARK  status: ('A' for Active; 'I' for Inactive)
REMARK    1  A    between atoms: C_1  and  C_2
REMARK    2  A    between atoms: C_2  and  N_3
REMARK    3  A    between atoms: C_7  and  C_9
REMARK    4  A    between atoms: C_9  and  N_10
REMARK    5  A    between atoms: N_10  and  C_11
REMARK    6  A    between atoms: C_11  and  C_12
REMARK    7  A    between atoms: C_14  and  O_28
REMARK    8  A    between atoms: C_15  and  O_19
REMARK    9  A    between atoms: O_19  and  C_20
REMARK   10  A    between atoms: C_20  and  C_21
REMARK   11  A    between atoms: O_28  and  C_29
REMARK   12  A    between atoms: C_29  and  C_30
REMARK                            x       y       z     vdW  Elec       q    Type
REMARK                         _______ _______ _______ _____ _____    ______ ____
ROOT
ATOM      1  C   UNL     1       5.163  -1.343   0.975  0.00  0.00    -0.059 A 
ATOM      2  C   UNL     1       5.723  -0.097   0.760  0.00  0.00    +0.051 A 
ATOM      3  C   UNL     1       6.398   0.546   1.786  0.00  0.00    +0.164 A 
ATOM      4  C   UNL     1       6.510  -0.066   3.031  0.00  0.00    +0.181 A 
ATOM      5  C   UNL     1       5.947  -1.315   3.240  0.00  0.00    +0.086 A 
ATOM      6  C   UNL     1       5.269  -1.948   2.212  0.00  0.00    +0.025 A 
ATOM      7 CL   UNL     1       6.085  -2.081   4.791  0.00  0.00    -0.080 Cl
ENDROOT
BRANCH   1   8
ATOM      8  C   UNL     1       4.430  -2.040  -0.143  0.00  0.00    -0.047 C 
BRANCH   8   9
ATOM      9  N   UNL     1       3.011  -1.661  -0.108  0.00  0.00    +0.381 N 
ATOM     10  H   UNL     1       2.926  -0.662  -0.222  0.00  0.00    -0.086 HD
ATOM     11  H   UNL     1       2.611  -1.933   0.778  0.00  0.00    -0.086 HD
BRANCH   9  12
ATOM     12  C   UNL     1       2.296  -2.340  -1.197  0.00  0.00    -0.098 C 
BRANCH  12  17
ATOM     13  N   UNL     1       0.690  -0.478  -1.207  0.00  0.00    +0.380 N 
ATOM     14  C   UNL     1      -0.098  -0.111  -2.403  0.00  0.00    -0.079 C 
ATOM     15  C   UNL     1       0.088  -1.300  -3.378  0.00  0.00    -0.020 C 
ATOM     16  C   UNL     1       0.095  -2.507  -2.403  0.00  0.00    -0.019 C 
ATOM     17  C   UNL     1       0.818  -1.946  -1.161  0.00  0.00    -0.086 C 
ATOM     18  H   UNL     1       1.606  -0.058  -1.264  0.00  0.00    -0.082 HD
BRANCH  13  20
ATOM     19  C   UNL     1      -0.019   1.526   0.010  0.00  0.00    -0.017 C 
ATOM     20  C   UNL     1       0.002  -0.004   0.002  0.00  0.00    -0.082 C 
ENDBRANCH  13  20
ENDBRANCH  12  17
ENDBRANCH   9  12
ENDBRANCH   8   9
ENDBRANCH   1   8
BRANCH   4  21
ATOM     21  O   UNL     1       7.172   0.561   4.040  0.00  0.00    -0.482 OA
BRANCH  21  22
ATOM     22  C   UNL     1       6.402   1.412   4.891  0.00  0.00    +0.267 C 
BRANCH  22  23
ATOM     23  C   UNL     1       7.298   2.015   5.943  0.00  0.00    +0.025 A 
ATOM     24  C   UNL     1       8.645   1.709   5.961  0.00  0.00    +0.010 A 
ATOM     25  C   UNL     1       9.467   2.261   6.926  0.00  0.00    +0.001 A 
ATOM     26  C   UNL     1       8.942   3.121   7.873  0.00  0.00    +0.003 A 
ATOM     27  C   UNL     1       7.595   3.428   7.856  0.00  0.00    +0.039 A 
ATOM     28  C   UNL     1       6.772   2.880   6.887  0.00  0.00    +0.130 A 
ATOM     29  F   UNL     1       5.456   3.183   6.867  0.00  0.00    -0.205 F 
ENDBRANCH  22  23
ENDBRANCH  21  22
ENDBRANCH   4  21
BRANCH   3  30
ATOM     30  O   UNL     1       6.949   1.771   1.576  0.00  0.00    -0.489 OA
BRANCH  30  31
ATOM     31  C   UNL     1       6.795   2.337   0.273  0.00  0.00    +0.226 C 
ATOM     32  C   UNL     1       7.476   3.707   0.228  0.00  0.00    +0.048 C 
ENDBRANCH  30  31
ENDBRANCH   3  30
TORSDOF 10
