REMARK  Name = ZINC54440520
REMARK  11 active torsions:
REMARK  status: ('A' for Active; 'I' for Inactive)
REMARK    1  A    between atoms: C_1  and  C_2
REMARK    2  A    between atoms: N_7  and  C_9
REMARK    3  A    between atoms: C_9  and  C_10
REMARK    4  A    between atoms: C_9  and  C_11
REMARK    5  A    between atoms: C_9  and  C_12
REMARK    6  A    between atoms: C_12  and  N_13
REMARK    7  A    between atoms: N_16  and  C_17
REMARK    8  A    between atoms: C_22  and  O_23
REMARK    9  A    between atoms: O_23  and  C_24
REMARK   10  A    between atoms: C_24  and  C_25
REMARK   11  A    between atoms: C_25  and  C_26
REMARK                            x       y       z     vdW  Elec       q    Type
REMARK                         _______ _______ _______ _____ _____    ______ ____
ROOT
ATOM      1  N   UNL     1       2.106  -4.369   1.087  0.00  0.00    -0.300 N 
ATOM      2  C   UNL     1       2.197  -5.663   0.721  0.00  0.00    +0.304 C 
ATOM      3  O   UNL     1       1.509  -6.500   1.273  0.00  0.00    -0.253 OA
ATOM      4  N   UNL     1       3.050  -6.029  -0.256  0.00  0.00    -0.266 N 
ATOM      5  H   UNL     1       2.655  -3.701   0.648  0.00  0.00    +0.150 HD
ATOM      6  H   UNL     1       3.554  -5.354  -0.737  0.00  0.00    +0.156 HD
ENDROOT
BRANCH   4   7
ATOM      7  C   UNL     1       3.208  -7.384  -0.577  0.00  0.00    +0.077 A 
ATOM      8  C   UNL     1       2.164  -8.274  -0.372  0.00  0.00    +0.027 A 
ATOM      9  C   UNL     1       2.323  -9.609  -0.689  0.00  0.00    +0.002 A 
ATOM     10  C   UNL     1       3.520 -10.062  -1.212  0.00  0.00    +0.004 A 
ATOM     11  C   UNL     1       4.565  -9.181  -1.419  0.00  0.00    +0.047 A 
ATOM     12  C   UNL     1       4.412  -7.839  -1.109  0.00  0.00    +0.142 A 
BRANCH  12  13
ATOM     13  O   UNL     1       5.437  -6.970  -1.318  0.00  0.00    -0.490 OA
BRANCH  13  14
ATOM     14  C   UNL     1       6.642  -7.508  -1.866  0.00  0.00    +0.238 C 
BRANCH  14  15
ATOM     15  C   UNL     1       7.673  -6.389  -2.028  0.00  0.00    +0.136 C 
BRANCH  15  16
ATOM     16  C   UNL     1       8.944  -6.956  -2.606  0.00  0.00    +0.214 C 
ATOM     17  O   UNL     1       9.018  -8.139  -2.863  0.00  0.00    -0.276 OA
ATOM     18  N   UNL     1       9.998  -6.149  -2.838  0.00  0.00    -0.329 N 
ATOM     19  H   UNL     1       9.938  -5.203  -2.633  0.00  0.00    +0.145 HD
ATOM     20  H   UNL     1      10.816  -6.514  -3.210  0.00  0.00    +0.145 HD
ENDBRANCH  15  16
ENDBRANCH  14  15
ENDBRANCH  13  14
ENDBRANCH  12  13
ENDBRANCH   4   7
BRANCH   1  21
ATOM     21  C   UNL     1       1.179  -3.971   2.150  0.00  0.00    +0.093 C 
BRANCH  21  22
ATOM     22  C   UNL     1       1.199  -2.449   2.301  0.00  0.00    -0.055 C 
ATOM     23  C   UNL     1       0.288  -2.039   3.460  0.00  0.00    -0.008 C 
ATOM     24  C   UNL     1       0.701  -1.802   1.007  0.00  0.00    -0.008 C 
BRANCH  22  30
ATOM     25  C   UNL     1       4.026   1.450   3.179  0.00  0.00    +0.005 C 
ATOM     26  C   UNL     1       4.019  -0.066   2.975  0.00  0.00    -0.031 C 
ATOM     27  C   UNL     1       4.608  -0.751   4.212  0.00  0.00    -0.001 C 
ATOM     28  C   UNL     1       4.525  -2.269   4.031  0.00  0.00    -0.018 C 
ATOM     29  C   UNL     1       3.068  -2.669   3.785  0.00  0.00    -0.078 C 
ATOM     30  N   UNL     1       2.571  -2.002   2.576  0.00  0.00    +0.384 N 
ATOM     31  C   UNL     1       2.581  -0.547   2.768  0.00  0.00    -0.075 C 
ATOM     32  H   UNL     1       3.163  -2.240   1.794  0.00  0.00    -0.081 HD
ENDBRANCH  22  30
ENDBRANCH  21  22
ENDBRANCH   1  21
TORSDOF 8
