REMARK  Name = ZINC43287545
REMARK  14 active torsions:
REMARK  status: ('A' for Active; 'I' for Inactive)
REMARK    1  A    between atoms: C_1  and  C_2
REMARK    2  A    between atoms: C_2  and  C_3
REMARK    3  A    between atoms: C_3  and  C_5
REMARK    4  A    between atoms: C_3  and  N_6
REMARK    5  A    between atoms: N_6  and  C_7
REMARK    6  A    between atoms: N_6  and  C_11
REMARK    7  A    between atoms: C_7  and  C_8
REMARK    8  A    between atoms: C_8  and  O_9
REMARK    9  A    between atoms: O_9  and  C_10
REMARK   10  A    between atoms: C_11  and  C_13
REMARK   11  A    between atoms: C_11  and  C_19
REMARK   12  A    between atoms: C_19  and  C_21
REMARK   13  A    between atoms: C_19  and  N_23
REMARK   14  A    between atoms: C_21  and  C_22
REMARK                            x       y       z     vdW  Elec       q    Type
REMARK                         _______ _______ _______ _____ _____    ______ ____
ROOT
ATOM      1  C   UNL     1       0.778  -0.058   3.821  0.00  0.00    -0.013 C 
ENDROOT
BRANCH   1   2
ATOM      2  C   UNL     1       2.221   0.334   3.632  0.00  0.00    -0.021 A 
ATOM      3  C   UNL     1       3.342  -0.314   4.032  0.00  0.00    +0.025 A 
ATOM      4  C   UNL     1       4.576   0.239   3.744  0.00  0.00    +0.025 A 
ATOM      5  C   UNL     1       4.627   1.415   3.070  0.00  0.00    +0.060 A 
ATOM      6  S   UNL     1       2.897   1.770   2.814  0.00  0.00    -0.102 S 
ATOM      7 BR   UNL     1       6.167  -0.629   4.284  0.00  0.00    -0.050 Br
ENDBRANCH   1   2
BRANCH   1   8
ATOM      8  N   UNL     1       0.114  -0.129   2.513  0.00  0.00    +0.389 N 
ATOM      9  H   UNL     1      -0.880  -0.241   2.647  0.00  0.00    -0.080 HD
BRANCH   8  10
ATOM     10  C   UNL     1       0.639  -1.274   1.758  0.00  0.00    -0.071 C 
ATOM     11  C   UNL     1       2.135  -1.076   1.507  0.00  0.00    -0.013 C 
BRANCH  10  13
ATOM     12  C   UNL     1      -1.078  -2.791   2.754  0.00  0.00    +0.002 C 
ATOM     13  C   UNL     1       0.422  -2.557   2.561  0.00  0.00    -0.019 C 
ENDBRANCH  10  13
ENDBRANCH   8  10
BRANCH   8  14
ATOM     14  C   UNL     1       0.370   1.110   1.767  0.00  0.00    -0.049 C 
BRANCH  14  15
ATOM     15  C   UNL     1      -0.466   1.116   0.485  0.00  0.00    +0.141 C 
BRANCH  15  16
ATOM     16  O   UNL     1      -1.854   1.149   0.823  0.00  0.00    -0.385 OA
ATOM     17  C   UNL     1      -2.727   1.157  -0.309  0.00  0.00    +0.193 C 
ENDBRANCH  15  16
ENDBRANCH  14  15
ENDBRANCH   8  14
ENDBRANCH   1   8
BRANCH   1  18
ATOM     18  C   UNL     1       0.077   0.984   4.695  0.00  0.00    +0.042 C 
BRANCH  18  19
ATOM     19  N   UNL     1       0.816   1.145   5.954  0.00  0.00    -0.328 NA
ATOM     20  H   UNL     1       0.409   1.874   6.521  0.00  0.00    +0.118 HD
ATOM     21  H   UNL     1       0.859   0.274   6.462  0.00  0.00    +0.118 HD
ENDBRANCH  18  19
BRANCH  18  22
ATOM     22  C   UNL     1      -1.350   0.520   4.996  0.00  0.00    +0.014 C 
ATOM     23  C   UNL     1      -2.082   1.604   5.789  0.00  0.00    +0.005 C 
ENDBRANCH  18  22
ENDBRANCH   1  18
TORSDOF 10
