REMARK  Name = ZINC12507609
REMARK  7 active torsions:
REMARK  status: ('A' for Active; 'I' for Inactive)
REMARK    1  A    between atoms: C_1  and  O_2
REMARK    2  A    between atoms: O_2  and  C_3
REMARK    3  A    between atoms: C_5  and  C_13
REMARK    4  A    between atoms: C_6  and  O_11
REMARK    5  A    between atoms: C_8  and  O_9
REMARK    6  A    between atoms: O_9  and  C_10
REMARK    7  A    between atoms: O_11  and  C_12
REMARK                            x       y       z     vdW  Elec       q    Type
REMARK                         _______ _______ _______ _____ _____    ______ ____
ROOT
ATOM      1  C   UNL     1      -4.871   0.262   0.039  0.00  0.00    +0.212 C 
ATOM      2  N   UNL     1      -4.597   1.637  -0.417  0.00  0.00    -0.294 N 
ATOM      3  C   UNL     1      -4.070   2.532   0.503  0.00  0.00    +0.159 C 
ATOM      4  N   UNL     1      -4.749   2.649   1.717  0.00  0.00    -0.259 N 
ATOM      5  C   UNL     1      -5.326   1.470   2.185  0.00  0.00    +0.205 A 
ATOM      6  N   UNL     1      -5.398   0.340   1.405  0.00  0.00    -0.288 N 
ATOM      7  C   UNL     1      -6.027  -0.637   2.147  0.00  0.00    +0.076 A 
ATOM      8  C   UNL     1      -6.386  -1.957   1.902  0.00  0.00    +0.077 A 
ATOM      9  C   UNL     1      -7.019  -2.689   2.888  0.00  0.00    +0.164 A 
ATOM     10  C   UNL     1      -7.303  -2.113   4.123  0.00  0.00    +0.164 A 
ATOM     11  C   UNL     1      -6.958  -0.803   4.379  0.00  0.00    +0.079 A 
ATOM     12  C   UNL     1      -6.316  -0.051   3.391  0.00  0.00    +0.095 A 
ATOM     13  N   UNL     1      -5.862   1.237   3.347  0.00  0.00    -0.214 NA
ATOM     14  O   UNL     1      -7.926  -2.856   5.085  0.00  0.00    -0.488 OA
ATOM     15  C   UNL     1      -9.285  -3.209   4.820  0.00  0.00    +0.232 C 
ATOM     16  C   UNL     1      -9.360  -4.463   3.963  0.00  0.00    +0.082 C 
ATOM     17  C   UNL     1      -8.772  -4.252   2.577  0.00  0.00    +0.232 C 
ATOM     18  O   UNL     1      -7.370  -3.988   2.654  0.00  0.00    -0.488 OA
ATOM     19  N   UNL     1      -2.998   3.227   0.248  0.00  0.00    -0.375 N 
ATOM     20  H   UNL     1      -4.778   1.908  -1.331  0.00  0.00    +0.151 HD
ATOM     21  H   UNL     1      -2.545   3.126  -0.604  0.00  0.00    +0.158 HD
ATOM     22  H   UNL     1      -4.814   3.488   2.199  0.00  0.00    +0.158 HD
ATOM     23  H   UNL     1      -2.651   3.845   0.910  0.00  0.00    +0.158 HD
ENDROOT
BRANCH   1  26
ATOM     24  C   UNL     1      -1.756  -1.531   1.204  0.00  0.00    +0.162 A 
ATOM     25  C   UNL     1      -2.927  -0.790   1.211  0.00  0.00    +0.060 A 
ATOM     26  C   UNL     1      -3.597  -0.543   0.028  0.00  0.00    +0.039 A 
ATOM     27  C   UNL     1      -3.100  -1.036  -1.169  0.00  0.00    +0.131 A 
ATOM     28  C   UNL     1      -1.928  -1.778  -1.181  0.00  0.00    +0.095 A 
ATOM     29  C   UNL     1      -1.252  -2.021   0.003  0.00  0.00    +0.165 A 
BRANCH  24  31
ATOM     30  C   UNL     1      -1.671  -1.239   3.563  0.00  0.00    +0.277 C 
ATOM     31  O   UNL     1      -1.096  -1.773   2.369  0.00  0.00    -0.491 OA
ENDBRANCH  24  31
BRANCH  29  32
ATOM     32  O   UNL     1      -0.099  -2.743  -0.007  0.00  0.00    -0.491 OA
ATOM     33  C   UNL     1       0.359  -3.215  -1.275  0.00  0.00    +0.277 C 
ENDBRANCH  29  32
BRANCH  27  34
ATOM     34  O   UNL     1      -3.761  -0.793  -2.332  0.00  0.00    -0.495 OA
ATOM     35  C   UNL     1      -3.192  -1.331  -3.527  0.00  0.00    +0.277 C 
ENDBRANCH  27  34
ENDBRANCH   1  26
TORSDOF 4
