REMARK  Name = ZINC20810558
REMARK  9 active torsions:
REMARK  status: ('A' for Active; 'I' for Inactive)
REMARK    1  A    between atoms: C_1  and  C_2
REMARK    2  A    between atoms: C_6  and  C_28
REMARK    3  A    between atoms: C_7  and  N_8
REMARK    4  A    between atoms: C_9  and  C_11
REMARK    5  A    between atoms: C_11  and  N_12
REMARK    6  A    between atoms: N_15  and  C_18
REMARK    7  A    between atoms: C_18  and  C_20
REMARK    8  A    between atoms: C_18  and  C_21
REMARK    9  A    between atoms: N_26  and  C_27
REMARK                            x       y       z     vdW  Elec       q    Type
REMARK                         _______ _______ _______ _____ _____    ______ ____
ROOT
ATOM      1  N   UNL     1      -2.012  -4.486  -0.606  0.00  0.00    +0.387 N 
ATOM      2  C   UNL     1      -2.156  -3.856   0.714  0.00  0.00    -0.063 C 
ATOM      3  C   UNL     1      -3.599  -4.015   1.198  0.00  0.00    +0.066 C 
ATOM      4  N   UNL     1      -3.938  -5.444   1.259  0.00  0.00    -0.295 NA
ATOM      5  C   UNL     1      -3.794  -6.073  -0.061  0.00  0.00    +0.066 C 
ATOM      6  C   UNL     1      -2.351  -5.914  -0.545  0.00  0.00    -0.063 C 
ATOM      7  H   UNL     1      -2.719  -3.998  -1.294  0.00  0.00    -0.081 HD
ENDROOT
BRANCH   4   8
ATOM      8  C   UNL     1      -5.293  -5.641   1.792  0.00  0.00    +0.140 C 
ATOM      9  C   UNL     1      -5.460  -4.826   3.076  0.00  0.00    +0.034 C 
BRANCH   8  10
ATOM     10  C   UNL     1      -6.305  -5.185   0.773  0.00  0.00    +0.237 C 
ATOM     11  O   UNL     1      -6.018  -4.311  -0.017  0.00  0.00    -0.274 OA
ATOM     12  N   UNL     1      -7.528  -5.750   0.739  0.00  0.00    -0.239 N 
ATOM     13  C   UNL     1      -8.433  -5.342  -0.173  0.00  0.00    +0.306 C 
ATOM     14  O   UNL     1      -8.146  -4.466  -0.965  0.00  0.00    -0.252 OA
ATOM     15  N   UNL     1      -9.657  -5.906  -0.206  0.00  0.00    -0.302 N 
ATOM     16  C   UNL     1     -10.641  -5.463  -1.197  0.00  0.00    +0.129 C 
ATOM     17  H   UNL     1      -7.788  -6.543   1.455  0.00  0.00    +0.159 HD
ATOM     18  H   UNL     1      -9.917  -6.699   0.510  0.00  0.00    +0.150 HD
ENDBRANCH   8  10
ENDBRANCH   4   8
BRANCH   1  19
ATOM     19  C   UNL     1      -0.658  -4.288  -1.139  0.00  0.00    +0.019 C 
BRANCH  19  21
ATOM     20  N   UNL     1       0.744  -2.404  -1.914  0.00  0.00    -0.287 N 
ATOM     21  C   UNL     1      -0.436  -2.824  -1.417  0.00  0.00    +0.201 C 
ATOM     22  O   UNL     1      -1.319  -2.023  -1.194  0.00  0.00    -0.278 OA
ATOM     23  H   UNL     1       1.514  -3.137  -2.198  0.00  0.00    +0.155 HD
BRANCH  20  30
ATOM     24  C   UNL     1      -1.064  -0.884  -3.502  0.00  0.00    +0.045 C 
ATOM     25  C   UNL     1       0.134  -0.256  -2.836  0.00  0.00    -0.029 A 
ATOM     26  C   UNL     1       0.376   1.096  -2.982  0.00  0.00    +0.005 A 
ATOM     27  C   UNL     1       1.478   1.671  -2.376  0.00  0.00    +0.001 A 
ATOM     28  C   UNL     1       2.337   0.897  -1.617  0.00  0.00    +0.005 A 
ATOM     29  C   UNL     1       2.096  -0.454  -1.462  0.00  0.00    -0.029 A 
ATOM     30  C   UNL     1       0.991  -1.035  -2.070  0.00  0.00    +0.039 A 
ATOM     31  C   UNL     1       3.032  -1.296  -0.635  0.00  0.00    +0.045 C 
ENDBRANCH  20  30
ENDBRANCH  19  21
ENDBRANCH   1  19
TORSDOF 5
