REMARK  Name = ZINC34734772
REMARK  9 active torsions:
REMARK  status: ('A' for Active; 'I' for Inactive)
REMARK    1  A    between atoms: C_1  and  C_2
REMARK    2  A    between atoms: C_2  and  C_3
REMARK    3  A    between atoms: C_3  and  C_4
REMARK    4  A    between atoms: C_4  and  N_5
REMARK    5  A    between atoms: C_20  and  C_22
REMARK    6  A    between atoms: C_20  and  C_23
REMARK    7  A    between atoms: N_26  and  C_27
REMARK    8  A    between atoms: C_27  and  C_28
REMARK    9  A    between atoms: N_30  and  C_31
REMARK                            x       y       z     vdW  Elec       q    Type
REMARK                         _______ _______ _______ _____ _____    ______ ____
ROOT
ATOM      1  N   UNL     1       1.854  -1.577  -3.542  0.00  0.00    +0.382 N 
ATOM      2  C   UNL     1       2.388  -1.836  -4.886  0.00  0.00    -0.060 C 
ATOM      3  C   UNL     1       2.508  -3.348  -5.104  0.00  0.00    +0.089 C 
ATOM      4  N   UNL     1       3.314  -3.913  -4.011  0.00  0.00    -0.304 N 
ATOM      5  C   UNL     1       2.946  -3.570  -2.628  0.00  0.00    +0.089 C 
ATOM      6  C   UNL     1       2.805  -2.047  -2.527  0.00  0.00    -0.060 C 
ATOM      7  C   UNL     1       4.379  -4.739  -4.274  0.00  0.00    +0.202 A 
ATOM      8  N   UNL     1       5.576  -4.219  -4.450  0.00  0.00    -0.208 NA
ATOM      9  C   UNL     1       6.623  -4.994  -4.706  0.00  0.00    +0.118 A 
ATOM     10  C   UNL     1       6.514  -6.392  -4.800  0.00  0.00    +0.076 A 
ATOM     11  C   UNL     1       7.754  -7.109  -5.088  0.00  0.00    -0.018 A 
ATOM     12  C   UNL     1       8.874  -6.367  -5.234  0.00  0.00    +0.021 A 
ATOM     13  S   UNL     1       8.349  -4.693  -4.999  0.00  0.00    -0.071 S 
ATOM     14  C   UNL     1      10.247  -6.885  -5.528  0.00  0.00    +0.203 C 
ATOM     15  O   UNL     1      10.238  -8.306  -5.317  0.00  0.00    -0.368 OA
ATOM     16  C   UNL     1       9.140  -8.970  -5.949  0.00  0.00    +0.068 C 
ATOM     17  C   UNL     1       7.833  -8.627  -5.229  0.00  0.00    +0.071 C 
ATOM     18  C   UNL     1       9.048  -8.521  -7.409  0.00  0.00    +0.041 C 
ATOM     19  C   UNL     1       9.365 -10.482  -5.900  0.00  0.00    +0.041 C 
ATOM     20  C   UNL     1       5.201  -6.928  -4.602  0.00  0.00    +0.264 A 
ATOM     21  O   UNL     1       5.009  -8.130  -4.665  0.00  0.00    -0.267 OA
ATOM     22  N   UNL     1       4.184  -6.087  -4.342  0.00  0.00    -0.271 N 
ATOM     23  H   UNL     1       0.978  -2.063  -3.432  0.00  0.00    -0.082 HD
ENDROOT
BRANCH   1  24
ATOM     24  C   UNL     1       1.636  -0.134  -3.374  0.00  0.00    -0.079 C 
BRANCH  24  25
ATOM     25  C   UNL     1       0.553   0.335  -4.348  0.00  0.00    -0.019 C 
BRANCH  25  27
ATOM     26  C   UNL     1      -0.756   2.307  -5.147  0.00  0.00    +0.004 C 
ATOM     27  C   UNL     1       0.326   1.838  -4.173  0.00  0.00    -0.005 C 
ENDBRANCH  25  27
ENDBRANCH  24  25
ENDBRANCH   1  24
BRANCH  22  28
ATOM     28  C   UNL     1       2.839  -6.630  -4.133  0.00  0.00    +0.223 C 
BRANCH  28  29
ATOM     29  C   UNL     1       2.151  -6.792  -5.464  0.00  0.00    +0.233 C 
ATOM     30  O   UNL     1       2.726  -6.485  -6.486  0.00  0.00    -0.274 OA
ATOM     31  N   UNL     1       0.895  -7.279  -5.518  0.00  0.00    -0.311 N 
ATOM     32  H   UNL     1       0.434  -7.525  -4.700  0.00  0.00    +0.149 HD
BRANCH  31  33
ATOM     33  C   UNL     1       0.226  -7.437  -6.811  0.00  0.00    +0.073 C 
ATOM     34  C   UNL     1      -0.427  -6.112  -7.213  0.00  0.00    +0.022 C 
ATOM     35  C   UNL     1      -1.127  -6.277  -8.563  0.00  0.00    +0.002 C 
ATOM     36  C   UNL     1      -2.200  -7.362  -8.453  0.00  0.00    +0.000 C 
ATOM     37  C   UNL     1      -1.547  -8.687  -8.052  0.00  0.00    +0.002 C 
ATOM     38  C   UNL     1      -0.848  -8.522  -6.701  0.00  0.00    +0.022 C 
ENDBRANCH  31  33
ENDBRANCH  28  29
ENDBRANCH  22  28
TORSDOF 6
