REMARK  Name = ZINC16515222
REMARK  4 active torsions:
REMARK  status: ('A' for Active; 'I' for Inactive)
REMARK    1  A    between atoms: C_1  and  C_2
REMARK    2  A    between atoms: C_3  and  C_7
REMARK    3  A    between atoms: N_9  and  N_10
REMARK    4  A    between atoms: C_11  and  C_13
REMARK                            x       y       z     vdW  Elec       q    Type
REMARK                         _______ _______ _______ _____ _____    ______ ____
ROOT
ATOM      1  N   UNL     1      -1.191   1.867   0.018  0.00  0.00    -0.231 N 
ATOM      2  C   UNL     1      -0.014   1.209   0.009  0.00  0.00    +0.270 C 
ATOM      3  O   UNL     1       0.002  -0.004   0.002  0.00  0.00    -0.270 OA
ATOM      4  H   UNL     1      -1.204   2.837   0.023  0.00  0.00    +0.173 HD
ENDROOT
BRANCH   2   5
ATOM      5  C   UNL     1       1.280   1.980   0.001  0.00  0.00    +0.264 C 
ATOM      6  C   UNL     1       1.513   2.674   1.363  0.00  0.00    +0.093 C 
ATOM      7  C   UNL     1       2.346   1.645   2.102  0.00  0.00    -0.000 A 
ATOM      8  C   UNL     1       2.658   1.491   3.434  0.00  0.00    +0.027 A 
ATOM      9  C   UNL     1       3.441   0.425   3.843  0.00  0.00    +0.041 A 
ATOM     10  C   UNL     1       3.907  -0.482   2.909  0.00  0.00    +0.023 A 
ATOM     11  C   UNL     1       3.599  -0.328   1.573  0.00  0.00    +0.047 A 
ATOM     12  C   UNL     1       2.815   0.745   1.153  0.00  0.00    +0.125 A 
ATOM     13  O   UNL     1       2.404   1.088  -0.098  0.00  0.00    -0.479 OA
ATOM     14 CL   UNL     1       3.836   0.228   5.522  0.00  0.00    -0.084 Cl
ENDBRANCH   2   5
BRANCH   1  17
ATOM     15  C   UNL     1      -3.571   1.808   0.029  0.00  0.00    +0.263 C 
ATOM     16  O   UNL     1      -3.587   3.024   0.035  0.00  0.00    -0.269 OA
ATOM     17  N   UNL     1      -2.394   1.150   0.020  0.00  0.00    -0.230 N 
ATOM     18  H   UNL     1      -2.381   0.180   0.014  0.00  0.00    +0.173 HD
BRANCH  15  21
ATOM     19  C   UNL     1      -6.460   3.029   0.049  0.00  0.00    +0.087 C 
ATOM     20  C   UNL     1      -6.101   1.565   0.040  0.00  0.00    +0.114 A 
ATOM     21  C   UNL     1      -4.837   1.053   0.031  0.00  0.00    +0.079 A 
ATOM     22  C   UNL     1      -5.001  -0.407   0.017  0.00  0.00    +0.054 A 
ATOM     23  C   UNL     1      -6.324  -0.630   0.028  0.00  0.00    +0.196 A 
ATOM     24  O   UNL     1      -6.968   0.548   0.038  0.00  0.00    -0.467 OA
ENDBRANCH  15  21
ENDBRANCH   1  17
TORSDOF 3
