REMARK  Name = ZINC66994985
REMARK  8 active torsions:
REMARK  status: ('A' for Active; 'I' for Inactive)
REMARK    1  A    between atoms: C_1  and  C_2
REMARK    2  A    between atoms: C_2  and  C_3
REMARK    3  A    between atoms: C_2  and  N_4
REMARK    4  A    between atoms: C_5  and  C_7
REMARK    5  A    between atoms: C_11  and  C_13
REMARK    6  A    between atoms: C_13  and  N_14
REMARK    7  A    between atoms: N_14  and  C_15
REMARK    8  A    between atoms: C_15  and  C_16
REMARK                            x       y       z     vdW  Elec       q    Type
REMARK                         _______ _______ _______ _____ _____    ______ ____
ROOT
ATOM      1  N   UNL     1      -5.230  -5.250  -2.951  0.00  0.00    +0.384 N 
ATOM      2  H   UNL     1      -6.031  -4.650  -3.077  0.00  0.00    -0.085 HD
ATOM      3  H   UNL     1      -4.438  -4.862  -3.441  0.00  0.00    -0.085 HD
ENDROOT
BRANCH   1   4
ATOM      4  C   UNL     1      -4.917  -5.355  -1.520  0.00  0.00    -0.046 C 
BRANCH   4   9
ATOM      5  C   UNL     1      -3.030  -2.246  -0.474  0.00  0.00    +0.037 A 
ATOM      6  C   UNL     1      -4.062  -1.462   0.045  0.00  0.00    +0.013 A 
ATOM      7  C   UNL     1      -5.354  -1.946   0.051  0.00  0.00    +0.001 A 
ATOM      8  C   UNL     1      -5.628  -3.204  -0.455  0.00  0.00    +0.002 A 
ATOM      9  C   UNL     1      -4.610  -3.986  -0.971  0.00  0.00    -0.064 A 
ATOM     10  C   UNL     1      -3.314  -3.512  -0.989  0.00  0.00    +0.014 A 
BRANCH   5  12
ATOM     11  N   UNL     1      -1.372  -0.511   0.012  0.00  0.00    -0.309 N 
ATOM     12  C   UNL     1      -1.643  -1.734  -0.485  0.00  0.00    +0.244 C 
ATOM     13  O   UNL     1      -0.747  -2.417  -0.942  0.00  0.00    -0.270 OA
ATOM     14  H   UNL     1      -2.087   0.033   0.377  0.00  0.00    +0.149 HD
BRANCH  11  16
ATOM     15  C   UNL     1      -0.019   1.526   0.010  0.00  0.00    +0.027 C 
ATOM     16  C   UNL     1       0.002  -0.004   0.002  0.00  0.00    +0.067 C 
ATOM     17  C   UNL     1       0.742  -0.511   1.242  0.00  0.00    +0.027 C 
ENDBRANCH  11  16
ENDBRANCH   5  12
ENDBRANCH   4   9
ENDBRANCH   1   4
BRANCH   1  18
ATOM     18  C   UNL     1      -5.529  -6.585  -3.486  0.00  0.00    -0.047 C 
BRANCH  18  19
ATOM     19  C   UNL     1      -5.850  -6.478  -4.954  0.00  0.00    -0.049 C 
ATOM     20  C   UNL     1      -4.896  -6.683  -5.857  0.00  0.00    +0.012 C 
ATOM     21  C   UNL     1      -5.240  -6.532  -7.287  0.00  0.00    +0.018 A 
ATOM     22  C   UNL     1      -4.396  -6.999  -8.289  0.00  0.00    +0.031 A 
ATOM     23  C   UNL     1      -4.763  -6.850  -9.614  0.00  0.00    +0.042 A 
ATOM     24  C   UNL     1      -5.963  -6.241  -9.942  0.00  0.00    +0.023 A 
ATOM     25  C   UNL     1      -6.805  -5.769  -8.951  0.00  0.00    +0.048 A 
ATOM     26  C   UNL     1      -6.448  -5.905  -7.622  0.00  0.00    +0.128 A 
ATOM     27  O   UNL     1      -7.235  -5.421  -6.627  0.00  0.00    -0.487 OA
ATOM     28  C   UNL     1      -7.251  -6.144  -5.394  0.00  0.00    +0.258 C 
ATOM     29 CL   UNL     1      -3.715  -7.428 -10.871  0.00  0.00    -0.084 Cl
ENDBRANCH  18  19
ENDBRANCH   1  18
TORSDOF 6
