REMARK  Name = ZINC38665057
REMARK  10 active torsions:
REMARK  status: ('A' for Active; 'I' for Inactive)
REMARK    1  A    between atoms: C_3  and  C_20
REMARK    2  A    between atoms: C_6  and  C_7
REMARK    3  A    between atoms: C_7  and  C_8
REMARK    4  A    between atoms: C_8  and  C_9
REMARK    5  A    between atoms: C_13  and  N_17
REMARK    6  A    between atoms: N_22  and  CA_23
REMARK    7  A    between atoms: CA_23  and  C_25
REMARK    8  A    between atoms: CA_23  and  C_32
REMARK    9  A    between atoms: C_25  and  C_26
REMARK   10  A    between atoms: C_26  and  C_27
REMARK                            x       y       z     vdW  Elec       q    Type
REMARK                         _______ _______ _______ _____ _____    ______ ____
ROOT
ATOM      1  C   UNL     1      -0.017   1.379   0.010  0.00  0.00    +0.004 A 
ATOM      2  C   UNL     1       1.167   2.088   0.002  0.00  0.00    +0.013 A 
ATOM      3  C   UNL     1       2.385   1.407  -0.013  0.00  0.00    +0.037 A 
ATOM      4  C   UNL     1       2.397   0.011  -0.021  0.00  0.00    +0.013 A 
ATOM      5  C   UNL     1       1.206  -0.686  -0.013  0.00  0.00    +0.004 A 
ATOM      6  C   UNL     1       0.002  -0.004   0.002  0.00  0.00    -0.047 A 
ENDROOT
BRANCH   3   7
ATOM      7  C   UNL     1       3.657   2.160  -0.022  0.00  0.00    +0.245 C 
ATOM      8  O   UNL     1       3.643   3.376  -0.015  0.00  0.00    -0.270 OA
ATOM      9  N   UNL     1       4.831   1.499  -0.037  0.00  0.00    -0.298 N 
ATOM     10  H   UNL     1       4.842   0.529  -0.042  0.00  0.00    +0.150 HD
BRANCH   9  11
ATOM     11  CA  UNL     1       6.092   2.246  -0.045  0.00  0.00    +0.187 C 
BRANCH  11  12
ATOM     12  C   UNL     1       6.447   2.615  -1.462  0.00  0.00    +0.376 C 
ATOM     13  O   UNL     1       7.082   3.632  -1.686  0.00  0.00    -0.244 OA
ATOM     14  OXT UNL     1       6.100   1.898  -2.385  0.00  0.00    -0.244 OA
ENDBRANCH  11  12
BRANCH  11  15
ATOM     15  C   UNL     1       7.203   1.378   0.549  0.00  0.00    +0.042 C 
BRANCH  15  16
ATOM     16  C   UNL     1       6.903   1.106   2.025  0.00  0.00    +0.082 C 
BRANCH  16  17
ATOM     17  C   UNL     1       7.997   0.251   2.611  0.00  0.00    +0.177 A 
ATOM     18  N   UNL     1       8.034  -1.073   2.642  0.00  0.00    -0.111 NA
ATOM     19  N   UNL     1       9.131  -1.419   3.224  0.00  0.00    -0.021 NA
ATOM     20  N   UNL     1       9.781  -0.359   3.557  0.00  0.00    -0.021 NA
ATOM     21  N   UNL     1       9.111   0.679   3.188  0.00  0.00    -0.111 NA
ENDBRANCH  16  17
ENDBRANCH  15  16
ENDBRANCH  11  15
ENDBRANCH   9  11
ENDBRANCH   3   7
BRANCH   6  22
ATOM     22  C   UNL     1      -1.295  -0.772   0.010  0.00  0.00    +0.040 C 
BRANCH  22  23
ATOM     23  C   UNL     1      -1.747  -1.024  -1.429  0.00  0.00    +0.042 C 
BRANCH  23  24
ATOM     24  C   UNL     1      -3.044  -1.792  -1.421  0.00  0.00    -0.013 C 
ATOM     25  C   UNL     1      -4.295  -1.274  -1.506  0.00  0.00    +0.088 C 
ATOM     26  C   UNL     1      -5.227  -2.426  -1.456  0.00  0.00    +0.168 C 
ATOM     27  N   UNL     1      -6.510  -2.179  -1.522  0.00  0.00    -0.196 NA
ATOM     28  C   UNL     1      -6.983  -0.915  -1.633  0.00  0.00    +0.226 C 
ATOM     29  N   UNL     1      -6.230   0.158  -1.685  0.00  0.00    -0.142 NA
ATOM     30  C   UNL     1      -4.881   0.073  -1.628  0.00  0.00    +0.274 C 
ATOM     31  O   UNL     1      -4.180   1.068  -1.676  0.00  0.00    -0.268 OA
ATOM     32  N   UNL     1      -4.466  -3.562  -1.343  0.00  0.00    -0.235 NA
ATOM     33  C   UNL     1      -3.203  -3.260  -1.325  0.00  0.00    +0.117 C 
BRANCH  28  34
ATOM     34  N   UNL     1      -8.341  -0.745  -1.696  0.00  0.00    -0.234 NA
ATOM     35  H   UNL     1      -8.715   0.146  -1.776  0.00  0.00    +0.173 HD
ENDBRANCH  28  34
ENDBRANCH  23  24
ENDBRANCH  22  23
ENDBRANCH   6  22
TORSDOF 10
