REMARK  Name = ZINC39685749
REMARK  15 active torsions:
REMARK  status: ('A' for Active; 'I' for Inactive)
REMARK    1  A    between atoms: C_1  and  C_2
REMARK    2  A    between atoms: C_2  and  C_3
REMARK    3  A    between atoms: C_2  and  C_4
REMARK    4  A    between atoms: C_4  and  C_6
REMARK    5  A    between atoms: C_4  and  N_13
REMARK    6  A    between atoms: N_8  and  C_9
REMARK    7  A    between atoms: C_9  and  C_10
REMARK    8  A    between atoms: C_9  and  C_11
REMARK    9  A    between atoms: C_9  and  C_12
REMARK   10  A    between atoms: C_14  and  C_16
REMARK   11  A    between atoms: C_27  and  C_29
REMARK   12  A    between atoms: C_32  and  O_37
REMARK   13  A    between atoms: C_34  and  O_35
REMARK   14  A    between atoms: O_35  and  C_36
REMARK   15  A    between atoms: O_37  and  C_38
REMARK                            x       y       z     vdW  Elec       q    Type
REMARK                         _______ _______ _______ _____ _____    ______ ____
ROOT
ATOM      1  C   UNL     1      -0.305  -3.832   1.742  0.00  0.00    +0.100 C 
ATOM      2  C   UNL     1       1.083  -4.046   1.099  0.00  0.00    +0.121 C 
ATOM      3  N   UNL     1       2.048  -3.766   2.188  0.00  0.00    -0.296 N 
ATOM      4  C   UNL     1       1.422  -4.357   3.396  0.00  0.00    +0.115 C 
ATOM      5  C   UNL     1      -0.079  -4.040   3.248  0.00  0.00    -0.004 C 
ATOM      6  C   UNL     1      -0.426  -2.768   4.016  0.00  0.00    -0.010 C 
ATOM      7  C   UNL     1      -0.248  -3.018   5.516  0.00  0.00    -0.082 C 
ATOM      8  N   UNL     1      -1.120  -4.120   5.937  0.00  0.00    +0.379 N 
ATOM      9  C   UNL     1      -0.720  -5.361   5.263  0.00  0.00    -0.082 C 
ATOM     10  C   UNL     1      -0.918  -5.210   3.752  0.00  0.00    -0.010 C 
ATOM     11  C   UNL     1       3.228  -3.120   2.102  0.00  0.00    +0.250 C 
ATOM     12  O   UNL     1       3.568  -2.615   1.049  0.00  0.00    -0.270 OA
ATOM     13  H   UNL     1      -1.046  -4.243   6.936  0.00  0.00    -0.086 HD
ATOM     14  H   UNL     1      -2.075  -3.902   5.698  0.00  0.00    -0.086 HD
ENDROOT
BRANCH  11  15
ATOM     15  C   UNL     1       4.104  -3.025   3.282  0.00  0.00    +0.079 A 
ATOM     16  C   UNL     1       4.167  -4.082   4.196  0.00  0.00    +0.020 A 
ATOM     17  C   UNL     1       4.987  -3.990   5.297  0.00  0.00    +0.046 A 
ATOM     18  C   UNL     1       5.755  -2.848   5.505  0.00  0.00    +0.124 A 
ATOM     19  C   UNL     1       5.700  -1.794   4.605  0.00  0.00    +0.092 A 
ATOM     20  C   UNL     1       4.883  -1.877   3.490  0.00  0.00    +0.136 A 
BRANCH  20  21
ATOM     21  O   UNL     1       4.833  -0.850   2.605  0.00  0.00    -0.494 OA
ATOM     22  C   UNL     1       5.654   0.286   2.882  0.00  0.00    +0.277 C 
ENDBRANCH  20  21
BRANCH  18  23
ATOM     23  O   UNL     1       6.561  -2.765   6.594  0.00  0.00    -0.495 OA
ATOM     24  C   UNL     1       6.570  -3.885   7.481  0.00  0.00    +0.277 C 
ENDBRANCH  18  23
ENDBRANCH  11  15
BRANCH   1  26
ATOM     25  N   UNL     1      -2.120  -2.186   1.403  0.00  0.00    -0.303 N 
ATOM     26  C   UNL     1      -0.797  -2.433   1.473  0.00  0.00    +0.219 C 
ATOM     27  O   UNL     1      -0.002  -1.529   1.321  0.00  0.00    -0.275 OA
ATOM     28  H   UNL     1      -2.756  -2.908   1.525  0.00  0.00    +0.149 HD
BRANCH  25  29
ATOM     29  C   UNL     1      -2.598  -0.826   1.142  0.00  0.00    +0.161 C 
BRANCH  29  30
ATOM     30  C   UNL     1      -3.990  -0.667   1.698  0.00  0.00    +0.234 C 
ATOM     31  O   UNL     1      -4.648  -1.648   1.973  0.00  0.00    -0.274 OA
ATOM     32  N   UNL     1      -4.503   0.564   1.889  0.00  0.00    -0.309 N 
ATOM     33  H   UNL     1      -3.954   1.348   1.731  0.00  0.00    +0.149 HD
BRANCH  32  34
ATOM     34  C   UNL     1      -5.890   0.719   2.335  0.00  0.00    +0.026 C 
ATOM     35  C   UNL     1      -6.070   0.029   3.689  0.00  0.00    +0.031 C 
ATOM     36  C   UNL     1      -6.219   2.207   2.473  0.00  0.00    +0.031 C 
ATOM     37  C   UNL     1      -6.830   0.082   1.309  0.00  0.00    +0.031 C 
ENDBRANCH  32  34
ENDBRANCH  29  30
BRANCH  29  39
ATOM     38  C   UNL     1      -1.196  -0.665  -0.919  0.00  0.00    +0.009 C 
ATOM     39  C   UNL     1      -2.620  -0.573  -0.367  0.00  0.00    +0.012 C 
ATOM     40  C   UNL     1      -3.500  -1.623  -1.047  0.00  0.00    +0.009 C 
ENDBRANCH  29  39
ENDBRANCH  25  29
ENDBRANCH   1  26
TORSDOF 8
