REMARK  Name = ZINC03312123
REMARK  11 active torsions:
REMARK  status: ('A' for Active; 'I' for Inactive)
REMARK    1  A    between atoms: C_1  and  O_2
REMARK    2  A    between atoms: O_2  and  C_3
REMARK    3  A    between atoms: C_6  and  N_9
REMARK    4  A    between atoms: C_10  and  C_12
REMARK    5  A    between atoms: C_14  and  S_19
REMARK    6  A    between atoms: S_19  and  N_22
REMARK    7  A    between atoms: N_22  and  C_23
REMARK    8  A    between atoms: C_26  and  O_31
REMARK    9  A    between atoms: C_28  and  O_29
REMARK   10  A    between atoms: O_29  and  C_30
REMARK   11  A    between atoms: O_31  and  C_32
REMARK                            x       y       z     vdW  Elec       q    Type
REMARK                         _______ _______ _______ _____ _____    ______ ____
ROOT
ATOM      1  C   UNL     1       2.634   8.377   4.596  0.00  0.00    +0.057 A 
ATOM      2  C   UNL     1       1.421   8.435   3.907  0.00  0.00    +0.043 A 
ATOM      3  C   UNL     1       0.483   7.439   4.083  0.00  0.00    +0.109 A 
ATOM      4  C   UNL     1       0.739   6.386   4.944  0.00  0.00    +0.030 A 
ATOM      5  C   UNL     1       1.940   6.319   5.626  0.00  0.00    +0.022 A 
ATOM      6  C   UNL     1       2.889   7.309   5.460  0.00  0.00    +0.053 A 
ATOM      7 CL   UNL     1       4.394   7.226   6.321  0.00  0.00    -0.083 Cl
ENDROOT
BRANCH   1   9
ATOM      8  N   UNL     1       3.394  10.469   3.577  0.00  0.00    -0.281 N 
ATOM      9  C   UNL     1       3.643   9.440   4.412  0.00  0.00    +0.250 C 
ATOM     10  O   UNL     1       4.699   9.387   5.013  0.00  0.00    -0.270 OA
ATOM     11  H   UNL     1       2.525  10.552   3.156  0.00  0.00    +0.155 HD
BRANCH   8  15
ATOM     12  C   UNL     1       6.363  13.292   2.806  0.00  0.00    +0.120 A 
ATOM     13  C   UNL     1       6.708  11.969   3.037  0.00  0.00    +0.047 A 
ATOM     14  C   UNL     1       5.726  11.033   3.292  0.00  0.00    +0.027 A 
ATOM     15  C   UNL     1       4.391  11.417   3.318  0.00  0.00    +0.034 A 
ATOM     16  C   UNL     1       4.046  12.741   3.081  0.00  0.00    +0.027 A 
ATOM     17  C   UNL     1       5.030  13.677   2.831  0.00  0.00    +0.047 A 
BRANCH  12  19
ATOM     18  C   UNL     1       6.904  15.558   2.326  0.00  0.00    +0.277 C 
ATOM     19  O   UNL     1       7.331  14.213   2.554  0.00  0.00    -0.495 OA
ENDBRANCH  12  19
ENDBRANCH   8  15
ENDBRANCH   1   9
BRANCH   3  20
ATOM     20  S   UNL     1      -1.048   7.511   3.214  0.00  0.00    +0.072 S 
ATOM     21  O   UNL     1      -1.270   8.878   2.894  0.00  0.00    -0.150 OA
ATOM     22  O   UNL     1      -1.979   6.745   3.967  0.00  0.00    -0.150 OA
BRANCH  20  23
ATOM     23  N   UNL     1      -0.834   6.717   1.777  0.00  0.00    -0.213 N 
ATOM     24  H   UNL     1      -0.956   7.190   0.939  0.00  0.00    +0.174 HD
BRANCH  23  25
ATOM     25  C   UNL     1      -0.477   5.361   1.772  0.00  0.00    +0.091 A 
ATOM     26  C   UNL     1      -0.978   4.508   2.744  0.00  0.00    +0.051 A 
ATOM     27  C   UNL     1      -0.630   3.169   2.734  0.00  0.00    +0.085 A 
ATOM     28  C   UNL     1       0.229   2.680   1.760  0.00  0.00    +0.142 A 
ATOM     29  C   UNL     1       0.731   3.530   0.787  0.00  0.00    +0.094 A 
ATOM     30  C   UNL     1       0.380   4.870   0.790  0.00  0.00    +0.146 A 
ATOM     31 CL   UNL     1      -1.264   2.101   3.947  0.00  0.00    -0.080 Cl
BRANCH  30  32
ATOM     32  O   UNL     1       0.873   5.705  -0.164  0.00  0.00    -0.493 OA
ATOM     33  C   UNL     1       1.747   5.133  -1.138  0.00  0.00    +0.277 C 
ENDBRANCH  30  32
BRANCH  28  34
ATOM     34  O   UNL     1       0.573   1.364   1.757  0.00  0.00    -0.494 OA
ATOM     35  C   UNL     1       1.456   0.927   0.722  0.00  0.00    +0.277 C 
ENDBRANCH  28  34
ENDBRANCH  23  25
ENDBRANCH  20  23
ENDBRANCH   3  20
TORSDOF 8
