REMARK  Name = ZINC34747064
REMARK  7 active torsions:
REMARK  status: ('A' for Active; 'I' for Inactive)
REMARK    1  A    between atoms: C_1  and  C_2
REMARK    2  A    between atoms: C_2  and  N_3
REMARK    3  A    between atoms: N_16  and  C_19
REMARK    4  A    between atoms: C_19  and  C_20
REMARK    5  A    between atoms: N_22  and  C_23
REMARK    6  A    between atoms: C_35  and  C_37
REMARK    7  A    between atoms: C_35  and  C_38
REMARK                            x       y       z     vdW  Elec       q    Type
REMARK                         _______ _______ _______ _____ _____    ______ ____
ROOT
ATOM      1  N   UNL     1      -2.693   0.280  -0.570  0.00  0.00    -0.281 N 
ATOM      2  C   UNL     1      -3.256   0.101   0.639  0.00  0.00    +0.264 A 
ATOM      3  O   UNL     1      -3.825   1.023   1.198  0.00  0.00    -0.267 OA
ATOM      4  C   UNL     1      -3.177  -1.186   1.260  0.00  0.00    +0.076 A 
ATOM      5  C   UNL     1      -3.709  -1.605   2.554  0.00  0.00    -0.018 A 
ATOM      6  C   UNL     1      -3.501  -2.889   2.918  0.00  0.00    +0.021 A 
ATOM      7  S   UNL     1      -2.597  -3.607   1.576  0.00  0.00    -0.071 S 
ATOM      8  C   UNL     1      -2.499  -2.177   0.527  0.00  0.00    +0.118 A 
ATOM      9  N   UNL     1      -1.965  -1.933  -0.663  0.00  0.00    -0.208 NA
ATOM     10  C   UNL     1      -2.057  -0.740  -1.213  0.00  0.00    +0.202 A 
ATOM     11  N   UNL     1      -1.500  -0.519  -2.448  0.00  0.00    -0.304 N 
ATOM     12  C   UNL     1      -0.080  -0.163  -2.585  0.00  0.00    +0.089 C 
ATOM     13  C   UNL     1       0.557  -1.092  -3.624  0.00  0.00    -0.059 C 
ATOM     14  N   UNL     1      -0.209  -1.022  -4.875  0.00  0.00    +0.387 N 
ATOM     15  C   UNL     1      -1.566  -1.539  -4.661  0.00  0.00    -0.059 C 
ATOM     16  C   UNL     1      -2.306  -0.638  -3.674  0.00  0.00    +0.089 C 
ATOM     17  C   UNL     1      -3.951  -3.533   4.193  0.00  0.00    +0.203 C 
ATOM     18  O   UNL     1      -4.356  -2.491   5.095  0.00  0.00    -0.368 OA
ATOM     19  C   UNL     1      -5.236  -1.533   4.501  0.00  0.00    +0.068 C 
ATOM     20  C   UNL     1      -4.474  -0.672   3.490  0.00  0.00    +0.071 C 
ATOM     21  C   UNL     1      -6.375  -2.265   3.787  0.00  0.00    +0.041 C 
ATOM     22  C   UNL     1      -5.821  -0.636   5.593  0.00  0.00    +0.041 C 
ATOM     23  H   UNL     1      -0.261  -0.062  -5.183  0.00  0.00    -0.081 HD
ENDROOT
BRANCH   1  25
ATOM     24  C   UNL     1      -3.982   1.640  -2.142  0.00  0.00    +0.027 C 
ATOM     25  C   UNL     1      -2.770   1.596  -1.210  0.00  0.00    +0.125 C 
ENDBRANCH   1  25
BRANCH  14  26
ATOM     26  C   UNL     1       0.464  -1.826  -5.904  0.00  0.00    +0.019 C 
BRANCH  26  27
ATOM     27  C   UNL     1      -0.251  -1.658  -7.220  0.00  0.00    +0.201 C 
ATOM     28  O   UNL     1      -1.224  -0.938  -7.294  0.00  0.00    -0.278 OA
ATOM     29  N   UNL     1       0.192  -2.307  -8.315  0.00  0.00    -0.287 N 
ATOM     30  H   UNL     1       0.916  -2.947  -8.240  0.00  0.00    +0.155 HD
BRANCH  29  31
ATOM     31  C   UNL     1      -0.393  -2.058  -9.558  0.00  0.00    +0.041 A 
ATOM     32  C   UNL     1      -1.025  -0.857  -9.802  0.00  0.00    +0.024 A 
ATOM     33  C   UNL     1      -1.611  -0.599 -11.037  0.00  0.00    +0.002 A 
ATOM     34  C   UNL     1      -1.577  -1.522 -12.038  0.00  0.00    +0.008 A 
ATOM     35  C   UNL     1      -0.943  -2.758 -11.831  0.00  0.00    -0.016 A 
ATOM     36  C   UNL     1      -0.338  -3.031 -10.579  0.00  0.00    +0.003 A 
ATOM     37  C   UNL     1       0.299  -4.265 -10.375  0.00  0.00    +0.010 A 
ATOM     38  C   UNL     1       0.333  -5.180 -11.382  0.00  0.00    +0.001 A 
ATOM     39  C   UNL     1      -0.256  -4.911 -12.616  0.00  0.00    +0.001 A 
ATOM     40  C   UNL     1      -0.892  -3.730 -12.845  0.00  0.00    +0.008 A 
ENDBRANCH  29  31
ENDBRANCH  26  27
ENDBRANCH  14  26
TORSDOF 4
