REMARK  Name = ZINC63588801
REMARK  10 active torsions:
REMARK  status: ('A' for Active; 'I' for Inactive)
REMARK    1  A    between atoms: C_1  and  C_2
REMARK    2  A    between atoms: C_7  and  N_8
REMARK    3  A    between atoms: N_10  and  C_11
REMARK    4  A    between atoms: C_11  and  C_12
REMARK    5  A    between atoms: C_12  and  C_13
REMARK    6  A    between atoms: N_22  and  C_23
REMARK    7  A    between atoms: C_23  and  C_25
REMARK    8  A    between atoms: C_28  and  N_31
REMARK    9  A    between atoms: C_32  and  C_37
REMARK   10  A    between atoms: C_35  and  C_36
REMARK                            x       y       z     vdW  Elec       q    Type
REMARK                         _______ _______ _______ _____ _____    ______ ____
ROOT
ATOM      1  N   UNL     1      -1.076  -0.737   3.232  0.00  0.00    -0.328 N 
ATOM      2  C   UNL     1      -0.204  -0.972   4.256  0.00  0.00    +0.194 C 
ATOM      3  N   UNL     1       0.238   0.063   5.027  0.00  0.00    -0.357 N 
ATOM      4  N   UNL     1       0.211  -2.205   4.502  0.00  0.00    -0.143 NA
ATOM      5  H   UNL     1       0.888  -0.098   5.728  0.00  0.00    +0.162 HD
ATOM      6  H   UNL     1      -2.006  -0.999   3.316  0.00  0.00    +0.169 HD
ENDROOT
BRANCH   1  13
ATOM      7  C   UNL     1      -3.008  -0.000   1.277  0.00  0.00    +0.046 C 
ATOM      8  C   UNL     1      -1.536   0.258   1.080  0.00  0.00    -0.027 A 
ATOM      9  C   UNL     1      -1.091   0.875  -0.073  0.00  0.00    +0.005 A 
ATOM     10  C   UNL     1       0.259   1.113  -0.254  0.00  0.00    +0.000 A 
ATOM     11  C   UNL     1       1.168   0.735   0.718  0.00  0.00    +0.002 A 
ATOM     12  C   UNL     1       0.729   0.117   1.873  0.00  0.00    +0.026 A 
ATOM     13  C   UNL     1      -0.627  -0.118   2.060  0.00  0.00    +0.045 A 
ENDBRANCH   1  13
BRANCH   4  14
ATOM     14  C   UNL     1      -0.072  -3.192   3.641  0.00  0.00    +0.270 C 
ATOM     15  O   UNL     1      -0.604  -2.936   2.575  0.00  0.00    -0.268 OA
BRANCH  14  16
ATOM     16  C   UNL     1       0.261  -4.592   3.984  0.00  0.00    +0.039 A 
ATOM     17  C   UNL     1       0.761  -4.901   5.251  0.00  0.00    +0.015 A 
ATOM     18  C   UNL     1       1.071  -6.206   5.567  0.00  0.00    +0.027 A 
ATOM     19  C   UNL     1       0.886  -7.213   4.627  0.00  0.00    +0.047 A 
ATOM     20  C   UNL     1       0.389  -6.908   3.365  0.00  0.00    +0.027 A 
ATOM     21  C   UNL     1       0.071  -5.607   3.045  0.00  0.00    +0.015 A 
BRANCH  19  22
ATOM     22  N   UNL     1       1.201  -8.537   4.952  0.00  0.00    -0.318 N 
ATOM     23  C   UNL     1       2.450  -9.012   5.236  0.00  0.00    +0.021 A 
ATOM     24  C   UNL     1       2.350 -10.330   5.498  0.00  0.00    +0.023 A 
ATOM     25  C   UNL     1       0.991 -10.685   5.373  0.00  0.00    +0.023 A 
ATOM     26  C   UNL     1       0.310  -9.569   5.044  0.00  0.00    +0.021 A 
ATOM     27  C   UNL     1      -1.177  -9.476   4.815  0.00  0.00    +0.064 C 
ATOM     28  C   UNL     1       3.721  -8.202   5.251  0.00  0.00    +0.064 C 
ENDBRANCH  19  22
ENDBRANCH  14  16
ENDBRANCH   4  14
BRANCH   3  29
ATOM     29  C   UNL     1      -0.269   1.418   4.794  0.00  0.00    +0.120 C 
BRANCH  29  30
ATOM     30  C   UNL     1       0.419   2.391   5.753  0.00  0.00    +0.054 C 
BRANCH  30  31
ATOM     31  C   UNL     1      -0.185   3.763   5.596  0.00  0.00    -0.040 C 
ATOM     32  C   UNL     1      -1.312   4.227   6.184  0.00  0.00    -0.001 A 
ATOM     33  C   UNL     1      -2.275   3.617   7.108  0.00  0.00    +0.010 A 
ATOM     34  C   UNL     1      -3.330   4.349   7.533  0.00  0.00    +0.001 A 
ATOM     35  C   UNL     1      -3.527   5.672   7.113  0.00  0.00    +0.002 A 
ATOM     36  C   UNL     1      -2.685   6.300   6.265  0.00  0.00    +0.026 A 
ATOM     37  C   UNL     1      -1.542   5.625   5.756  0.00  0.00    +0.043 A 
ATOM     38  N   UNL     1      -0.594   6.011   4.936  0.00  0.00    -0.380 N 
ATOM     39  C   UNL     1       0.348   4.901   4.755  0.00  0.00    +0.144 C 
ATOM     40  H   UNL     1      -0.525   6.885   4.521  0.00  0.00    +0.160 HD
ENDBRANCH  30  31
ENDBRANCH  29  30
ENDBRANCH   3  29
TORSDOF 7
