REMARK  Name = ZINC39845346
REMARK  13 active torsions:
REMARK  status: ('A' for Active; 'I' for Inactive)
REMARK    1  A    between atoms: C_1  and  C_2
REMARK    2  A    between atoms: C_2  and  O_3
REMARK    3  A    between atoms: O_3  and  C_4
REMARK    4  A    between atoms: C_7  and  C_10
REMARK    5  A    between atoms: C_12  and  S_22
REMARK    6  A    between atoms: C_13  and  N_15
REMARK    7  A    between atoms: N_15  and  C_16
REMARK    8  A    between atoms: C_16  and  C_17
REMARK    9  A    between atoms: C_17  and  C_18
REMARK   10  A    between atoms: C_18  and  N_19
REMARK   11  A    between atoms: N_19  and  C_20
REMARK   12  A    between atoms: N_19  and  C_21
REMARK   13  A    between atoms: S_22  and  C_25
REMARK                            x       y       z     vdW  Elec       q    Type
REMARK                         _______ _______ _______ _____ _____    ______ ____
ROOT
ATOM      1  C   UNL     1       1.141  -6.033   1.762  0.00  0.00    +0.231 A 
ATOM      2  N   UNL     1       1.728  -6.649   2.761  0.00  0.00    -0.188 NA
ATOM      3  C   UNL     1       1.637  -7.974   2.564  0.00  0.00    +0.243 A 
ATOM      4  C   UNL     1       0.969  -8.173   1.402  0.00  0.00    +0.233 A 
ATOM      5  O   UNL     1       0.657  -6.957   0.909  0.00  0.00    -0.420 OA
ENDROOT
BRANCH   1   9
ATOM      6  C   UNL     1       0.802  -1.824   1.306  0.00  0.00    +0.121 A 
ATOM      7  C   UNL     1       0.258  -2.670   0.348  0.00  0.00    +0.046 A 
ATOM      8  C   UNL     1       0.365  -4.037   0.493  0.00  0.00    +0.017 A 
ATOM      9  C   UNL     1       1.023  -4.570   1.603  0.00  0.00    +0.037 A 
ATOM     10  C   UNL     1       1.569  -3.715   2.564  0.00  0.00    +0.017 A 
ATOM     11  C   UNL     1       1.462  -2.350   2.409  0.00  0.00    +0.046 A 
BRANCH   6  12
ATOM     12  O   UNL     1       0.693  -0.477   1.160  0.00  0.00    -0.492 OA
BRANCH  12  14
ATOM     13  C   UNL     1      -0.019   1.526   0.010  0.00  0.00    +0.048 C 
ATOM     14  C   UNL     1       0.002  -0.004   0.002  0.00  0.00    +0.225 C 
ENDBRANCH  12  14
ENDBRANCH   6  12
ENDBRANCH   1   9
BRANCH   3  15
ATOM     15  S   UNL     1       2.272  -9.228   3.626  0.00  0.00    +0.047 S 
ATOM     16  O   UNL     1       2.463 -10.383   2.820  0.00  0.00    -0.163 OA
ATOM     17  O   UNL     1       3.327  -8.635   4.369  0.00  0.00    -0.163 OA
BRANCH  15  18
ATOM     18  C   UNL     1       1.002  -9.624   4.781  0.00  0.00    +0.095 A 
ATOM     19  C   UNL     1       0.916  -8.935   5.976  0.00  0.00    +0.028 A 
ATOM     20  C   UNL     1      -0.080  -9.246   6.883  0.00  0.00    +0.017 A 
ATOM     21  C   UNL     1      -0.991 -10.246   6.594  0.00  0.00    +0.018 A 
ATOM     22  C   UNL     1      -0.905 -10.935   5.398  0.00  0.00    +0.017 A 
ATOM     23  C   UNL     1       0.088 -10.620   4.490  0.00  0.00    +0.028 A 
ATOM     24 BR   UNL     1      -2.354 -10.671   7.834  0.00  0.00    -0.050 Br
ENDBRANCH  15  18
ENDBRANCH   3  15
BRANCH   4  25
ATOM     25  N   UNL     1       0.658  -9.402   0.828  0.00  0.00    -0.312 N 
ATOM     26  H   UNL     1       0.926 -10.224   1.268  0.00  0.00    +0.149 HD
BRANCH  25  27
ATOM     27  C   UNL     1      -0.074  -9.454  -0.440  0.00  0.00    +0.102 C 
BRANCH  27  28
ATOM     28  C   UNL     1      -0.285 -10.913  -0.848  0.00  0.00    +0.000 C 
BRANCH  28  29
ATOM     29  C   UNL     1      -1.049 -10.967  -2.172  0.00  0.00    -0.078 C 
BRANCH  29  30
ATOM     30  N   UNL     1      -1.252 -12.369  -2.563  0.00  0.00    +0.376 N 
ATOM     31  C   UNL     1      -2.087 -12.424  -3.770  0.00  0.00    -0.097 C 
ATOM     32  C   UNL     1       0.049 -12.993  -2.840  0.00  0.00    -0.097 C 
ATOM     33  H   UNL     1      -1.710 -12.865  -1.814  0.00  0.00    -0.083 HD
ENDBRANCH  29  30
ENDBRANCH  28  29
ENDBRANCH  27  28
ENDBRANCH  25  27
ENDBRANCH   4  25
TORSDOF 10
