REMARK  Name = ZINC44714140
REMARK  9 active torsions:
REMARK  status: ('A' for Active; 'I' for Inactive)
REMARK    1  A    between atoms: C_1  and  C_2
REMARK    2  A    between atoms: C_4  and  C_11
REMARK    3  A    between atoms: C_5  and  C_7
REMARK    4  A    between atoms: C_15  and  C_24
REMARK    5  A    between atoms: N_26  and  C_27
REMARK    6  A    between atoms: C_27  and  C_29
REMARK    7  A    between atoms: C_27  and  C_30
REMARK    8  A    between atoms: C_31  and  C_37
REMARK    9  A    between atoms: C_35  and  C_36
REMARK                            x       y       z     vdW  Elec       q    Type
REMARK                         _______ _______ _______ _____ _____    ______ ____
ROOT
ATOM      1  C   UNL     1      -1.366  -3.430  -0.015  0.00  0.00    +0.250 C 
ATOM      2  O   UNL     1      -0.814  -4.507  -0.125  0.00  0.00    -0.270 OA
ATOM      3  N   UNL     1      -2.708  -3.368   0.094  0.00  0.00    -0.296 N 
ATOM      4  C   UNL     1      -3.563  -2.158   0.118  0.00  0.00    +0.121 C 
ATOM      5  C   UNL     1      -4.807  -2.543  -0.714  0.00  0.00    +0.100 C 
ATOM      6  C   UNL     1      -4.868  -4.078  -0.643  0.00  0.00    -0.004 C 
ATOM      7  C   UNL     1      -3.663  -4.497   0.212  0.00  0.00    +0.115 C 
ATOM      8  C   UNL     1      -4.748  -4.678  -2.041  0.00  0.00    -0.010 C 
ATOM      9  C   UNL     1      -4.868  -6.202  -1.949  0.00  0.00    -0.082 C 
ATOM     10  N   UNL     1      -6.161  -6.558  -1.351  0.00  0.00    +0.379 N 
ATOM     11  C   UNL     1      -6.230  -6.056   0.027  0.00  0.00    -0.082 C 
ATOM     12  C   UNL     1      -6.167  -4.526   0.019  0.00  0.00    -0.010 C 
ATOM     13  H   UNL     1      -6.906  -6.148  -1.894  0.00  0.00    -0.086 HD
ATOM     14  H   UNL     1      -6.263  -7.561  -1.348  0.00  0.00    -0.086 HD
ENDROOT
BRANCH   1  18
ATOM     15  C   UNL     1       0.176   1.364   0.807  0.00  0.00    +0.086 C 
ATOM     16  C   UNL     1       0.094  -0.076   0.370  0.00  0.00    +0.103 A 
ATOM     17  C   UNL     1      -0.935  -0.904   0.609  0.00  0.00    +0.058 A 
ATOM     18  C   UNL     1      -0.569  -2.190  -0.002  0.00  0.00    +0.087 A 
ATOM     19  C   UNL     1       0.664  -1.997  -0.554  0.00  0.00    +0.220 A 
ATOM     20  O   UNL     1       1.035  -0.734  -0.326  0.00  0.00    -0.455 OA
BRANCH  19  21
ATOM     21  C   UNL     1       1.467  -3.031  -1.300  0.00  0.00    +0.451 C 
ATOM     22  F   UNL     1       1.150  -2.974  -2.662  0.00  0.00    -0.163 F 
ATOM     23  F   UNL     1       2.832  -2.774  -1.128  0.00  0.00    -0.163 F 
ATOM     24  F   UNL     1       1.166  -4.303  -0.804  0.00  0.00    -0.163 F 
ENDBRANCH  19  21
ENDBRANCH   1  18
BRANCH   5  25
ATOM     25  C   UNL     1      -4.645  -2.088  -2.142  0.00  0.00    +0.219 C 
ATOM     26  O   UNL     1      -3.550  -2.104  -2.663  0.00  0.00    -0.275 OA
ATOM     27  N   UNL     1      -5.717  -1.664  -2.840  0.00  0.00    -0.308 N 
ATOM     28  H   UNL     1      -6.593  -1.651  -2.423  0.00  0.00    +0.149 HD
BRANCH  27  29
ATOM     29  C   UNL     1      -5.560  -1.222  -4.227  0.00  0.00    +0.104 C 
ATOM     30  C   UNL     1      -5.617  -2.434  -5.159  0.00  0.00    +0.033 C 
BRANCH  29  31
ATOM     31  C   UNL     1      -6.670  -0.265  -4.579  0.00  0.00    +0.015 A 
ATOM     32  C   UNL     1      -6.532   0.905  -5.244  0.00  0.00    +0.038 A 
ATOM     33  N   UNL     1      -7.756   1.461  -5.357  0.00  0.00    -0.281 N 
ATOM     34  H   UNL     1      -7.962   2.305  -5.789  0.00  0.00    +0.189 HD
ATOM     35  N   UNL     1      -8.677   0.604  -4.741  0.00  0.00    -0.179 NA
ATOM     36  C   UNL     1      -8.026  -0.433  -4.280  0.00  0.00    +0.065 A 
ATOM     37  C   UNL     1      -8.632  -1.604  -3.550  0.00  0.00    +0.068 C 
ATOM     38  C   UNL     1      -5.242   1.484  -5.765  0.00  0.00    +0.065 C 
ENDBRANCH  29  31
ENDBRANCH  27  29
ENDBRANCH   5  25
TORSDOF 5
