REMARK  Name = ZINC39781061
REMARK  9 active torsions:
REMARK  status: ('A' for Active; 'I' for Inactive)
REMARK    1  A    between atoms: C_1  and  O_2
REMARK    2  A    between atoms: O_2  and  C_3
REMARK    3  A    between atoms: C_3  and  C_4
REMARK    4  A    between atoms: C_4  and  N_5
REMARK    5  A    between atoms: C_6  and  C_8
REMARK    6  A    between atoms: C_10  and  N_19
REMARK    7  A    between atoms: C_20  and  C_22
REMARK    8  A    between atoms: C_22  and  O_23
REMARK    9  A    between atoms: O_23  and  C_24
REMARK                            x       y       z     vdW  Elec       q    Type
REMARK                         _______ _______ _______ _____ _____    ______ ____
ROOT
ATOM      1  N   UNL     1       1.604  -2.523   2.691  0.00  0.00    -0.299 N 
ATOM      2  C   UNL     1       2.185  -1.436   3.236  0.00  0.00    +0.252 C 
ATOM      3  O   UNL     1       2.644  -1.492   4.357  0.00  0.00    -0.272 OA
ATOM      4  H   UNL     1       1.302  -2.501   1.769  0.00  0.00    +0.150 HD
ENDROOT
BRANCH   1   6
ATOM      5  C   UNL     1       0.003  -4.319   3.335  0.00  0.00    +0.132 C 
ATOM      6  C   UNL     1       1.429  -3.738   3.490  0.00  0.00    +0.151 C 
ATOM      7  S   UNL     1       2.384  -5.151   2.794  0.00  0.00    -0.106 S 
ATOM      8  C   UNL     1       1.168  -6.426   3.032  0.00  0.00    -0.013 C 
ATOM      9  C   UNL     1       0.019  -5.827   3.307  0.00  0.00    -0.046 C 
ATOM     10  C   UNL     1      -1.243  -6.641   3.586  0.00  0.00    +0.032 C 
ATOM     11  C   UNL     1      -1.058  -8.055   3.037  0.00  0.00    +0.005 C 
ATOM     12  C   UNL     1       0.247  -8.647   3.578  0.00  0.00    +0.005 C 
ATOM     13  C   UNL     1       1.416  -7.906   2.935  0.00  0.00    +0.042 C 
BRANCH   5  15
ATOM     14  N   UNL     1      -1.229  -2.618   2.027  0.00  0.00    -0.313 N 
ATOM     15  C   UNL     1      -0.599  -3.810   2.050  0.00  0.00    +0.223 C 
ATOM     16  O   UNL     1      -0.516  -4.472   1.038  0.00  0.00    -0.275 OA
ATOM     17  H   UNL     1      -1.233  -2.056   2.818  0.00  0.00    +0.149 HD
BRANCH  14  18
ATOM     18  C   UNL     1      -1.909  -2.173   0.808  0.00  0.00    +0.132 C 
BRANCH  18  19
ATOM     19  C   UNL     1      -2.643  -0.859   1.085  0.00  0.00    +0.178 C 
BRANCH  19  21
ATOM     20  C   UNL     1      -2.282   1.402   1.795  0.00  0.00    +0.194 C 
ATOM     21  O   UNL     1      -1.693   0.158   1.410  0.00  0.00    -0.381 OA
ENDBRANCH  19  21
ENDBRANCH  18  19
ENDBRANCH  14  18
ENDBRANCH   5  15
ENDBRANCH   1   6
BRANCH   2  22
ATOM     22  C   UNL     1       2.265  -0.151   2.453  0.00  0.00    +0.324 C 
BRANCH  22  23
ATOM     23  O   UNL     1       3.023   0.810   3.189  0.00  0.00    -0.483 OA
BRANCH  23  24
ATOM     24  C   UNL     1       3.135   2.053   2.650  0.00  0.00    +0.120 C 
ATOM     25  C   UNL     1       2.451   2.329   1.522  0.00  0.00    +0.047 C 
ATOM     26  C   UNL     1       2.635   3.656   0.871  0.00  0.00    +0.137 C 
ATOM     27  C   UNL     1       3.080   4.671   1.902  0.00  0.00    -0.012 C 
ATOM     28  C   UNL     1       2.387   5.817   1.594  0.00  0.00    +0.003 A 
ATOM     29  C   UNL     1       2.470   7.134   2.101  0.00  0.00    +0.010 A 
ATOM     30  C   UNL     1       1.603   8.050   1.581  0.00  0.00    +0.001 A 
ATOM     31  C   UNL     1       0.667   7.745   0.595  0.00  0.00    +0.002 A 
ATOM     32  C   UNL     1       0.529   6.504   0.049  0.00  0.00    +0.026 A 
ATOM     33  C   UNL     1       1.401   5.490   0.529  0.00  0.00    +0.044 A 
ATOM     34  N   UNL     1       1.501   4.237   0.182  0.00  0.00    -0.374 N 
ATOM     35  C   UNL     1       3.876   4.333   2.993  0.00  0.00    +0.010 C 
ATOM     36  C   UNL     1       3.960   3.001   3.301  0.00  0.00    +0.046 C 
ATOM     37  H   UNL     1       0.915   3.777  -0.439  0.00  0.00    +0.161 HD
ENDBRANCH  23  24
ENDBRANCH  22  23
ENDBRANCH   2  22
TORSDOF 8
