REMARK  Name = ZINC14274204
REMARK  10 active torsions:
REMARK  status: ('A' for Active; 'I' for Inactive)
REMARK    1  A    between atoms: C_1  and  C_2
REMARK    2  A    between atoms: C_3  and  C_28
REMARK    3  A    between atoms: C_7  and  N_8
REMARK    4  A    between atoms: N_8  and  C_9
REMARK    5  A    between atoms: C_9  and  N_11
REMARK    6  A    between atoms: C_12  and  C_14
REMARK    7  A    between atoms: C_17  and  O_20
REMARK    8  A    between atoms: O_20  and  C_21
REMARK    9  A    between atoms: C_21  and  C_22
REMARK   10  A    between atoms: C_31  and  C_36
REMARK                            x       y       z     vdW  Elec       q    Type
REMARK                         _______ _______ _______ _____ _____    ______ ____
ROOT
ATOM      1  C   UNL     1      -5.912   3.534  -0.260  0.00  0.00    +0.141 C 
ATOM      2  S   UNL     1      -5.596   5.211  -0.131  0.00  0.00    -0.018 S 
ENDROOT
BRANCH   1   3
ATOM      3  N   UNL     1      -7.173   3.099  -0.457  0.00  0.00    -0.264 N 
ATOM      4  C   UNL     1      -8.184   3.985  -0.552  0.00  0.00    +0.250 C 
ATOM      5  O   UNL     1      -7.959   5.176  -0.461  0.00  0.00    -0.270 OA
ATOM      6  H   UNL     1      -7.352   2.149  -0.530  0.00  0.00    +0.157 HD
BRANCH   4   7
ATOM      7  C   UNL     1      -9.564   3.510  -0.768  0.00  0.00    +0.037 A 
ATOM      8  C   UNL     1      -9.823   2.141  -0.880  0.00  0.00    +0.016 A 
ATOM      9  C   UNL     1     -11.113   1.701  -1.076  0.00  0.00    +0.046 A 
ATOM     10  C   UNL     1     -12.155   2.616  -1.174  0.00  0.00    +0.121 A 
ATOM     11  C   UNL     1     -11.900   3.978  -1.069  0.00  0.00    +0.046 A 
ATOM     12  C   UNL     1     -10.614   4.427  -0.867  0.00  0.00    +0.016 A 
BRANCH  10  13
ATOM     13  O   UNL     1     -13.424   2.178  -1.373  0.00  0.00    -0.487 OA
BRANCH  13  14
ATOM     14  C   UNL     1     -13.615   0.766  -1.472  0.00  0.00    +0.264 C 
BRANCH  14  15
ATOM     15  C   UNL     1     -15.077   0.470  -1.690  0.00  0.00    -0.010 A 
ATOM     16  C   UNL     1     -15.910   0.269  -0.606  0.00  0.00    +0.007 A 
ATOM     17  C   UNL     1     -17.252   0.003  -0.805  0.00  0.00    +0.000 A 
ATOM     18  C   UNL     1     -17.758  -0.071  -2.090  0.00  0.00    +0.000 A 
ATOM     19  C   UNL     1     -16.923   0.125  -3.174  0.00  0.00    +0.000 A 
ATOM     20  C   UNL     1     -15.583   0.396  -2.974  0.00  0.00    +0.007 A 
ENDBRANCH  14  15
ENDBRANCH  13  14
ENDBRANCH  10  13
ENDBRANCH   4   7
ENDBRANCH   1   3
BRANCH   1  21
ATOM     21  N   UNL     1      -4.901   2.648  -0.165  0.00  0.00    -0.296 N 
ATOM     22  H   UNL     1      -5.088   1.696  -0.170  0.00  0.00    +0.154 HD
BRANCH  21  29
ATOM     23  C   UNL     1      -2.929   1.437  -1.817  0.00  0.00    +0.046 C 
ATOM     24  C   UNL     1      -2.590   2.538  -0.846  0.00  0.00    -0.020 A 
ATOM     25  C   UNL     1      -1.277   2.994  -0.736  0.00  0.00    +0.014 A 
ATOM     26  C   UNL     1      -0.969   4.008   0.170  0.00  0.00    +0.011 A 
ATOM     27  C   UNL     1      -1.964   4.567   0.946  0.00  0.00    +0.002 A 
ATOM     28  C   UNL     1      -3.266   4.116   0.838  0.00  0.00    +0.023 A 
ATOM     29  C   UNL     1      -3.582   3.101  -0.058  0.00  0.00    +0.036 A 
BRANCH  25  30
ATOM     30  C   UNL     1      -0.212   2.397  -1.574  0.00  0.00    +0.133 A 
ATOM     31  N   UNL     1       0.041   1.135  -1.806  0.00  0.00    -0.156 NA
ATOM     32  N   UNL     1       1.096   0.752  -2.623  0.00  0.00    -0.190 N 
ATOM     33  C   UNL     1       1.689  -0.395  -3.111  0.00  0.00    +0.153 A 
ATOM     34  N   UNL     1       2.691  -0.041  -3.865  0.00  0.00    -0.132 NA
ATOM     35  N   UNL     1       2.788   1.242  -3.899  0.00  0.00    -0.120 NA
ATOM     36  C   UNL     1       1.850   1.764  -3.167  0.00  0.00    +0.218 A 
ATOM     37  S   UNL     1       1.062   3.217  -2.520  0.00  0.00    -0.026 S 
ATOM     38  C   UNL     1       1.253  -1.808  -2.822  0.00  0.00    +0.090 C 
ENDBRANCH  25  30
ENDBRANCH  21  29
ENDBRANCH   1  21
TORSDOF 8
