REMARK  Name = ZINC02132200
REMARK  8 active torsions:
REMARK  status: ('A' for Active; 'I' for Inactive)
REMARK    1  A    between atoms: C_1  and  C_2
REMARK    2  A    between atoms: C_5  and  N_8
REMARK    3  A    between atoms: C_9  and  O_39
REMARK    4  A    between atoms: C_10  and  C_23
REMARK    5  A    between atoms: N_13  and  C_16
REMARK    6  A    between atoms: C_19  and  C_22
REMARK    7  A    between atoms: C_29  and  O_35
REMARK    8  A    between atoms: O_35  and  C_36
REMARK                            x       y       z     vdW  Elec       q    Type
REMARK                         _______ _______ _______ _____ _____    ______ ____
ROOT
ATOM      1  N   UNL     1       2.823   0.867  -0.469  0.00  0.00    -0.232 N 
ATOM      2  C   UNL     1       1.565   1.353  -0.732  0.00  0.00    +0.208 A 
ATOM      3  C   UNL     1       1.215   2.589  -0.275  0.00  0.00    +0.069 A 
ATOM      4  C   UNL     1       2.149   3.333   0.468  0.00  0.00    +0.267 A 
ATOM      5  O   UNL     1       1.856   4.438   0.891  0.00  0.00    -0.267 OA
ATOM      6  N   UNL     1       3.372   2.819   0.703  0.00  0.00    -0.228 N 
ATOM      7  C   UNL     1       3.702   1.600   0.239  0.00  0.00    +0.344 A 
ATOM      8  O   UNL     1       4.811   1.153   0.464  0.00  0.00    -0.245 OA
ENDROOT
BRANCH   3   9
ATOM      9  C   UNL     1      -0.156   3.147  -0.556  0.00  0.00    +0.018 C 
ATOM     10  C   UNL     1      -0.036   4.370  -1.434  0.00  0.00    +0.011 A 
ATOM     11  C   UNL     1      -0.740   5.505  -1.217  0.00  0.00    -0.022 A 
ATOM     12  C   UNL     1      -0.364   6.445  -2.248  0.00  0.00    +0.006 A 
ATOM     13  C   UNL     1      -0.758   7.758  -2.526  0.00  0.00    +0.056 A 
ATOM     14  C   UNL     1      -0.173   8.367  -3.627  0.00  0.00    +0.121 A 
ATOM     15  C   UNL     1       0.760   7.708  -4.419  0.00  0.00    +0.047 A 
ATOM     16  C   UNL     1       1.162   6.410  -4.159  0.00  0.00    +0.030 A 
ATOM     17  C   UNL     1       0.590   5.776  -3.058  0.00  0.00    +0.047 A 
ATOM     18  N   UNL     1       0.762   4.524  -2.534  0.00  0.00    -0.359 N 
ATOM     19  H   UNL     1       1.359   3.847  -2.890  0.00  0.00    +0.166 HD
ATOM     20  C   UNL     1      -1.722   5.671  -0.084  0.00  0.00    +0.018 C 
ATOM     21  C   UNL     1      -2.048   4.277   0.469  0.00  0.00    -0.076 C 
ATOM     22  N   UNL     1      -0.796   3.533   0.721  0.00  0.00    +0.388 N 
ATOM     23  H   UNL     1      -0.152   4.128   1.255  0.00  0.00    -0.084 HD
ATOM     24  H   UNL     1      -1.009   2.687   1.262  0.00  0.00    -0.084 HD
BRANCH  14  25
ATOM     25  O   UNL     1      -0.523   9.643  -3.940  0.00  0.00    -0.495 OA
ATOM     26  C   UNL     1       0.107  10.226  -5.083  0.00  0.00    +0.277 C 
ENDBRANCH  14  25
ENDBRANCH   3   9
BRANCH   1  31
ATOM     27  C   UNL     1       4.320  -4.263  -2.380  0.00  0.00    +0.044 C 
ATOM     28  C   UNL     1       3.922  -2.900  -1.872  0.00  0.00    -0.050 A 
ATOM     29  C   UNL     1       3.391  -2.765  -0.603  0.00  0.00    +0.005 A 
ATOM     30  C   UNL     1       3.026  -1.518  -0.135  0.00  0.00    +0.026 A 
ATOM     31  C   UNL     1       3.193  -0.400  -0.940  0.00  0.00    +0.054 A 
ATOM     32  C   UNL     1       3.721  -0.539  -2.217  0.00  0.00    +0.026 A 
ATOM     33  C   UNL     1       4.090  -1.788  -2.677  0.00  0.00    +0.005 A 
ENDBRANCH   1  31
BRANCH   6  34
ATOM     34  C   UNL     1       4.308   3.560   1.438  0.00  0.00    +0.054 A 
ATOM     35  C   UNL     1       5.200   4.398   0.783  0.00  0.00    +0.026 A 
ATOM     36  C   UNL     1       6.117   5.131   1.510  0.00  0.00    +0.005 A 
ATOM     37  C   UNL     1       6.155   5.022   2.888  0.00  0.00    -0.050 A 
ATOM     38  C   UNL     1       5.271   4.184   3.543  0.00  0.00    +0.005 A 
ATOM     39  C   UNL     1       4.348   3.453   2.822  0.00  0.00    +0.026 A 
ATOM     40  C   UNL     1       7.162   5.819   3.678  0.00  0.00    +0.044 C 
ENDBRANCH   6  34
BRANCH   2  41
ATOM     41  O   UNL     1       0.686   0.616  -1.443  0.00  0.00    -0.493 OA
ATOM     42  H   UNL     1       1.030  -0.242  -1.726  0.00  0.00    +0.294 HD
ENDBRANCH   2  41
TORSDOF 5
