REMARK  Name = ZINC20557942
REMARK  5 active torsions:
REMARK  status: ('A' for Active; 'I' for Inactive)
REMARK    1  A    between atoms: C_1  and  C_2
REMARK    2  A    between atoms: C_7  and  S_8
REMARK    3  A    between atoms: S_8  and  N_11
REMARK    4  A    between atoms: N_11  and  C_12
REMARK    5  A    between atoms: C_16  and  C_18
REMARK                            x       y       z     vdW  Elec       q    Type
REMARK                         _______ _______ _______ _____ _____    ______ ____
ROOT
ATOM      1  C   UNL     1      -0.018   1.503   0.010  0.00  0.00    +0.046 C 
ATOM      2  C   UNL     1       0.002  -0.004   0.002  0.00  0.00    -0.022 A 
ATOM      3  C   UNL     1       0.006  -0.685  -1.198  0.00  0.00    +0.033 A 
ATOM      4  C   UNL     1       0.025  -2.075  -1.210  0.00  0.00    +0.066 A 
ATOM      5  C   UNL     1       0.040  -2.777  -0.003  0.00  0.00    +0.068 A 
ATOM      6  C   UNL     1       0.036  -2.080   1.200  0.00  0.00    +0.057 A 
ATOM      7  C   UNL     1       0.023  -0.700   1.199  0.00  0.00    +0.115 A 
ATOM      8  N   UNL     1       0.058  -4.169   0.006  0.00  0.00    -0.316 N 
ATOM      9  H   UNL     1       0.068  -4.647   0.850  0.00  0.00    +0.169 HD
ATOM     10  C   UNL     1       0.062  -4.853  -1.156  0.00  0.00    +0.314 A 
ATOM     11  O   UNL     1       0.077  -6.067  -1.153  0.00  0.00    -0.262 OA
ATOM     12  C   UNL     1       0.046  -4.103  -2.445  0.00  0.00    +0.314 A 
ATOM     13  O   UNL     1       0.049  -4.701  -3.502  0.00  0.00    -0.262 OA
ATOM     14  N   UNL     1       0.028  -2.755  -2.425  0.00  0.00    -0.316 N 
ATOM     15  H   UNL     1       0.017  -2.258  -3.258  0.00  0.00    +0.169 HD
ENDROOT
BRANCH   7  16
ATOM     16  S   UNL     1       0.025   0.179   2.725  0.00  0.00    +0.092 S 
ATOM     17  O   UNL     1      -1.014   1.144   2.640  0.00  0.00    -0.148 OA
ATOM     18  O   UNL     1       0.075  -0.797   3.756  0.00  0.00    -0.148 OA
BRANCH  16  19
ATOM     19  N   UNL     1       1.449   1.022   2.803  0.00  0.00    -0.098 NA
BRANCH  19  20
ATOM     20  C   UNL     1       1.729   1.820   3.916  0.00  0.00    +0.075 A 
ATOM     21  C   UNL     1       0.817   1.901   4.961  0.00  0.00    +0.028 A 
ATOM     22  C   UNL     1       1.097   2.689   6.059  0.00  0.00    +0.022 A 
ATOM     23  C   UNL     1       2.285   3.398   6.120  0.00  0.00    +0.053 A 
ATOM     24  C   UNL     1       3.195   3.318   5.081  0.00  0.00    +0.075 A 
ATOM     25  C   UNL     1       2.922   2.527   3.982  0.00  0.00    +0.040 A 
ATOM     26 CL   UNL     1       2.633   4.388   7.503  0.00  0.00    -0.083 Cl
BRANCH  24  27
ATOM     27  C   UNL     1       4.486   4.091   5.151  0.00  0.00    +0.419 C 
ATOM     28  F   UNL     1       5.235   3.853   3.993  0.00  0.00    -0.166 F 
ATOM     29  F   UNL     1       4.207   5.458   5.252  0.00  0.00    -0.166 F 
ATOM     30  F   UNL     1       5.216   3.679   6.271  0.00  0.00    -0.166 F 
ENDBRANCH  24  27
ENDBRANCH  19  20
ENDBRANCH  16  19
ENDBRANCH   7  16
TORSDOF 4
