REMARK  Name = ZINC12181507
REMARK  5 active torsions:
REMARK  status: ('A' for Active; 'I' for Inactive)
REMARK    1  A    between atoms: C_1  and  C_2
REMARK    2  A    between atoms: C_2  and  C_4
REMARK    3  A    between atoms: C_2  and  N_15
REMARK    4  A    between atoms: C_18  and  N_27
REMARK    5  A    between atoms: C_20  and  C_22
REMARK                            x       y       z     vdW  Elec       q    Type
REMARK                         _______ _______ _______ _____ _____    ______ ____
ROOT
ATOM      1  N   UNL     1      -1.533  -0.546  -0.019  0.00  0.00    -0.216 N 
ATOM      2  C   UNL     1      -1.963  -1.230  -1.098  0.00  0.00    +0.289 A 
ATOM      3  O   UNL     1      -1.222  -1.401  -2.052  0.00  0.00    -0.264 OA
ATOM      4  C   UNL     1      -3.281  -1.755  -1.114  0.00  0.00    +0.094 A 
ATOM      5  C   UNL     1      -4.094  -1.547  -0.038  0.00  0.00    +0.061 A 
ATOM      6  C   UNL     1      -3.610  -0.821   1.071  0.00  0.00    +0.128 A 
ATOM      7  N   UNL     1      -2.383  -0.344   1.074  0.00  0.00    -0.164 NA
ENDROOT
BRANCH   6   8
ATOM      8  C   UNL     1      -4.488  -0.594   2.238  0.00  0.00    +0.155 A 
ATOM      9  C   UNL     1      -4.152   0.080   3.371  0.00  0.00    +0.051 A 
ATOM     10  C   UNL     1      -5.284   0.054   4.210  0.00  0.00    +0.042 A 
ATOM     11  C   UNL     1      -6.242  -0.634   3.558  0.00  0.00    +0.196 A 
ATOM     12  O   UNL     1      -5.758  -1.024   2.368  0.00  0.00    -0.461 OA
ENDBRANCH   6   8
BRANCH   4  13
ATOM     13  N   UNL     1      -3.742  -2.470  -2.219  0.00  0.00    -0.354 N 
ATOM     14  H   UNL     1      -4.645  -2.823  -2.226  0.00  0.00    +0.142 HD
ATOM     15  H   UNL     1      -3.159  -2.615  -2.981  0.00  0.00    +0.142 HD
ENDBRANCH   4  13
BRANCH   1  17
ATOM     16  C   UNL     1       0.593  -0.607   1.188  0.00  0.00    +0.043 C 
ATOM     17  C   UNL     1      -0.172  -0.006   0.007  0.00  0.00    +0.194 C 
BRANCH  17  18
ATOM     18  C   UNL     1      -0.228   1.492   0.155  0.00  0.00    +0.244 C 
ATOM     19  O   UNL     1      -1.182   2.013   0.693  0.00  0.00    -0.273 OA
ATOM     20  N   UNL     1       0.778   2.255  -0.317  0.00  0.00    -0.269 N 
ATOM     21  C   UNL     1       1.927   1.753  -1.076  0.00  0.00    +0.118 C 
ATOM     22  C   UNL     1       2.782   2.994  -1.381  0.00  0.00    +0.056 C 
ATOM     23  C   UNL     1       2.026   4.142  -0.750  0.00  0.00    -0.024 A 
ATOM     24  C   UNL     1       0.877   3.640  -0.158  0.00  0.00    +0.040 A 
ATOM     25  C   UNL     1       0.014   4.519   0.499  0.00  0.00    +0.024 A 
ATOM     26  C   UNL     1       0.299   5.867   0.547  0.00  0.00    +0.002 A 
ATOM     27  C   UNL     1       1.444   6.358  -0.051  0.00  0.00    +0.000 A 
ATOM     28  C   UNL     1       2.307   5.493  -0.699  0.00  0.00    +0.005 A 
ENDBRANCH  17  18
ENDBRANCH   1  17
TORSDOF 4
