REMARK  Name = ZINC63161568
REMARK  5 active torsions:
REMARK  status: ('A' for Active; 'I' for Inactive)
REMARK    1  A    between atoms: C_4  and  N_24
REMARK    2  A    between atoms: C_6  and  C_7
REMARK    3  A    between atoms: C_7  and  N_8
REMARK    4  A    between atoms: N_11  and  C_12
REMARK    5  A    between atoms: C_14  and  C_20
REMARK                            x       y       z     vdW  Elec       q    Type
REMARK                         _______ _______ _______ _____ _____    ______ ____
ROOT
ATOM      1  N   UNL     1      -1.741  -0.887  -1.484  0.00  0.00    -0.295 N 
ATOM      2  C   UNL     1      -2.865  -1.583  -1.743  0.00  0.00    +0.304 C 
ATOM      3  O   UNL     1      -3.625  -1.869  -0.838  0.00  0.00    -0.252 OA
ATOM      4  N   UNL     1      -3.148  -1.963  -3.005  0.00  0.00    -0.265 N 
ATOM      5  H   UNL     1      -1.135  -0.659  -2.207  0.00  0.00    +0.151 HD
ATOM      6  H   UNL     1      -2.509  -1.798  -3.716  0.00  0.00    +0.157 HD
ENDROOT
BRANCH   4   7
ATOM      7  C   UNL     1      -4.365  -2.597  -3.291  0.00  0.00    +0.100 A 
ATOM      8  C   UNL     1      -5.237  -2.049  -4.191  0.00  0.00    +0.042 A 
ATOM      9  C   UNL     1      -6.447  -2.704  -4.459  0.00  0.00    +0.073 A 
ATOM     10  C   UNL     1      -6.742  -3.865  -3.829  0.00  0.00    +0.098 A 
ATOM     11  N   UNL     1      -5.878  -4.411  -2.933  0.00  0.00    -0.327 N 
ATOM     12  H   UNL     1      -6.107  -5.244  -2.492  0.00  0.00    +0.168 HD
ATOM     13  C   UNL     1      -4.704  -3.812  -2.656  0.00  0.00    +0.270 A 
ATOM     14  O   UNL     1      -3.935  -4.317  -1.854  0.00  0.00    -0.266 OA
BRANCH   9  15
ATOM     15  C   UNL     1      -7.420  -2.115  -5.447  0.00  0.00    +0.419 C 
ATOM     16  F   UNL     1      -8.544  -2.942  -5.545  0.00  0.00    -0.166 F 
ATOM     17  F   UNL     1      -7.812  -0.844  -5.015  0.00  0.00    -0.166 F 
ATOM     18  F   UNL     1      -6.807  -2.013  -6.700  0.00  0.00    -0.166 F 
ENDBRANCH   9  15
ENDBRANCH   4   7
BRANCH   1  19
ATOM     19  C   UNL     1      -1.434  -0.474  -0.113  0.00  0.00    +0.141 C 
BRANCH  19  25
ATOM     20  C   UNL     1      -0.110   1.662  -0.263  0.00  0.00    +0.023 A 
ATOM     21  C   UNL     1       1.100   2.327  -0.242  0.00  0.00    +0.084 A 
ATOM     22  N   UNL     1       2.230   1.669  -0.066  0.00  0.00    -0.350 N 
ATOM     23  C   UNL     1       2.252   0.355   0.097  0.00  0.00    +0.099 A 
ATOM     24  C   UNL     1       1.070  -0.378   0.086  0.00  0.00    +0.047 A 
ATOM     25  C   UNL     1      -0.131   0.284  -0.096  0.00  0.00    -0.026 A 
ATOM     26  H   UNL     1       3.067   2.161  -0.055  0.00  0.00    +0.166 HD
BRANCH  23  27
ATOM     27  N   UNL     1       3.466  -0.297   0.279  0.00  0.00    -0.317 N 
ATOM     28  C   UNL     1       4.734   0.436   0.163  0.00  0.00    +0.106 C 
ATOM     29  C   UNL     1       5.554   0.205   1.436  0.00  0.00    +0.019 C 
ATOM     30  C   UNL     1       5.716  -1.299   1.668  0.00  0.00    +0.003 C 
ATOM     31  C   UNL     1       4.339  -1.939   1.858  0.00  0.00    +0.019 C 
ATOM     32  C   UNL     1       3.505  -1.731   0.596  0.00  0.00    +0.106 C 
ENDBRANCH  23  27
ENDBRANCH  19  25
ENDBRANCH   1  19
TORSDOF 5
