REMARK  Name = ZINC39290068
REMARK  6 active torsions:
REMARK  status: ('A' for Active; 'I' for Inactive)
REMARK    1  A    between atoms: C_4  and  N_7
REMARK    2  A    between atoms: N_7  and  C_8
REMARK    3  A    between atoms: C_10  and  C_25
REMARK    4  A    between atoms: C_11  and  N_24
REMARK    5  A    between atoms: C_12  and  C_15
REMARK    6  A    between atoms: C_15  and  C_17
REMARK                            x       y       z     vdW  Elec       q    Type
REMARK                         _______ _______ _______ _____ _____    ______ ____
ROOT
ATOM      1  C   UNL     1       4.532  -2.120   0.648  0.00  0.00    +0.146 C 
ATOM      2  C   UNL     1       5.033  -2.658  -0.716  0.00  0.00    +0.107 C 
ATOM      3  C   UNL     1       4.411  -3.980  -1.032  0.00  0.00    +0.028 C 
ATOM      4  C   UNL     1       3.282  -4.346  -0.380  0.00  0.00    +0.074 C 
ATOM      5  S   UNL     1       2.921  -3.009   0.746  0.00  0.00    -0.097 S 
ENDROOT
BRANCH   2   6
ATOM      6  C   UNL     1       6.554  -2.817  -0.666  0.00  0.00    +0.185 C 
ATOM      7  N   UNL     1       7.183  -1.537  -0.319  0.00  0.00    -0.363 N 
ATOM      8  C   UNL     1       7.959  -1.202  -1.309  0.00  0.00    +0.060 A 
ATOM      9  C   UNL     1       8.836  -0.047  -1.544  0.00  0.00    +0.027 A 
ATOM     10  C   UNL     1       9.537   0.033  -2.693  0.00  0.00    +0.002 A 
ATOM     11  C   UNL     1       9.467  -0.952  -3.694  0.00  0.00    +0.002 A 
ATOM     12  C   UNL     1       8.693  -2.051  -3.580  0.00  0.00    +0.027 A 
ATOM     13  C   UNL     1       7.885  -2.245  -2.369  0.00  0.00    +0.060 A 
ATOM     14  N   UNL     1       7.066  -3.185  -1.992  0.00  0.00    -0.363 N 
ATOM     15  H   UNL     1       7.046  -1.033   0.498  0.00  0.00    +0.162 HD
ATOM     16  H   UNL     1       6.837  -3.982  -2.495  0.00  0.00    +0.162 HD
ENDBRANCH   2   6
BRANCH   3  18
ATOM     17  H   UNL     1       4.988  -5.769  -1.820  0.00  0.00    +0.142 HD
ATOM     18  N   UNL     1       4.975  -4.810  -1.967  0.00  0.00    -0.360 N 
ATOM     19  H   UNL     1       5.361  -4.438  -2.776  0.00  0.00    +0.142 HD
ENDBRANCH   3  18
BRANCH   1  20
ATOM     20  N   UNL     1       4.340  -0.668   0.614  0.00  0.00    -0.331 N 
ATOM     21  H   UNL     1       4.944  -0.112   0.098  0.00  0.00    +0.147 HD
BRANCH  20  25
ATOM     22  C   UNL     1       1.204   1.069   2.731  0.00  0.00    +0.000 A 
ATOM     23  C   UNL     1       1.775  -0.106   3.184  0.00  0.00    +0.002 A 
ATOM     24  C   UNL     1       2.815  -0.685   2.484  0.00  0.00    +0.023 A 
ATOM     25  C   UNL     1       3.288  -0.086   1.324  0.00  0.00    +0.028 A 
ATOM     26  C   UNL     1       2.713   1.095   0.872  0.00  0.00    +0.023 A 
ATOM     27  C   UNL     1       1.673   1.669   1.577  0.00  0.00    +0.002 A 
ENDBRANCH  20  25
ENDBRANCH   1  20
BRANCH   4  28
ATOM     28  C   UNL     1       2.542  -5.540  -0.554  0.00  0.00    +0.201 C 
ATOM     29  O   UNL     1       2.962  -6.416  -1.290  0.00  0.00    -0.286 OA
BRANCH  28  30
ATOM     30  C   UNL     1       1.258  -5.725   0.156  0.00  0.00    +0.023 A 
ATOM     31  C   UNL     1       0.518  -4.614   0.567  0.00  0.00    +0.013 A 
ATOM     32  C   UNL     1      -0.678  -4.793   1.229  0.00  0.00    +0.021 A 
ATOM     33  C   UNL     1      -1.146  -6.071   1.486  0.00  0.00    +0.041 A 
ATOM     34  C   UNL     1      -0.416  -7.176   1.082  0.00  0.00    +0.021 A 
ATOM     35  C   UNL     1       0.778  -7.011   0.414  0.00  0.00    +0.013 A 
ATOM     36 CL   UNL     1      -2.653  -6.288   2.321  0.00  0.00    -0.084 Cl
ENDBRANCH  28  30
ENDBRANCH   4  28
TORSDOF 6
