REMARK  Name = ZINC63663707
REMARK  5 active torsions:
REMARK  status: ('A' for Active; 'I' for Inactive)
REMARK    1  A    between atoms: C_14  and  C_15
REMARK    2  A    between atoms: C_15  and  N_16
REMARK    3  A    between atoms: N_16  and  C_17
REMARK    4  A    between atoms: C_17  and  N_19
REMARK    5  A    between atoms: N_19  and  C_20
REMARK                            x       y       z     vdW  Elec       q    Type
REMARK                         _______ _______ _______ _____ _____    ______ ____
ROOT
ATOM      1  C   UNL     1      -0.017   1.397   0.010  0.00  0.00    +0.007 A 
ATOM      2  C   UNL     1       1.110   2.140   0.003  0.00  0.00    +0.026 A 
ATOM      3  C   UNL     1       2.386   1.515  -0.012  0.00  0.00    +0.043 A 
ATOM      4  N   UNL     1       3.602   2.011   0.001  0.00  0.00    -0.378 N 
ATOM      5  C   UNL     1       4.554   0.909  -0.109  0.00  0.00    +0.106 C 
ATOM      6  C   UNL     1       5.554   0.889   1.050  0.00  0.00    +0.029 C 
ATOM      7  C   UNL     1       6.315  -0.440   1.012  0.00  0.00    +0.003 C 
ATOM      8  C   UNL     1       5.381  -1.618   1.282  0.00  0.00    +0.004 C 
ATOM      9  C   UNL     1       4.333  -1.725   0.161  0.00  0.00    +0.033 C 
ATOM     10  C   UNL     1       3.718  -0.356  -0.015  0.00  0.00    -0.038 C 
ATOM     11  C   UNL     1       2.435   0.032  -0.013  0.00  0.00    -0.001 A 
ATOM     12  C   UNL     1       1.161  -0.700  -0.009  0.00  0.00    +0.015 A 
ATOM     13  C   UNL     1       0.002  -0.004   0.002  0.00  0.00    -0.030 A 
ATOM     14  H   UNL     1       3.830   2.952   0.071  0.00  0.00    +0.160 HD
ENDROOT
BRANCH  13  15
ATOM     15  C   UNL     1      -1.304  -0.755   0.006  0.00  0.00    +0.138 C 
BRANCH  15  16
ATOM     16  N   UNL     1      -1.736  -0.991  -1.373  0.00  0.00    -0.322 N 
ATOM     17  H   UNL     1      -1.195  -0.673  -2.112  0.00  0.00    +0.148 HD
BRANCH  16  18
ATOM     18  C   UNL     1      -2.887  -1.651  -1.616  0.00  0.00    +0.131 C 
ATOM     19  S   UNL     1      -3.843  -2.212  -0.312  0.00  0.00    -0.019 S 
BRANCH  18  20
ATOM     20  N   UNL     1      -3.284  -1.868  -2.885  0.00  0.00    -0.324 N 
ATOM     21  H   UNL     1      -2.742  -1.550  -3.624  0.00  0.00    +0.148 HD
BRANCH  20  22
ATOM     22  C   UNL     1      -4.534  -2.584  -3.149  0.00  0.00    +0.072 C 
ATOM     23  C   UNL     1      -4.272  -4.092  -3.128  0.00  0.00    +0.022 C 
ATOM     24  C   UNL     1      -5.578  -4.840  -3.404  0.00  0.00    +0.002 C 
ATOM     25  C   UNL     1      -6.118  -4.435  -4.777  0.00  0.00    +0.000 C 
ATOM     26  C   UNL     1      -6.380  -2.928  -4.797  0.00  0.00    +0.002 C 
ATOM     27  C   UNL     1      -5.075  -2.179  -4.522  0.00  0.00    +0.022 C 
ENDBRANCH  20  22
ENDBRANCH  18  20
ENDBRANCH  16  18
ENDBRANCH  15  16
ENDBRANCH  13  15
TORSDOF 5
