REMARK  Name = ZINC01470806
REMARK  8 active torsions:
REMARK  status: ('A' for Active; 'I' for Inactive)
REMARK    1  A    between atoms: C_1  and  C_2
REMARK    2  A    between atoms: C_2  and  O_3
REMARK    3  A    between atoms: O_3  and  C_4
REMARK    4  A    between atoms: C_4  and  C_6
REMARK    5  A    between atoms: C_6  and  N_7
REMARK    6  A    between atoms: C_8  and  C_27
REMARK    7  A    between atoms: C_17  and  C_19
REMARK    8  A    between atoms: C_22  and  O_25
REMARK                            x       y       z     vdW  Elec       q    Type
REMARK                         _______ _______ _______ _____ _____    ______ ____
ROOT
ATOM      1  N   UNL     1       1.494  -3.799  -2.611  0.00  0.00    +0.409 N 
ATOM      2  C   UNL     1       2.329  -4.271  -3.720  0.00  0.00    -0.001 C 
ATOM      3  C   UNL     1       1.734  -3.862  -5.041  0.00  0.00    -0.035 A 
ATOM      4  C   UNL     1       2.537  -3.802  -6.165  0.00  0.00    +0.019 A 
ATOM      5  C   UNL     1       1.999  -3.429  -7.383  0.00  0.00    +0.018 A 
ATOM      6  C   UNL     1       0.656  -3.114  -7.485  0.00  0.00    +0.017 A 
ATOM      7  C   UNL     1      -0.152  -3.170  -6.366  0.00  0.00    +0.024 A 
ATOM      8  C   UNL     1       0.387  -3.544  -5.143  0.00  0.00    +0.028 A 
ATOM      9  N   UNL     1      -0.427  -3.600  -4.004  0.00  0.00    -0.353 N 
ATOM     10  C   UNL     1       0.110  -4.261  -2.805  0.00  0.00    +0.049 C 
ATOM     11 BR   UNL     1       3.104  -3.350  -8.916  0.00  0.00    -0.050 Br
ATOM     12  H   UNL     1      -1.317  -3.215  -4.006  0.00  0.00    +0.145 HD
ATOM     13  H   UNL     1       1.851  -4.166  -1.741  0.00  0.00    -0.076 HD
ENDROOT
BRANCH  10  14
ATOM     14  C   UNL     1      -0.723  -3.893  -1.604  0.00  0.00    -0.044 A 
ATOM     15  C   UNL     1      -0.157  -3.899  -0.343  0.00  0.00    +0.007 A 
ATOM     16  C   UNL     1      -0.918  -3.563   0.759  0.00  0.00    +0.045 A 
ATOM     17  C   UNL     1      -2.253  -3.218   0.600  0.00  0.00    +0.117 A 
ATOM     18  C   UNL     1      -2.819  -3.212  -0.667  0.00  0.00    +0.045 A 
ATOM     19  C   UNL     1      -2.051  -3.545  -1.766  0.00  0.00    +0.007 A 
BRANCH  17  20
ATOM     20  O   UNL     1      -3.004  -2.887   1.683  0.00  0.00    -0.507 OA
ATOM     21  H   UNL     1      -2.991  -1.944   1.897  0.00  0.00    +0.292 HD
ENDBRANCH  17  20
ENDBRANCH  10  14
BRANCH   2  22
ATOM     22  C   UNL     1       2.428  -5.774  -3.664  0.00  0.00    -0.057 A 
ATOM     23  C   UNL     1       2.091  -6.530  -4.771  0.00  0.00    +0.002 A 
ATOM     24  C   UNL     1       2.182  -7.909  -4.720  0.00  0.00    +0.000 A 
ATOM     25  C   UNL     1       2.609  -8.530  -3.561  0.00  0.00    +0.000 A 
ATOM     26  C   UNL     1       2.946  -7.774  -2.454  0.00  0.00    +0.000 A 
ATOM     27  C   UNL     1       2.860  -6.395  -2.507  0.00  0.00    +0.002 A 
ENDBRANCH   2  22
BRANCH   1  28
ATOM     28  C   UNL     1       1.518  -2.331  -2.570  0.00  0.00    +0.048 C 
BRANCH  28  29
ATOM     29  C   UNL     1       2.903  -1.862  -2.205  0.00  0.00    +0.290 C 
ATOM     30  O   UNL     1       3.751  -2.664  -1.894  0.00  0.00    -0.253 OA
BRANCH  29  31
ATOM     31  O   UNL     1       3.194  -0.551  -2.224  0.00  0.00    -0.466 OA
BRANCH  31  33
ATOM     32  C   UNL     1       4.668   1.343  -1.947  0.00  0.00    +0.048 C 
ATOM     33  C   UNL     1       4.526  -0.178  -1.867  0.00  0.00    +0.228 C 
ENDBRANCH  31  33
ENDBRANCH  29  31
ENDBRANCH  28  29
ENDBRANCH   1  28
TORSDOF 7
