REMARK  Name = ZINC39677948
REMARK  11 active torsions:
REMARK  status: ('A' for Active; 'I' for Inactive)
REMARK    1  A    between atoms: C_1  and  C_2
REMARK    2  A    between atoms: C_2  and  C_3
REMARK    3  A    between atoms: C_3  and  C_4
REMARK    4  A    between atoms: C_4  and  C_5
REMARK    5  A    between atoms: C_5  and  C_7
REMARK    6  A    between atoms: C_5  and  C_8
REMARK    7  A    between atoms: C_12  and  C_21
REMARK    8  A    between atoms: N_23  and  C_24
REMARK    9  A    between atoms: C_24  and  C_25
REMARK   10  A    between atoms: N_28  and  C_32
REMARK   11  A    between atoms: C_32  and  C_33
REMARK                            x       y       z     vdW  Elec       q    Type
REMARK                         _______ _______ _______ _____ _____    ______ ____
ROOT
ATOM      1  C   UNL     1      -2.990  -4.337   0.306  0.00  0.00    +0.218 C 
ATOM      2  O   UNL     1      -1.996  -4.999   0.522  0.00  0.00    -0.275 OA
ATOM      3  N   UNL     1      -4.179  -4.945   0.126  0.00  0.00    -0.300 N 
ATOM      4  C   UNL     1      -5.469  -4.323  -0.253  0.00  0.00    +0.121 C 
ATOM      5  C   UNL     1      -6.114  -5.326  -1.235  0.00  0.00    +0.100 C 
ATOM      6  C   UNL     1      -5.469  -6.680  -0.891  0.00  0.00    -0.004 C 
ATOM      7  C   UNL     1      -4.490  -6.389   0.255  0.00  0.00    +0.115 C 
ATOM      8  C   UNL     1      -6.535  -7.673  -0.438  0.00  0.00    -0.010 C 
ATOM      9  C   UNL     1      -5.878  -9.027  -0.158  0.00  0.00    -0.082 C 
ATOM     10  N   UNL     1      -5.215  -9.513  -1.374  0.00  0.00    +0.379 N 
ATOM     11  C   UNL     1      -4.130  -8.599  -1.751  0.00  0.00    -0.082 C 
ATOM     12  C   UNL     1      -4.713  -7.226  -2.099  0.00  0.00    -0.010 C 
ATOM     13  H   UNL     1      -4.836 -10.432  -1.205  0.00  0.00    -0.086 HD
ATOM     14  H   UNL     1      -5.888  -9.562  -2.125  0.00  0.00    -0.086 HD
ENDROOT
BRANCH   5  15
ATOM     15  C   UNL     1      -7.605  -5.384  -1.023  0.00  0.00    +0.218 C 
ATOM     16  O   UNL     1      -8.071  -5.159   0.073  0.00  0.00    -0.275 OA
ATOM     17  N   UNL     1      -8.420  -5.684  -2.053  0.00  0.00    -0.313 N 
ATOM     18  H   UNL     1      -8.047  -5.864  -2.931  0.00  0.00    +0.149 HD
BRANCH  17  19
ATOM     19  C   UNL     1      -9.870  -5.740  -1.848  0.00  0.00    +0.137 C 
BRANCH  19  20
ATOM     20  C   UNL     1     -10.558  -6.100  -3.166  0.00  0.00    +0.149 C 
ATOM     21  C   UNL     1     -12.077  -6.038  -2.983  0.00  0.00    +0.118 C 
ATOM     22  N   UNL     1     -12.733  -6.459  -4.229  0.00  0.00    -0.293 NA
ATOM     23  C   UNL     1     -12.325  -7.822  -4.599  0.00  0.00    +0.113 C 
ATOM     24  C   UNL     1     -10.803  -7.866  -4.766  0.00  0.00    +0.175 C 
ATOM     25  O   UNL     1     -10.182  -7.423  -3.556  0.00  0.00    -0.372 OA
BRANCH  22  26
ATOM     26  C   UNL     1     -14.194  -6.360  -4.114  0.00  0.00    +0.119 C 
BRANCH  26  27
ATOM     27  C   UNL     1     -14.819  -6.559  -5.471  0.00  0.00    -0.033 A 
ATOM     28  C   UNL     1     -15.037  -5.473  -6.298  0.00  0.00    +0.005 A 
ATOM     29  C   UNL     1     -15.611  -5.656  -7.543  0.00  0.00    +0.000 A 
ATOM     30  C   UNL     1     -15.966  -6.925  -7.960  0.00  0.00    +0.000 A 
ATOM     31  C   UNL     1     -15.747  -8.011  -7.134  0.00  0.00    +0.000 A 
ATOM     32  C   UNL     1     -15.170  -7.829  -5.891  0.00  0.00    +0.005 A 
ENDBRANCH  26  27
ENDBRANCH  22  26
ENDBRANCH  19  20
ENDBRANCH  17  19
ENDBRANCH   5  15
BRANCH   1  33
ATOM     33  C   UNL     1      -2.894  -2.834   0.241  0.00  0.00    +0.072 C 
ATOM     34  C   UNL     1      -2.587  -2.405  -1.195  0.00  0.00    +0.017 C 
BRANCH  33  35
ATOM     35  C   UNL     1      -1.776  -2.354   1.167  0.00  0.00    +0.012 C 
BRANCH  35  36
ATOM     36  C   UNL     1      -1.760  -0.824   1.196  0.00  0.00    +0.000 C 
BRANCH  36  38
ATOM     37  C   UNL     1      -0.626   1.187   2.152  0.00  0.00    +0.004 C 
ATOM     38  C   UNL     1      -0.642  -0.343   2.123  0.00  0.00    -0.003 C 
ENDBRANCH  36  38
ENDBRANCH  35  36
ENDBRANCH  33  35
ENDBRANCH   1  33
TORSDOF 9
