REMARK  Name = ZINC63113107
REMARK  9 active torsions:
REMARK  status: ('A' for Active; 'I' for Inactive)
REMARK    1  A    between atoms: C_1  and  C_2
REMARK    2  A    between atoms: C_2  and  O_3
REMARK    3  A    between atoms: O_3  and  C_4
REMARK    4  A    between atoms: C_9  and  S_14
REMARK    5  A    between atoms: S_14  and  C_15
REMARK    6  A    between atoms: C_15  and  C_16
REMARK    7  A    between atoms: N_18  and  C_19
REMARK    8  A    between atoms: C_25  and  O_29
REMARK    9  A    between atoms: O_29  and  C_30
REMARK                            x       y       z     vdW  Elec       q    Type
REMARK                         _______ _______ _______ _____ _____    ______ ____
ROOT
ATOM      1  C   UNL     1      -0.582  -5.823   4.481  0.00  0.00    +0.168 C 
ENDROOT
BRANCH   1   2
ATOM      2  C   UNL     1      -1.484  -6.438   5.520  0.00  0.00    +0.225 C 
ATOM      3  O   UNL     1      -1.117  -7.413   6.141  0.00  0.00    -0.275 OA
ATOM      4  N   UNL     1      -2.699  -5.906   5.758  0.00  0.00    -0.288 N 
ATOM      5  H   UNL     1      -2.993  -5.126   5.261  0.00  0.00    +0.151 HD
BRANCH   4   6
ATOM      6  C   UNL     1      -3.576  -6.504   6.768  0.00  0.00    +0.224 C 
ATOM      7  N   UNL     1      -4.716  -5.626   7.064  0.00  0.00    -0.316 N 
ATOM      8  C   UNL     1      -5.995  -6.115   6.787  0.00  0.00    +0.043 A 
ATOM      9  C   UNL     1      -7.200  -5.422   7.004  0.00  0.00    +0.027 A 
ATOM     10  C   UNL     1      -8.415  -5.990   6.699  0.00  0.00    +0.047 A 
ATOM     11  C   UNL     1      -8.493  -7.268   6.166  0.00  0.00    +0.121 A 
ATOM     12  C   UNL     1      -7.318  -7.974   5.941  0.00  0.00    +0.062 A 
ATOM     13  C   UNL     1      -6.105  -7.400   6.249  0.00  0.00    +0.035 A 
ATOM     14  S   UNL     1      -4.432  -7.989   6.104  0.00  0.00    -0.082 S 
ATOM     15  H   UNL     1      -4.586  -4.741   7.438  0.00  0.00    +0.149 HD
BRANCH  11  16
ATOM     16  O   UNL     1      -9.700  -7.820   5.868  0.00  0.00    -0.495 OA
ATOM     17  C   UNL     1     -10.859  -7.027   6.130  0.00  0.00    +0.277 C 
ENDBRANCH  11  16
ENDBRANCH   4   6
ENDBRANCH   1   2
BRANCH   1  18
ATOM     18  S   UNL     1       0.969  -6.760   4.396  0.00  0.00    -0.106 S 
BRANCH  18  24
ATOM     19  C   UNL     1       0.802  -1.821   1.305  0.00  0.00    +0.123 A 
ATOM     20  C   UNL     1       0.224  -2.693   0.290  0.00  0.00    +0.048 A 
ATOM     21  C   UNL     1       0.299  -4.034   0.378  0.00  0.00    +0.031 A 
ATOM     22  C   UNL     1       0.979  -4.654   1.525  0.00  0.00    +0.061 A 
ATOM     23  N   UNL     1       1.190  -5.897   1.851  0.00  0.00    -0.355 N 
ATOM     24  C   UNL     1       1.930  -5.903   3.119  0.00  0.00    +0.236 C 
ATOM     25  N   UNL     1       2.124  -4.496   3.491  0.00  0.00    -0.355 N 
ATOM     26  C   UNL     1       1.570  -3.766   2.562  0.00  0.00    +0.064 A 
ATOM     27  C   UNL     1       1.449  -2.317   2.388  0.00  0.00    +0.073 A 
ATOM     28  H   UNL     1       0.909  -6.677   1.348  0.00  0.00    +0.162 HD
ATOM     29  H   UNL     1       2.581  -4.170   4.282  0.00  0.00    +0.162 HD
BRANCH  19  30
ATOM     30  O   UNL     1       0.693  -0.477   1.160  0.00  0.00    -0.492 OA
BRANCH  30  32
ATOM     31  C   UNL     1      -0.019   1.526   0.010  0.00  0.00    +0.048 C 
ATOM     32  C   UNL     1       0.002  -0.004   0.002  0.00  0.00    +0.225 C 
ENDBRANCH  30  32
ENDBRANCH  19  30
ENDBRANCH  18  24
ENDBRANCH   1  18
TORSDOF 7
