REMARK  Name = ZINC44167152
REMARK  6 active torsions:
REMARK  status: ('A' for Active; 'I' for Inactive)
REMARK    1  A    between atoms: C_5  and  C_7
REMARK    2  A    between atoms: C_7  and  C_8
REMARK    3  A    between atoms: C_8  and  N_9
REMARK    4  A    between atoms: C_10  and  C_12
REMARK    5  A    between atoms: C_17  and  C_20
REMARK    6  A    between atoms: C_23  and  C_26
REMARK                            x       y       z     vdW  Elec       q    Type
REMARK                         _______ _______ _______ _____ _____    ______ ____
ROOT
ATOM      1  C   UNL     1       1.538  -6.353   2.551  0.00  0.00    +0.027 C 
ATOM      2  C   UNL     1       0.230  -6.877   1.947  0.00  0.00    +0.062 C 
ATOM      3  S   UNL     1       0.315  -8.694   1.889  0.00  0.00    -0.163 S 
ATOM      4  C   UNL     1       0.836  -9.122   3.580  0.00  0.00    +0.058 C 
ATOM      5  C   UNL     1       2.053  -8.263   3.940  0.00  0.00    -0.030 C 
ATOM      6  N   UNL     1       1.683  -6.846   3.923  0.00  0.00    +0.392 N 
ATOM      7  H   UNL     1       2.399  -6.312   4.392  0.00  0.00    -0.084 HD
ATOM      8  H   UNL     1       0.808  -6.725   4.411  0.00  0.00    -0.084 HD
ENDROOT
BRANCH   5   9
ATOM      9  C   UNL     1       2.539  -8.635   5.317  0.00  0.00    -0.061 A 
ATOM     10  C   UNL     1       1.894  -8.139   6.435  0.00  0.00    +0.002 A 
ATOM     11  C   UNL     1       2.340  -8.481   7.698  0.00  0.00    +0.012 A 
ATOM     12  C   UNL     1       3.430  -9.318   7.844  0.00  0.00    +0.055 A 
ATOM     13  C   UNL     1       4.075  -9.814   6.726  0.00  0.00    +0.012 A 
ATOM     14  C   UNL     1       3.626  -9.476   5.463  0.00  0.00    +0.002 A 
BRANCH  12  15
ATOM     15  C   UNL     1       3.917  -9.690   9.221  0.00  0.00    +0.417 C 
ATOM     16  F   UNL     1       3.264 -10.851   9.649  0.00  0.00    -0.166 F 
ATOM     17  F   UNL     1       5.296  -9.918   9.182  0.00  0.00    -0.166 F 
ATOM     18  F   UNL     1       3.642  -8.645  10.110  0.00  0.00    -0.166 F 
ENDBRANCH  12  15
ENDBRANCH   5   9
BRANCH   1  20
ATOM     19  N   UNL     1       1.395  -4.167   1.402  0.00  0.00    -0.316 N 
ATOM     20  C   UNL     1       1.518  -4.846   2.560  0.00  0.00    +0.200 C 
ATOM     21  O   UNL     1       1.612  -4.245   3.609  0.00  0.00    -0.278 OA
ATOM     22  H   UNL     1       1.320  -4.648   0.564  0.00  0.00    +0.149 HD
BRANCH  19  23
ATOM     23  C   UNL     1       1.376  -2.702   1.411  0.00  0.00    +0.109 C 
BRANCH  23  24
ATOM     24  C   UNL     1       1.229  -2.186  -0.022  0.00  0.00    +0.055 C 
BRANCH  24  29
ATOM     25  C   UNL     1      -0.017   1.378   0.010  0.00  0.00    +0.000 A 
ATOM     26  C   UNL     1       1.171   2.086   0.002  0.00  0.00    +0.001 A 
ATOM     27  C   UNL     1       2.377   1.412  -0.013  0.00  0.00    +0.020 A 
ATOM     28  C   UNL     1       2.397   0.029  -0.021  0.00  0.00    +0.044 A 
ATOM     29  C   UNL     1       1.208  -0.679  -0.013  0.00  0.00    -0.028 A 
ATOM     30  C   UNL     1       0.002  -0.004   0.002  0.00  0.00    +0.005 A 
ATOM     31 CL   UNL     1       3.912  -0.818  -0.041  0.00  0.00    -0.083 Cl
ENDBRANCH  24  29
ENDBRANCH  23  24
ENDBRANCH  19  23
ENDBRANCH   1  20
TORSDOF 6
