REMARK  Name = ZINC54753631
REMARK  11 active torsions:
REMARK  status: ('A' for Active; 'I' for Inactive)
REMARK    1  A    between atoms: C_1  and  C_2
REMARK    2  A    between atoms: N_5  and  C_8
REMARK    3  A    between atoms: C_8  and  C_10
REMARK    4  A    between atoms: C_8  and  C_25
REMARK    5  A    between atoms: C_10  and  N_11
REMARK    6  A    between atoms: N_14  and  C_15
REMARK    7  A    between atoms: C_15  and  C_16
REMARK    8  A    between atoms: C_16  and  C_17
REMARK    9  A    between atoms: N_19  and  C_20
REMARK   10  A    between atoms: C_25  and  C_26
REMARK   11  A    between atoms: C_25  and  C_27
REMARK                            x       y       z     vdW  Elec       q    Type
REMARK                         _______ _______ _______ _____ _____    ______ ____
ROOT
ATOM      1  N   UNL     1      -2.941  -3.970   0.395  0.00  0.00    -0.301 N 
ATOM      2  C   UNL     1      -4.232  -4.330   0.251  0.00  0.00    +0.300 C 
ATOM      3  O   UNL     1      -4.770  -5.017   1.098  0.00  0.00    -0.253 OA
ATOM      4  N   UNL     1      -4.927  -3.927  -0.831  0.00  0.00    -0.299 N 
ATOM      5  H   UNL     1      -2.512  -3.421  -0.280  0.00  0.00    +0.150 HD
ATOM      6  H   UNL     1      -4.498  -3.378  -1.506  0.00  0.00    +0.150 HD
ENDROOT
BRANCH   1   7
ATOM      7  C   UNL     1      -2.186  -4.408   1.572  0.00  0.00    +0.091 C 
BRANCH   7   8
ATOM      8  C   UNL     1      -0.821  -3.716   1.588  0.00  0.00    -0.048 C 
BRANCH   8  13
ATOM      9  C   UNL     1      -2.660   1.585   2.608  0.00  0.00    +0.007 C 
ATOM     10  C   UNL     1      -2.606   0.085   2.311  0.00  0.00    -0.018 C 
ATOM     11  C   UNL     1      -1.886  -0.638   3.453  0.00  0.00    -0.016 C 
ATOM     12  C   UNL     1      -1.766  -2.125   3.112  0.00  0.00    -0.078 C 
ATOM     13  N   UNL     1      -1.001  -2.285   1.869  0.00  0.00    +0.383 N 
ATOM     14  C   UNL     1      -1.721  -1.656   0.756  0.00  0.00    -0.078 C 
ATOM     15  C   UNL     1      -1.839  -0.151   1.006  0.00  0.00    -0.016 C 
ATOM     16  H   UNL     1      -0.097  -1.849   1.974  0.00  0.00    -0.081 HD
ENDBRANCH   8  13
BRANCH   8  17
ATOM     17  C   UNL     1       0.056  -4.343   2.674  0.00  0.00    -0.029 C 
ATOM     18  C   UNL     1       0.343  -5.803   2.317  0.00  0.00    +0.005 C 
ATOM     19  C   UNL     1       1.374  -3.574   2.772  0.00  0.00    +0.005 C 
ENDBRANCH   8  17
ENDBRANCH   7   8
ENDBRANCH   1   7
BRANCH   4  20
ATOM     20  C   UNL     1      -6.330  -4.318  -0.988  0.00  0.00    +0.115 C 
BRANCH  20  21
ATOM     21  C   UNL     1      -6.880  -3.734  -2.291  0.00  0.00    +0.114 C 
BRANCH  21  22
ATOM     22  C   UNL     1      -8.323  -4.136  -2.452  0.00  0.00    +0.215 C 
ATOM     23  O   UNL     1      -8.860  -4.822  -1.607  0.00  0.00    -0.276 OA
ATOM     24  N   UNL     1      -9.018  -3.733  -3.534  0.00  0.00    -0.312 N 
ATOM     25  H   UNL     1      -8.589  -3.185  -4.210  0.00  0.00    +0.149 HD
BRANCH  24  26
ATOM     26  C   UNL     1     -10.422  -4.124  -3.691  0.00  0.00    +0.073 C 
ATOM     27  C   UNL     1     -11.337  -3.098  -2.991  0.00  0.00    +0.022 C 
ATOM     28  C   UNL     1     -11.761  -2.132  -4.125  0.00  0.00    +0.002 C 
ATOM     29  C   UNL     1     -11.945  -3.083  -5.334  0.00  0.00    +0.002 C 
ATOM     30  C   UNL     1     -10.808  -4.114  -5.180  0.00  0.00    +0.022 C 
ENDBRANCH  24  26
ENDBRANCH  21  22
ENDBRANCH  20  21
ENDBRANCH   4  20
TORSDOF 8
