REMARK  Name = ZINC43263101
REMARK  13 active torsions:
REMARK  status: ('A' for Active; 'I' for Inactive)
REMARK    1  A    between atoms: C_1  and  C_2
REMARK    2  A    between atoms: C_2  and  C_3
REMARK    3  A    between atoms: C_3  and  C_5
REMARK    4  A    between atoms: C_3  and  N_22
REMARK    5  A    between atoms: C_5  and  C_7
REMARK    6  A    between atoms: C_5  and  N_13
REMARK    7  A    between atoms: N_13  and  C_14
REMARK    8  A    between atoms: N_13  and  C_16
REMARK    9  A    between atoms: C_14  and  C_15
REMARK   10  A    between atoms: C_16  and  C_18
REMARK   11  A    between atoms: C_16  and  C_19
REMARK   12  A    between atoms: C_19  and  O_20
REMARK   13  A    between atoms: O_20  and  C_21
REMARK                            x       y       z     vdW  Elec       q    Type
REMARK                         _______ _______ _______ _____ _____    ______ ____
ROOT
ATOM      1  C   UNL     1      -1.223  -3.402   0.612  0.00  0.00    -0.013 C 
ENDROOT
BRANCH   1   2
ATOM      2  C   UNL     1      -2.436  -2.914  -0.139  0.00  0.00    -0.021 A 
ATOM      3  C   UNL     1      -2.767  -3.102  -1.439  0.00  0.00    +0.011 A 
ATOM      4  C   UNL     1      -3.943  -2.555  -1.917  0.00  0.00    +0.023 A 
ATOM      5  C   UNL     1      -4.730  -1.845  -1.070  0.00  0.00    +0.055 A 
ATOM      6  S   UNL     1      -3.811  -1.944   0.457  0.00  0.00    -0.088 S 
ATOM      7 BR   UNL     1      -6.377  -0.983  -1.415  0.00  0.00    -0.043 Br
ENDBRANCH   1   2
BRANCH   1   8
ATOM      8  N   UNL     1      -0.648  -2.295   1.386  0.00  0.00    +0.389 N 
ATOM      9  H   UNL     1      -0.615  -1.465   0.813  0.00  0.00    -0.080 HD
BRANCH   8  10
ATOM     10  C   UNL     1       0.713  -2.650   1.811  0.00  0.00    -0.081 C 
ATOM     11  C   UNL     1       1.632  -2.700   0.590  0.00  0.00    -0.017 C 
ENDBRANCH   8  10
BRANCH   8  12
ATOM     12  C   UNL     1      -1.480  -2.040   2.570  0.00  0.00    -0.045 C 
ATOM     13  C   UNL     1      -0.758  -2.548   3.820  0.00  0.00    -0.011 C 
BRANCH  12  14
ATOM     14  C   UNL     1      -1.733  -0.537   2.701  0.00  0.00    +0.144 C 
BRANCH  14  15
ATOM     15  O   UNL     1      -0.483   0.156   2.718  0.00  0.00    -0.385 OA
ATOM     16  C   UNL     1      -0.608   1.575   2.836  0.00  0.00    +0.193 C 
ENDBRANCH  14  15
ENDBRANCH  12  14
ENDBRANCH   8  12
ENDBRANCH   1   8
BRANCH   1  17
ATOM     17  C   UNL     1      -1.632  -4.531   1.561  0.00  0.00    +0.042 C 
BRANCH  17  18
ATOM     18  N   UNL     1      -0.950  -5.771   1.169  0.00  0.00    -0.328 NA
ATOM     19  H   UNL     1      -1.196  -6.037   0.227  0.00  0.00    +0.118 HD
ATOM     20  H   UNL     1       0.050  -5.682   1.271  0.00  0.00    +0.118 HD
ENDBRANCH  17  18
BRANCH  17  22
ATOM     21  C   UNL     1      -3.566  -5.800   2.504  0.00  0.00    +0.005 C 
ATOM     22  C   UNL     1      -3.146  -4.736   1.488  0.00  0.00    +0.014 C 
ENDBRANCH  17  22
ENDBRANCH   1  17
TORSDOF 9
