REMARK  Name = ZINC67359266
REMARK  9 active torsions:
REMARK  status: ('A' for Active; 'I' for Inactive)
REMARK    1  A    between atoms: C_1  and  C_2
REMARK    2  A    between atoms: C_6  and  C_7
REMARK    3  A    between atoms: N_9  and  N_10
REMARK    4  A    between atoms: N_13  and  C_14
REMARK    5  A    between atoms: C_14  and  C_15
REMARK    6  A    between atoms: C_15  and  C_17
REMARK    7  A    between atoms: C_15  and  N_22
REMARK    8  A    between atoms: N_22  and  C_23
REMARK    9  A    between atoms: N_22  and  C_24
REMARK                            x       y       z     vdW  Elec       q    Type
REMARK                         _______ _______ _______ _____ _____    ______ ____
ROOT
ATOM      1  N   UNL     1       0.088  -0.820   4.681  0.00  0.00    -0.218 N 
ATOM      2  C   UNL     1       0.006  -1.669   5.724  0.00  0.00    +0.316 C 
ATOM      3  O   UNL     1      -0.133  -1.236   6.852  0.00  0.00    -0.251 OA
ATOM      4  N   UNL     1       0.079  -2.999   5.518  0.00  0.00    -0.299 N 
ATOM      5  H   UNL     1       0.035   0.137   4.830  0.00  0.00    +0.174 HD
ATOM      6  H   UNL     1       0.190  -3.345   4.618  0.00  0.00    +0.150 HD
ENDROOT
BRANCH   1   9
ATOM      7  C   UNL     1       0.330  -0.470   2.339  0.00  0.00    +0.267 C 
ATOM      8  O   UNL     1       0.264   0.731   2.525  0.00  0.00    -0.268 OA
ATOM      9  N   UNL     1       0.248  -1.319   3.382  0.00  0.00    -0.229 N 
ATOM     10  H   UNL     1       0.301  -2.276   3.233  0.00  0.00    +0.173 HD
BRANCH   7  16
ATOM     11  C   UNL     1       0.551   1.206  -0.278  0.00  0.00    +0.045 C 
ATOM     12  C   UNL     1       0.602  -0.299  -0.217  0.00  0.00    -0.031 A 
ATOM     13  C   UNL     1       0.760  -1.071  -1.343  0.00  0.00    +0.011 A 
ATOM     14  C   UNL     1       0.797  -2.421  -1.216  0.00  0.00    +0.046 A 
ATOM     15  S   UNL     1       0.620  -2.685   0.433  0.00  0.00    -0.092 S 
ATOM     16  C   UNL     1       0.498  -0.993   0.980  0.00  0.00    +0.078 A 
ENDBRANCH   7  16
ENDBRANCH   1   9
BRANCH   4  17
ATOM     17  C   UNL     1      -0.009  -3.922   6.652  0.00  0.00    +0.095 C 
BRANCH  17  18
ATOM     18  C   UNL     1      -0.014  -5.363   6.137  0.00  0.00    -0.014 C 
BRANCH  18  19
ATOM     19  C   UNL     1       1.302  -5.661   5.467  0.00  0.00    -0.022 A 
ATOM     20  C   UNL     1       1.605  -5.670   4.146  0.00  0.00    +0.009 A 
ATOM     21  C   UNL     1       2.895  -5.975   3.756  0.00  0.00    +0.008 A 
ATOM     22  C   UNL     1       3.820  -6.257   4.706  0.00  0.00    +0.045 A 
ATOM     23  S   UNL     1       2.870  -6.087   6.208  0.00  0.00    -0.103 S 
ENDBRANCH  18  19
BRANCH  18  24
ATOM     24  N   UNL     1      -0.210  -6.285   7.264  0.00  0.00    +0.382 N 
ATOM     25  C   UNL     1      -1.508  -6.017   7.896  0.00  0.00    -0.096 C 
ATOM     26  C   UNL     1      -0.180  -7.670   6.775  0.00  0.00    -0.096 C 
ATOM     27  H   UNL     1       0.528  -6.151   7.940  0.00  0.00    -0.082 HD
ENDBRANCH  18  24
ENDBRANCH  17  18
ENDBRANCH   4  17
TORSDOF 6
