REMARK  Name = ZINC33807049
REMARK  6 active torsions:
REMARK  status: ('A' for Active; 'I' for Inactive)
REMARK    1  A    between atoms: C_1  and  C_2
REMARK    2  A    between atoms: C_9  and  N_29
REMARK    3  A    between atoms: C_10  and  C_13
REMARK    4  A    between atoms: N_17  and  C_21
REMARK    5  A    between atoms: C_21  and  C_22
REMARK    6  A    between atoms: N_29  and  C_30
REMARK                            x       y       z     vdW  Elec       q    Type
REMARK                         _______ _______ _______ _____ _____    ______ ____
ROOT
ATOM      1  C   UNL     1      -8.282  -2.696  -2.548  0.00  0.00    +0.047 C 
ATOM      2  C   UNL     1      -7.075  -2.478  -1.671  0.00  0.00    -0.007 A 
ATOM      3  C   UNL     1      -7.227  -2.016  -0.397  0.00  0.00    +0.008 A 
ATOM      4  C   UNL     1      -6.095  -1.818   0.405  0.00  0.00    +0.019 A 
ATOM      5  C   UNL     1      -4.863  -2.083  -0.083  0.00  0.00    +0.096 A 
ATOM      6  N   UNL     1      -4.701  -2.545  -1.355  0.00  0.00    -0.267 N 
ATOM      7  C   UNL     1      -5.785  -2.748  -2.162  0.00  0.00    +0.145 A 
ATOM      8  N   UNL     1      -5.647  -3.199  -3.410  0.00  0.00    -0.214 NA
ATOM      9  C   UNL     1      -4.456  -3.469  -3.923  0.00  0.00    +0.134 A 
ATOM     10  C   UNL     1      -3.297  -3.279  -3.135  0.00  0.00    +0.081 A 
ATOM     11  C   UNL     1      -3.456  -2.806  -1.810  0.00  0.00    +0.267 A 
ATOM     12  O   UNL     1      -2.485  -2.631  -1.093  0.00  0.00    -0.267 OA
ENDROOT
BRANCH  10  13
ATOM     13  C   UNL     1      -2.012  -3.559  -3.655  0.00  0.00    +0.037 C 
ATOM     14  C   UNL     1      -1.125  -2.543  -3.867  0.00  0.00    +0.077 C 
ATOM     15  C   UNL     1      -1.248  -1.156  -3.569  0.00  0.00    +0.259 C 
ATOM     16  O   UNL     1      -2.257  -0.714  -3.048  0.00  0.00    -0.269 OA
ATOM     17  N   UNL     1      -0.239  -0.361  -3.877  0.00  0.00    -0.251 N 
ATOM     18  C   UNL     1       0.883  -0.852  -4.451  0.00  0.00    +0.121 C 
ATOM     19  S   UNL     1       2.300  -0.016  -4.925  0.00  0.00    -0.027 S 
ATOM     20  S   UNL     1       0.510  -2.593  -4.588  0.00  0.00    -0.061 S 
BRANCH  17  21
ATOM     21  C   UNL     1      -0.335   1.073  -3.589  0.00  0.00    +0.151 C 
BRANCH  21  22
ATOM     22  C   UNL     1      -0.755   1.809  -4.835  0.00  0.00    -0.011 A 
ATOM     23  C   UNL     1       0.201   2.359  -5.668  0.00  0.00    +0.006 A 
ATOM     24  C   UNL     1      -0.184   3.034  -6.811  0.00  0.00    +0.000 A 
ATOM     25  C   UNL     1      -1.526   3.159  -7.122  0.00  0.00    +0.001 A 
ATOM     26  C   UNL     1      -2.482   2.610  -6.289  0.00  0.00    +0.020 A 
ATOM     27  C   UNL     1      -2.097   1.934  -5.145  0.00  0.00    +0.046 A 
ATOM     28 CL   UNL     1      -3.298   1.244  -4.098  0.00  0.00    -0.083 Cl
ENDBRANCH  21  22
ENDBRANCH  17  21
ENDBRANCH  10  13
BRANCH   9  29
ATOM     29  N   UNL     1      -4.347  -3.934  -5.215  0.00  0.00    -0.326 N 
ATOM     30  H   UNL     1      -3.356  -4.158  -5.638  0.00  0.00    +0.148 HD
BRANCH  29  31
ATOM     31  C   UNL     1      -5.551  -4.130  -6.027  0.00  0.00    +0.072 C 
ATOM     32  C   UNL     1      -6.129  -5.539  -5.784  0.00  0.00    +0.022 C 
ATOM     33  C   UNL     1      -6.646  -5.983  -7.175  0.00  0.00    +0.002 C 
ATOM     34  C   UNL     1      -5.571  -5.417  -8.136  0.00  0.00    +0.002 C 
ATOM     35  C   UNL     1      -5.196  -4.052  -7.523  0.00  0.00    +0.022 C 
ENDBRANCH  29  31
ENDBRANCH   9  29
TORSDOF 5
