REMARK  Name = ZINC39695813
REMARK  8 active torsions:
REMARK  status: ('A' for Active; 'I' for Inactive)
REMARK    1  A    between atoms: C_1  and  C_2
REMARK    2  A    between atoms: C_9  and  C_11
REMARK    3  A    between atoms: C_11  and  C_13
REMARK    4  A    between atoms: C_11  and  N_14
REMARK    5  A    between atoms: C_15  and  C_17
REMARK    6  A    between atoms: C_28  and  C_30
REMARK    7  A    between atoms: C_33  and  C_37
REMARK    8  A    between atoms: C_34  and  C_36
REMARK                            x       y       z     vdW  Elec       q    Type
REMARK                         _______ _______ _______ _____ _____    ______ ____
ROOT
ATOM      1  C   UNL     1      -2.016  -8.386   1.339  0.00  0.00    +0.100 C 
ATOM      2  C   UNL     1      -3.157  -8.019   0.364  0.00  0.00    +0.121 C 
ATOM      3  N   UNL     1      -4.020  -9.223   0.328  0.00  0.00    -0.296 N 
ATOM      4  C   UNL     1      -4.043  -9.703   1.730  0.00  0.00    +0.115 C 
ATOM      5  C   UNL     1      -2.601  -9.491   2.234  0.00  0.00    -0.004 C 
ATOM      6  C   UNL     1      -1.794 -10.777   2.082  0.00  0.00    -0.010 C 
ATOM      7  C   UNL     1      -2.361 -11.843   3.024  0.00  0.00    -0.082 C 
ATOM      8  N   UNL     1      -2.294 -11.360   4.409  0.00  0.00    +0.379 N 
ATOM      9  C   UNL     1      -3.147 -10.176   4.568  0.00  0.00    -0.082 C 
ATOM     10  C   UNL     1      -2.614  -9.039   3.692  0.00  0.00    -0.010 C 
ATOM     11  C   UNL     1      -4.644  -9.761  -0.739  0.00  0.00    +0.247 C 
ATOM     12  O   UNL     1      -4.439  -9.314  -1.851  0.00  0.00    -0.270 OA
ATOM     13  H   UNL     1      -2.611 -12.087   5.033  0.00  0.00    -0.086 HD
ATOM     14  H   UNL     1      -1.341 -11.119   4.634  0.00  0.00    -0.086 HD
ENDROOT
BRANCH  11  15
ATOM     15  C   UNL     1      -5.576 -10.893  -0.557  0.00  0.00    +0.037 A 
ATOM     16  C   UNL     1      -6.163 -11.125   0.688  0.00  0.00    +0.013 A 
ATOM     17  C   UNL     1      -7.033 -12.183   0.851  0.00  0.00    +0.004 A 
ATOM     18  C   UNL     1      -7.324 -13.014  -0.217  0.00  0.00    -0.047 A 
ATOM     19  C   UNL     1      -6.745 -12.790  -1.453  0.00  0.00    -0.047 A 
ATOM     20  C   UNL     1      -5.878 -11.732  -1.631  0.00  0.00    +0.016 A 
ATOM     21  C   UNL     1      -7.067 -13.701  -2.610  0.00  0.00    +0.044 C 
ATOM     22  C   UNL     1      -8.274 -14.169  -0.031  0.00  0.00    +0.044 C 
ENDBRANCH  11  15
BRANCH   1  24
ATOM     23  N   UNL     1      -0.369  -7.069   2.633  0.00  0.00    -0.305 N 
ATOM     24  C   UNL     1      -1.629  -7.188   2.168  0.00  0.00    +0.219 C 
ATOM     25  O   UNL     1      -2.451  -6.332   2.417  0.00  0.00    -0.275 OA
ATOM     26  H   UNL     1       0.288  -7.754   2.433  0.00  0.00    +0.149 HD
BRANCH  23  27
ATOM     27  C   UNL     1       0.007  -5.905   3.439  0.00  0.00    +0.136 C 
ATOM     28  C   UNL     1      -0.353  -6.161   4.904  0.00  0.00    +0.036 C 
BRANCH  27  37
ATOM     29  C   UNL     1       7.035  -3.476   3.156  0.00  0.00    +0.044 C 
ATOM     30  C   UNL     1       5.823  -4.370   3.103  0.00  0.00    -0.048 A 
ATOM     31  C   UNL     1       5.972  -5.716   2.800  0.00  0.00    +0.005 A 
ATOM     32  C   UNL     1       4.886  -6.542   2.747  0.00  0.00    +0.030 A 
ATOM     33  C   UNL     1       3.610  -6.032   3.001  0.00  0.00    +0.089 A 
ATOM     34  C   UNL     1       3.458  -4.670   3.309  0.00  0.00    +0.067 A 
ATOM     35  C   UNL     1       4.575  -3.846   3.362  0.00  0.00    +0.031 A 
ATOM     36  N   UNL     1       2.107  -4.471   3.505  0.00  0.00    -0.340 N 
ATOM     37  C   UNL     1       1.490  -5.669   3.320  0.00  0.00    +0.128 A 
ATOM     38  N   UNL     1       2.369  -6.583   3.025  0.00  0.00    -0.231 NA
ATOM     39  H   UNL     1       1.676  -3.632   3.733  0.00  0.00    +0.167 HD
ENDBRANCH  27  37
ENDBRANCH  23  27
ENDBRANCH   1  24
TORSDOF 4
