REMARK  Name = ZINC46753833
REMARK  10 active torsions:
REMARK  status: ('A' for Active; 'I' for Inactive)
REMARK    1  A    between atoms: C_1  and  C_2
REMARK    2  A    between atoms: C_2  and  N_3
REMARK    3  A    between atoms: N_6  and  C_9
REMARK    4  A    between atoms: C_9  and  C_10
REMARK    5  A    between atoms: C_10  and  C_11
REMARK    6  A    between atoms: C_11  and  C_12
REMARK    7  A    between atoms: C_12  and  N_13
REMARK    8  A    between atoms: N_16  and  N_17
REMARK    9  A    between atoms: N_17  and  C_18
REMARK   10  A    between atoms: C_23  and  C_24
REMARK                            x       y       z     vdW  Elec       q    Type
REMARK                         _______ _______ _______ _____ _____    ______ ____
ROOT
ATOM      1  N   UNL     1       5.078  -6.589  -5.959  0.00  0.00    -0.298 N 
ATOM      2  C   UNL     1       5.276  -7.913  -6.112  0.00  0.00    +0.316 C 
ATOM      3  O   UNL     1       4.858  -8.692  -5.277  0.00  0.00    -0.251 OA
ATOM      4  N   UNL     1       5.939  -8.375  -7.192  0.00  0.00    -0.220 N 
ATOM      5  H   UNL     1       5.412  -5.968  -6.625  0.00  0.00    +0.150 HD
ATOM      6  H   UNL     1       6.081  -9.328  -7.302  0.00  0.00    +0.174 HD
ENDROOT
BRANCH   4   7
ATOM      7  N   UNL     1       6.420  -7.478  -8.154  0.00  0.00    -0.263 N 
ATOM      8  H   UNL     1       6.278  -6.525  -8.044  0.00  0.00    +0.170 HD
BRANCH   7   9
ATOM      9  C   UNL     1       7.107  -7.956  -9.273  0.00  0.00    +0.056 A 
ATOM     10  C   UNL     1       7.307  -9.321  -9.435  0.00  0.00    +0.025 A 
ATOM     11  C   UNL     1       7.986  -9.791 -10.543  0.00  0.00    +0.002 A 
ATOM     12  C   UNL     1       8.466  -8.903 -11.489  0.00  0.00    +0.001 A 
ATOM     13  C   UNL     1       8.268  -7.544 -11.330  0.00  0.00    +0.014 A 
ATOM     14  C   UNL     1       7.585  -7.069 -10.228  0.00  0.00    +0.077 A 
BRANCH  14  15
ATOM     15  C   UNL     1       7.364  -5.587 -10.059  0.00  0.00    +0.419 C 
ATOM     16  F   UNL     1       7.933  -4.905 -11.139  0.00  0.00    -0.166 F 
ATOM     17  F   UNL     1       5.992  -5.323 -10.010  0.00  0.00    -0.166 F 
ATOM     18  F   UNL     1       7.965  -5.159  -8.869  0.00  0.00    -0.166 F 
ENDBRANCH  14  15
ENDBRANCH   7   9
ENDBRANCH   4   7
BRANCH   1  19
ATOM     19  C   UNL     1       4.358  -6.088  -4.785  0.00  0.00    +0.106 C 
BRANCH  19  20
ATOM     20  C   UNL     1       4.271  -4.562  -4.854  0.00  0.00    +0.020 C 
BRANCH  20  21
ATOM     21  C   UNL     1       3.520  -4.038  -3.629  0.00  0.00    +0.017 C 
BRANCH  21  22
ATOM     22  C   UNL     1       3.433  -2.512  -3.697  0.00  0.00    +0.084 C 
BRANCH  22  26
ATOM     23  N   UNL     1       0.690  -0.478  -1.207  0.00  0.00    +0.381 N 
ATOM     24  C   UNL     1       2.100  -0.069  -1.160  0.00  0.00    -0.063 C 
ATOM     25  C   UNL     1       2.812  -0.546  -2.427  0.00  0.00    +0.066 C 
ATOM     26  N   UNL     1       2.711  -2.009  -2.521  0.00  0.00    -0.306 NA
ATOM     27  C   UNL     1       1.305  -2.435  -2.544  0.00  0.00    +0.066 C 
ATOM     28  C   UNL     1       0.605  -1.943  -1.275  0.00  0.00    -0.063 C 
ATOM     29  H   UNL     1       0.251  -0.077  -2.022  0.00  0.00    -0.082 HD
BRANCH  23  31
ATOM     30  C   UNL     1      -0.019   1.526   0.010  0.00  0.00    -0.017 C 
ATOM     31  C   UNL     1       0.002  -0.004   0.002  0.00  0.00    -0.082 C 
ENDBRANCH  23  31
ENDBRANCH  22  26
ENDBRANCH  21  22
ENDBRANCH  20  21
ENDBRANCH  19  20
ENDBRANCH   1  19
TORSDOF 9
