REMARK  Name = ZINC37413704
REMARK  10 active torsions:
REMARK  status: ('A' for Active; 'I' for Inactive)
REMARK    1  A    between atoms: C_1  and  C_2
REMARK    2  A    between atoms: C_7  and  C_8
REMARK    3  A    between atoms: C_7  and  C_9
REMARK    4  A    between atoms: C_11  and  N_13
REMARK    5  A    between atoms: C_14  and  C_16
REMARK    6  A    between atoms: C_16  and  C_18
REMARK    7  A    between atoms: C_16  and  N_24
REMARK    8  A    between atoms: C_18  and  C_19
REMARK    9  A    between atoms: C_19  and  S_20
REMARK   10  A    between atoms: S_20  and  C_23
REMARK                            x       y       z     vdW  Elec       q    Type
REMARK                         _______ _______ _______ _____ _____    ______ ____
ROOT
ATOM      1  N   UNL     1      -2.268  -0.017   1.012  0.00  0.00    -0.313 N 
ATOM      2  C   UNL     1      -3.606  -0.100   0.874  0.00  0.00    +0.199 C 
ATOM      3  O   UNL     1      -4.083  -0.745  -0.035  0.00  0.00    -0.278 OA
ATOM      4  H   UNL     1      -1.886   0.499   1.739  0.00  0.00    +0.149 HD
ENDROOT
BRANCH   1  14
ATOM      5  C   UNL     1      -0.019   1.526   0.010  0.00  0.00    +0.013 C 
ATOM      6  C   UNL     1       0.002  -0.004   0.002  0.00  0.00    -0.008 C 
ATOM      7  C   UNL     1       0.744  -0.669  -1.197  0.00  0.00    +0.009 C 
ATOM      8  C   UNL     1       1.062  -2.103  -0.714  0.00  0.00    +0.005 C 
ATOM      9  C   UNL     1       0.481  -2.169   0.732  0.00  0.00    -0.003 C 
ATOM     10  C   UNL     1       0.727  -0.695   1.211  0.00  0.00    -0.025 C 
ATOM     11  C   UNL     1       0.031  -0.400   2.541  0.00  0.00    +0.012 C 
ATOM     12  C   UNL     1       2.216  -0.348   1.260  0.00  0.00    +0.012 C 
ATOM     13  C   UNL     1      -1.065  -2.175   0.532  0.00  0.00    +0.027 C 
ATOM     14  C   UNL     1      -1.389  -0.705   0.062  0.00  0.00    +0.080 C 
ENDBRANCH   1  14
BRANCH   2  15
ATOM     15  C   UNL     1      -4.509   0.608   1.851  0.00  0.00    +0.014 C 
BRANCH  15  16
ATOM     16  N   UNL     1      -5.848   0.007   1.804  0.00  0.00    +0.386 N 
ATOM     17  H   UNL     1      -6.225   0.097   0.872  0.00  0.00    -0.089 HD
ATOM     18  H   UNL     1      -5.787  -0.970   2.049  0.00  0.00    -0.089 HD
ATOM     19  H   UNL     1      -6.453   0.481   2.458  0.00  0.00    -0.089 HD
ENDBRANCH  15  16
BRANCH  15  20
ATOM     20  C   UNL     1      -4.601   2.089   1.479  0.00  0.00    +0.015 C 
BRANCH  20  21
ATOM     21  C   UNL     1      -5.416   2.832   2.540  0.00  0.00    +0.164 C 
BRANCH  21  22
ATOM     22  S   UNL     1      -5.525   4.588   2.098  0.00  0.00    -0.034 S 
ATOM     23  O   UNL     1      -4.221   5.149   2.159  0.00  0.00    -0.175 OA
ATOM     24  O   UNL     1      -6.272   4.703   0.895  0.00  0.00    -0.175 OA
ATOM     25  C   UNL     1      -6.511   5.281   3.454  0.00  0.00    +0.194 C 
ENDBRANCH  21  22
ENDBRANCH  20  21
ENDBRANCH  15  20
ENDBRANCH   2  15
TORSDOF 6
