REMARK  Name = ZINC02408252
REMARK  10 active torsions:
REMARK  status: ('A' for Active; 'I' for Inactive)
REMARK    1  A    between atoms: C_1  and  C_2
REMARK    2  A    between atoms: C_2  and  C_3
REMARK    3  A    between atoms: C_3  and  C_4
REMARK    4  A    between atoms: C_4  and  C_5
REMARK    5  A    between atoms: C_11  and  S_17
REMARK    6  A    between atoms: C_13  and  S_15
REMARK    7  A    between atoms: S_15  and  C_16
REMARK    8  A    between atoms: S_17  and  C_18
REMARK    9  A    between atoms: C_18  and  C_19
REMARK   10  A    between atoms: C_19  and  N_61
REMARK                            x       y       z     vdW  Elec       q    Type
REMARK                         _______ _______ _______ _____ _____    ______ ____
ROOT
ATOM      1  C   UNL     1      -2.600   8.739   4.436  0.00  0.00    +0.046 A 
ATOM      2  C   UNL     1      -2.850   7.455   4.901  0.00  0.00    -0.022 A 
ATOM      3  C   UNL     1      -2.426   6.368   4.171  0.00  0.00    -0.031 A 
ATOM      4  C   UNL     1      -1.738   6.575   2.956  0.00  0.00    +0.037 A 
ATOM      5  C   UNL     1      -1.205   5.553   2.035  0.00  0.00    +0.093 A 
ATOM      6  C   UNL     1      -0.563   6.037   0.890  0.00  0.00    +0.072 A 
ATOM      7  C   UNL     1      -0.023   5.168  -0.049  0.00  0.00    +0.116 A 
ATOM      8  N   UNL     1      -0.130   3.857   0.164  0.00  0.00    -0.214 NA
ATOM      9  C   UNL     1      -0.741   3.411   1.254  0.00  0.00    +0.190 A 
ATOM     10  N   UNL     1      -1.267   4.208   2.160  0.00  0.00    -0.221 NA
ATOM     11  S   UNL     1      -0.661   7.801   1.032  0.00  0.00    -0.064 S 
ATOM     12  C   UNL     1      -1.535   7.914   2.574  0.00  0.00    +0.111 A 
ATOM     13  N   UNL     1      -1.957   8.926   3.300  0.00  0.00    -0.244 NA
ATOM     14  C   UNL     1      -2.812   5.087   4.872  0.00  0.00    +0.036 C 
ATOM     15  C   UNL     1      -3.896   5.499   5.892  0.00  0.00    +0.009 C 
ATOM     16  C   UNL     1      -3.557   6.982   6.154  0.00  0.00    +0.037 C 
ENDROOT
BRANCH   9  17
ATOM     17  S   UNL     1      -0.860   1.669   1.497  0.00  0.00    -0.089 S 
ATOM     18  C   UNL     1      -0.013   1.086   0.008  0.00  0.00    +0.093 C 
ENDBRANCH   9  17
BRANCH   1  19
ATOM     19  C   UNL     1      -3.065   9.928   5.237  0.00  0.00    +0.056 C 
BRANCH  19  20
ATOM     20  C   UNL     1      -1.968  10.343   6.219  0.00  0.00    +0.006 C 
BRANCH  20  22
ATOM     21  C   UNL     1      -1.343  11.964   8.014  0.00  0.00    +0.004 C 
ATOM     22  C   UNL     1      -2.440  11.550   7.032  0.00  0.00    -0.003 C 
ENDBRANCH  20  22
ENDBRANCH  19  20
ENDBRANCH   1  19
BRANCH   7  23
ATOM     23  S   UNL     1       0.784   5.784  -1.490  0.00  0.00    -0.107 S 
BRANCH  23  24
ATOM     24  C   UNL     1       1.248   4.224  -2.282  0.00  0.00    +0.057 C 
BRANCH  24  25
ATOM     25  C   UNL     1       1.984   4.516  -3.591  0.00  0.00    -0.067 C 
BRANCH  25  31
ATOM     26  C   UNL     1       3.359   2.529  -3.432  0.00  0.00    -0.050 C 
ATOM     27  C   UNL     1       3.677   1.192  -4.107  0.00  0.00    +0.141 C 
ATOM     28  O   UNL     1       4.127   1.433  -5.443  0.00  0.00    -0.383 OA
ATOM     29  C   UNL     1       3.179   2.133  -6.252  0.00  0.00    +0.141 C 
ATOM     30  C   UNL     1       2.855   3.480  -5.599  0.00  0.00    -0.050 C 
ATOM     31  N   UNL     1       2.339   3.234  -4.236  0.00  0.00    +0.383 N 
ATOM     32  H   UNL     1       1.498   2.647  -4.298  0.00  0.00    -0.082 HD
ENDBRANCH  25  31
ENDBRANCH  24  25
ENDBRANCH  23  24
ENDBRANCH   7  23
TORSDOF 8
