REMARK  Name = ZINC44594577
REMARK  9 active torsions:
REMARK  status: ('A' for Active; 'I' for Inactive)
REMARK    1  A    between atoms: C_1  and  C_2
REMARK    2  A    between atoms: C_5  and  C_7
REMARK    3  A    between atoms: C_7  and  C_9
REMARK    4  A    between atoms: C_7  and  N_10
REMARK    5  A    between atoms: N_10  and  S_11
REMARK    6  A    between atoms: S_11  and  C_14
REMARK    7  A    between atoms: C_17  and  C_20
REMARK    8  A    between atoms: C_20  and  C_21
REMARK    9  A    between atoms: C_21  and  N_22
REMARK                            x       y       z     vdW  Elec       q    Type
REMARK                         _______ _______ _______ _____ _____    ______ ____
ROOT
ATOM      1  S   UNL     1       2.490  -5.528   1.726  0.00  0.00    +0.059 S 
ATOM      2  O   UNL     1       3.692  -5.313   2.452  0.00  0.00    -0.153 OA
ATOM      3  O   UNL     1       1.265  -5.862   2.363  0.00  0.00    -0.153 OA
ENDROOT
BRANCH   1   4
ATOM      4  C   UNL     1       2.823  -6.814   0.569  0.00  0.00    +0.105 A 
ATOM      5  C   UNL     1       1.786  -7.580   0.069  0.00  0.00    +0.029 A 
ATOM      6  C   UNL     1       2.048  -8.589  -0.839  0.00  0.00    +0.005 A 
ATOM      7  C   UNL     1       3.346  -8.833  -1.246  0.00  0.00    -0.049 A 
ATOM      8  C   UNL     1       4.383  -8.068  -0.746  0.00  0.00    +0.005 A 
ATOM      9  C   UNL     1       4.121  -7.055   0.158  0.00  0.00    +0.029 A 
BRANCH   7  10
ATOM     10  C   UNL     1       3.632  -9.935  -2.234  0.00  0.00    +0.015 C 
BRANCH  10  11
ATOM     11  C   UNL     1       3.563  -9.374  -3.656  0.00  0.00    -0.082 C 
BRANCH  11  12
ATOM     12  N   UNL     1       3.841 -10.447  -4.620  0.00  0.00    +0.378 N 
ATOM     13  H   UNL     1       4.762 -10.822  -4.450  0.00  0.00    -0.090 HD
ATOM     14  H   UNL     1       3.156 -11.181  -4.513  0.00  0.00    -0.090 HD
ATOM     15  H   UNL     1       3.796 -10.078  -5.557  0.00  0.00    -0.090 HD
ENDBRANCH  11  12
ENDBRANCH  10  11
ENDBRANCH   7  10
ENDBRANCH   1   4
BRANCH   1  16
ATOM     16  N   UNL     1       2.210  -4.147   0.855  0.00  0.00    -0.182 NA
ATOM     17  H   UNL     1       2.818  -3.395   0.929  0.00  0.00    +0.149 HD
BRANCH  16  18
ATOM     18  C   UNL     1       1.043  -4.062  -0.027  0.00  0.00    +0.110 C 
ATOM     19  C   UNL     1       1.452  -4.441  -1.452  0.00  0.00    +0.031 C 
BRANCH  18  24
ATOM     20  C   UNL     1      -0.018   1.503   0.010  0.00  0.00    +0.051 C 
ATOM     21  C   UNL     1       0.002  -0.004   0.002  0.00  0.00    -0.013 A 
ATOM     22  C   UNL     1      -1.039  -0.872   0.002  0.00  0.00    +0.011 A 
ATOM     23  C   UNL     1      -0.780  -2.230  -0.007  0.00  0.00    +0.013 A 
ATOM     24  C   UNL     1       0.507  -2.653  -0.016  0.00  0.00    +0.008 A 
ATOM     25  S   UNL     1       1.404  -1.109  -0.018  0.00  0.00    -0.097 S 
ENDBRANCH  18  24
ENDBRANCH  16  18
ENDBRANCH   1  16
TORSDOF 7
