REMARK  Name = ZINC12439987
REMARK  16 active torsions:
REMARK  status: ('A' for Active; 'I' for Inactive)
REMARK    1  A    between atoms: C_1  and  C_2
REMARK    2  A    between atoms: C_2  and  C_3
REMARK    3  A    between atoms: C_2  and  N_54
REMARK    4  A    between atoms: C_4  and  N_54
REMARK    5  A    between atoms: C_5  and  C_6
REMARK    6  A    between atoms: C_5  and  N_54
REMARK    7  A    between atoms: C_6  and  C_8
REMARK    8  A    between atoms: C_6  and  O_26
REMARK    9  A    between atoms: C_8  and  O_9
REMARK   10  A    between atoms: O_9  and  C_10
REMARK   11  A    between atoms: C_12  and  C_18
REMARK   12  A    between atoms: C_15  and  O_16
REMARK   13  A    between atoms: O_16  and  C_17
REMARK   14  A    between atoms: C_18  and  N_56
REMARK   15  A    between atoms: C_19  and  C_20
REMARK   16  A    between atoms: C_19  and  N_56
REMARK                            x       y       z     vdW  Elec       q    Type
REMARK                         _______ _______ _______ _____ _____    ______ ____
ROOT
ATOM      1  C   UNL     1       3.122   6.343   4.839  0.00  0.00    +0.162 A 
ATOM      2  C   UNL     1       3.039   5.929   3.519  0.00  0.00    +0.051 A 
ATOM      3  C   UNL     1       1.816   5.915   2.874  0.00  0.00    -0.061 A 
ATOM      4  C   UNL     1       0.675   6.319   3.542  0.00  0.00    +0.005 A 
ATOM      5  C   UNL     1       0.749   6.728   4.861  0.00  0.00    +0.049 A 
ATOM      6  C   UNL     1       1.972   6.744   5.513  0.00  0.00    +0.162 A 
ENDROOT
BRANCH   6   7
ATOM      7  O   UNL     1       2.048   7.152   6.808  0.00  0.00    -0.491 OA
ATOM      8  C   UNL     1       0.827   7.549   7.436  0.00  0.00    +0.277 C 
ENDBRANCH   6   7
BRANCH   1   9
ATOM      9  O   UNL     1       4.324   6.358   5.475  0.00  0.00    -0.486 OA
BRANCH   9  10
ATOM     10  C   UNL     1       5.461   5.933   4.721  0.00  0.00    +0.258 C 
BRANCH  10  11
ATOM     11  C   UNL     1       6.713   6.016   5.596  0.00  0.00    +0.135 C 
BRANCH  11  12
ATOM     12  O   UNL     1       6.604   5.085   6.674  0.00  0.00    -0.390 OA
ATOM     13  H   UNL     1       6.515   4.164   6.391  0.00  0.00    +0.210 HD
ENDBRANCH  11  12
BRANCH  11  14
ATOM     14  C   UNL     1       7.947   5.681   4.756  0.00  0.00    -0.044 C 
BRANCH  14  16
ATOM     15  C   UNL     1       9.391   7.142   6.038  0.00  0.00    -0.096 C 
ATOM     16  N   UNL     1       9.144   5.746   5.620  0.00  0.00    +0.381 N 
ATOM     17  H   UNL     1       8.984   5.171   6.455  0.00  0.00    -0.082 HD
BRANCH  16  19
ATOM     18  C   UNL     1      10.713   6.165   3.755  0.00  0.00    -0.014 C 
ATOM     19  C   UNL     1      10.320   5.221   4.893  0.00  0.00    -0.075 C 
ATOM     20  C   UNL     1      11.487   5.090   5.873  0.00  0.00    -0.014 C 
ENDBRANCH  16  19
ENDBRANCH  14  16
ENDBRANCH  11  14
ENDBRANCH  10  11
ENDBRANCH   9  10
ENDBRANCH   1   9
BRANCH   3  21
ATOM     21  C   UNL     1       1.728   5.465   1.439  0.00  0.00    -0.046 C 
BRANCH  21  22
ATOM     22  N   UNL     1       1.491   4.009   1.403  0.00  0.00    +0.385 N 
ATOM     23  H   UNL     1       0.613   3.797   1.890  0.00  0.00    -0.085 HD
ATOM     24  H   UNL     1       2.268   3.528   1.873  0.00  0.00    -0.085 HD
BRANCH  22  25
ATOM     25  C   UNL     1       1.401   3.539   0.008  0.00  0.00    -0.039 C 
BRANCH  25  26
ATOM     26  C   UNL     1       1.159   2.052   0.002  0.00  0.00    -0.026 A 
ATOM     27  C   UNL     1      -0.017   1.379   0.010  0.00  0.00    +0.011 A 
ATOM     28  C   UNL     1       0.002  -0.004   0.002  0.00  0.00    +0.028 A 
ATOM     29  C   UNL     1       1.198  -0.645  -0.013  0.00  0.00    +0.078 A 
ATOM     30  S   UNL     1       2.348   0.720  -0.017  0.00  0.00    -0.084 S 
ATOM     31 CL   UNL     1       1.524  -2.350  -0.026  0.00  0.00    -0.076 Cl
ENDBRANCH  25  26
ENDBRANCH  22  25
ENDBRANCH  21  22
ENDBRANCH   3  21
TORSDOF 12
