REMARK  Name = ZINC04729623
REMARK  10 active torsions:
REMARK  status: ('A' for Active; 'I' for Inactive)
REMARK    1  A    between atoms: C_1  and  C_2
REMARK    2  A    between atoms: C_2  and  O_3
REMARK    3  A    between atoms: O_3  and  C_4
REMARK    4  A    between atoms: C_8  and  C_11
REMARK    5  A    between atoms: C_9  and  O_10
REMARK    6  A    between atoms: C_14  and  C_25
REMARK    7  A    between atoms: C_16  and  C_18
REMARK    8  A    between atoms: C_21  and  C_24
REMARK    9  A    between atoms: C_29  and  O_31
REMARK   10  A    between atoms: O_31  and  C_32
REMARK                            x       y       z     vdW  Elec       q    Type
REMARK                         _______ _______ _______ _____ _____    ______ ____
ROOT
ATOM      1  C   UNL     1       0.002  -0.004   0.002  0.00  0.00    -0.028 C 
ATOM      2  C   UNL     1      -0.130  -0.515  -1.436  0.00  0.00    +0.044 C 
ATOM      3  C   UNL     1       0.205  -1.980  -1.481  0.00  0.00    +0.040 C 
ATOM      4  N   UNL     1       0.815  -2.586  -0.533  0.00  0.00    -0.299 NA
ATOM      5  C   UNL     1       1.250  -1.946   0.702  0.00  0.00    +0.081 C 
ATOM      6  N   UNL     1       1.287  -0.484   0.546  0.00  0.00    +0.401 N 
ATOM      7  H   UNL     1       1.453  -0.048   1.461  0.00  0.00    -0.081 HD
ATOM      8  H   UNL     1       2.046  -0.229  -0.097  0.00  0.00    -0.081 HD
ENDROOT
BRANCH   5   9
ATOM      9  C   UNL     1       2.629  -2.438   1.057  0.00  0.00    -0.040 A 
ATOM     10  C   UNL     1       3.502  -1.614   1.744  0.00  0.00    +0.004 A 
ATOM     11  C   UNL     1       4.765  -2.067   2.074  0.00  0.00    +0.003 A 
ATOM     12  C   UNL     1       5.160  -3.340   1.709  0.00  0.00    -0.050 A 
ATOM     13  C   UNL     1       4.290  -4.162   1.017  0.00  0.00    +0.003 A 
ATOM     14  C   UNL     1       3.025  -3.711   0.692  0.00  0.00    +0.004 A 
ATOM     15  C   UNL     1       6.539  -3.832   2.064  0.00  0.00    +0.044 C 
ENDBRANCH   5   9
BRANCH   1  20
ATOM     16  C   UNL     1      -1.243   3.571   0.034  0.00  0.00    +0.162 A 
ATOM     17  C   UNL     1      -0.049   4.274   0.026  0.00  0.00    +0.049 A 
ATOM     18  C   UNL     1       1.154   3.593   0.010  0.00  0.00    +0.004 A 
ATOM     19  C   UNL     1       1.169   2.210   0.003  0.00  0.00    +0.006 A 
ATOM     20  C   UNL     1      -0.018   1.503   0.010  0.00  0.00    -0.016 A 
ATOM     21  C   UNL     1      -1.228   2.179   0.020  0.00  0.00    +0.160 A 
BRANCH  21  22
ATOM     22  O   UNL     1      -2.397   1.485   0.021  0.00  0.00    -0.503 OA
ATOM     23  H   UNL     1      -2.731   1.279   0.905  0.00  0.00    +0.292 HD
ENDBRANCH  21  22
BRANCH  16  24
ATOM     24  O   UNL     1      -2.427   4.239   0.049  0.00  0.00    -0.489 OA
BRANCH  24  26
ATOM     25  C   UNL     1      -3.786   6.238   0.072  0.00  0.00    +0.048 C 
ATOM     26  C   UNL     1      -2.366   5.667   0.056  0.00  0.00    +0.226 C 
ENDBRANCH  24  26
ENDBRANCH  16  24
ENDBRANCH   1  20
BRANCH   3  27
ATOM     27  C   UNL     1      -0.187  -2.755  -2.674  0.00  0.00    -0.001 A 
ATOM     28  C   UNL     1      -0.854  -2.128  -3.729  0.00  0.00    +0.010 A 
ATOM     29  C   UNL     1      -1.220  -2.856  -4.843  0.00  0.00    +0.004 A 
ATOM     30  C   UNL     1      -0.927  -4.205  -4.919  0.00  0.00    +0.045 A 
ATOM     31  C   UNL     1      -0.265  -4.837  -3.875  0.00  0.00    +0.121 A 
ATOM     32  C   UNL     1       0.112  -4.115  -2.755  0.00  0.00    +0.055 A 
BRANCH  31  33
ATOM     33  O   UNL     1       0.020  -6.164  -3.956  0.00  0.00    -0.495 OA
ATOM     34  C   UNL     1      -0.393  -6.845  -5.143  0.00  0.00    +0.277 C 
ENDBRANCH  31  33
ENDBRANCH   3  27
TORSDOF 7
