REMARK  Name = ZINC39856239
REMARK  8 active torsions:
REMARK  status: ('A' for Active; 'I' for Inactive)
REMARK    1  A    between atoms: C_1  and  C_2
REMARK    2  A    between atoms: C_8  and  C_10
REMARK    3  A    between atoms: C_11  and  C_26
REMARK    4  A    between atoms: C_16  and  C_24
REMARK    5  A    between atoms: C_16  and  C_25
REMARK    6  A    between atoms: N_19  and  N_20
REMARK    7  A    between atoms: N_20  and  C_21
REMARK    8  A    between atoms: C_21  and  N_23
REMARK                            x       y       z     vdW  Elec       q    Type
REMARK                         _______ _______ _______ _____ _____    ______ ____
ROOT
ATOM      1  C   UNL     1       0.090  -5.146   3.111  0.00  0.00    +0.193 A 
ATOM      2  C   UNL     1       0.115  -6.511   3.030  0.00  0.00    +0.009 A 
ATOM      3  C   UNL     1       0.125  -6.981   4.349  0.00  0.00    +0.042 A 
ATOM      4  C   UNL     1       0.105  -5.884   5.178  0.00  0.00    +0.116 A 
ATOM      5  O   UNL     1       0.092  -4.793   4.416  0.00  0.00    -0.454 OA
ATOM      6  C   UNL     1       0.103  -5.992   6.682  0.00  0.00    +0.081 C 
ATOM      7  C   UNL     1      -0.384  -7.385   7.091  0.00  0.00    -0.023 C 
ATOM      8  C   UNL     1       0.425  -8.472   6.375  0.00  0.00    +0.064 C 
ATOM      9  C   UNL     1       0.154  -8.362   4.882  0.00  0.00    +0.070 C 
ATOM     10  N   UNL     1      -0.037  -9.402   4.130  0.00  0.00    -0.185 NA
ATOM     11  C   UNL     1      -0.224  -7.551   8.603  0.00  0.00    +0.011 C 
ATOM     12  C   UNL     1      -1.862  -7.531   6.722  0.00  0.00    +0.011 C 
ATOM     13  C   UNL     1       0.128  -7.343   1.774  0.00  0.00    +0.048 C 
ENDROOT
BRANCH   1  21
ATOM     14  C   UNL     1      -0.018   1.503   0.010  0.00  0.00    +0.066 C 
ATOM     15  C   UNL     1       0.002  -0.004   0.002  0.00  0.00    +0.047 A 
ATOM     16  C   UNL     1       0.006  -0.706  -1.158  0.00  0.00    +0.071 A 
ATOM     17  S   UNL     1       0.032  -2.379  -0.535  0.00  0.00    -0.060 S 
ATOM     18  C   UNL     1       0.036  -2.015   1.108  0.00  0.00    +0.165 A 
ATOM     19  N   UNL     1       0.023  -0.700   1.124  0.00  0.00    -0.230 NA
ATOM     20  N   UNL     1       0.053  -2.891   2.186  0.00  0.00    -0.258 N 
ATOM     21  C   UNL     1       0.071  -4.221   1.972  0.00  0.00    +0.285 C 
ATOM     22  O   UNL     1       0.072  -4.656   0.836  0.00  0.00    -0.266 OA
ATOM     23  H   UNL     1       0.053  -2.545   3.092  0.00  0.00    +0.157 HD
ENDBRANCH   1  21
BRANCH  10  24
ATOM     24  N   UNL     1       0.002 -10.686   4.689  0.00  0.00    -0.218 N 
ATOM     25  H   UNL     1       0.172 -10.798   5.637  0.00  0.00    +0.176 HD
BRANCH  24  26
ATOM     26  C   UNL     1      -0.198 -11.766   3.908  0.00  0.00    +0.147 C 
ATOM     27  S   UNL     1      -0.150 -13.336   4.590  0.00  0.00    -0.017 S 
BRANCH  26  28
ATOM     28  N   UNL     1      -0.434 -11.611   2.590  0.00  0.00    -0.339 N 
ATOM     29  H   UNL     1      -0.461 -10.722   2.204  0.00  0.00    +0.144 HD
ATOM     30  H   UNL     1      -0.577 -12.389   2.028  0.00  0.00    +0.144 HD
ENDBRANCH  26  28
ENDBRANCH  24  26
ENDBRANCH  10  24
TORSDOF 4
