REMARK  Name = ZINC30499309
REMARK  11 active torsions:
REMARK  status: ('A' for Active; 'I' for Inactive)
REMARK    1  A    between atoms: C_1  and  C_2
REMARK    2  A    between atoms: C_2  and  C_3
REMARK    3  A    between atoms: N_5  and  C_6
REMARK    4  A    between atoms: C_9  and  C_12
REMARK    5  A    between atoms: C_12  and  C_14
REMARK    6  A    between atoms: C_12  and  N_15
REMARK    7  A    between atoms: N_15  and  C_16
REMARK    8  A    between atoms: C_16  and  C_18
REMARK    9  A    between atoms: C_16  and  C_19
REMARK   10  A    between atoms: N_24  and  C_25
REMARK   11  A    between atoms: C_28  and  C_31
REMARK                            x       y       z     vdW  Elec       q    Type
REMARK                         _______ _______ _______ _____ _____    ______ ____
ROOT
ATOM      1  N   UNL     1      -5.658  -2.369  -0.946  0.00  0.00    +0.391 N 
ATOM      2  H   UNL     1      -5.208  -2.134  -1.922  0.00  0.00    -0.084 HD
ATOM      3  H   UNL     1      -5.056  -3.138  -0.440  0.00  0.00    -0.084 HD
ENDROOT
BRANCH   1   4
ATOM      4  C   UNL     1      -5.697  -1.155  -0.120  0.00  0.00    -0.043 C 
ATOM      5  C   UNL     1      -5.714  -1.546   1.359  0.00  0.00    -0.009 C 
BRANCH   4   9
ATOM      6  C   UNL     1      -2.241   1.227  -0.925  0.00  0.00    +0.033 A 
ATOM      7  C   UNL     1      -2.131  -0.155  -0.850  0.00  0.00    +0.023 A 
ATOM      8  C   UNL     1      -3.249  -0.922  -0.585  0.00  0.00    +0.004 A 
ATOM      9  C   UNL     1      -4.479  -0.315  -0.404  0.00  0.00    -0.062 A 
ATOM     10  C   UNL     1      -4.592   1.060  -0.482  0.00  0.00    +0.004 A 
ATOM     11  C   UNL     1      -3.478   1.833  -0.743  0.00  0.00    +0.023 A 
BRANCH   6  14
ATOM     12  C   UNL     1      -0.976   3.217  -0.609  0.00  0.00    +0.217 C 
ATOM     13  O   UNL     1      -1.872   3.665   0.073  0.00  0.00    -0.275 OA
ATOM     14  N   UNL     1      -1.110   2.007  -1.188  0.00  0.00    -0.286 N 
ATOM     15  H   UNL     1      -0.331   1.633  -1.869  0.00  0.00    +0.155 HD
BRANCH  12  17
ATOM     16  C   UNL     1       0.189   5.331  -0.041  0.00  0.00    +0.013 C 
ATOM     17  C   UNL     1       0.291   4.009  -0.804  0.00  0.00    +0.093 C 
ENDBRANCH  12  17
ENDBRANCH   6  14
ENDBRANCH   4   9
ENDBRANCH   1   4
BRANCH   1  18
ATOM     18  C   UNL     1      -7.010  -2.900  -1.167  0.00  0.00    +0.014 C 
ATOM     19  C   UNL     1      -7.649  -2.187  -2.361  0.00  0.00    -0.004 C 
BRANCH  18  20
ATOM     20  C   UNL     1      -6.930  -4.378  -1.449  0.00  0.00    +0.206 C 
ATOM     21  O   UNL     1      -5.853  -4.935  -1.464  0.00  0.00    -0.277 OA
ATOM     22  N   UNL     1      -8.056  -5.081  -1.684  0.00  0.00    -0.241 N 
ATOM     23  C   UNL     1      -7.984  -6.403  -1.936  0.00  0.00    +0.310 C 
ATOM     24  O   UNL     1      -6.904  -6.961  -1.951  0.00  0.00    -0.252 OA
ATOM     25  N   UNL     1      -9.110  -7.106  -2.171  0.00  0.00    -0.269 N 
ATOM     26  H   UNL     1      -9.033  -4.576  -1.670  0.00  0.00    +0.159 HD
ATOM     27  H   UNL     1     -10.077  -6.588  -2.240  0.00  0.00    +0.156 HD
BRANCH  25  28
ATOM     28  C   UNL     1      -9.047  -8.496  -2.325  0.00  0.00    +0.035 A 
ATOM     29  C   UNL     1      -9.926  -9.140  -3.187  0.00  0.00    +0.023 A 
ATOM     30  C   UNL     1      -9.858 -10.511  -3.342  0.00  0.00    +0.005 A 
ATOM     31  C   UNL     1      -8.924 -11.243  -2.632  0.00  0.00    -0.050 A 
ATOM     32  C   UNL     1      -8.051 -10.605  -1.769  0.00  0.00    +0.005 A 
ATOM     33  C   UNL     1      -8.110  -9.234  -1.614  0.00  0.00    +0.023 A 
ATOM     34  C   UNL     1      -8.857 -12.739  -2.798  0.00  0.00    +0.044 C 
ENDBRANCH  25  28
ENDBRANCH  18  20
ENDBRANCH   1  18
TORSDOF 7
