REMARK  Name = ZINC12072352
REMARK  10 active torsions:
REMARK  status: ('A' for Active; 'I' for Inactive)
REMARK    1  A    between atoms: C_4  and  O_15
REMARK    2  A    between atoms: C_5  and  C_7
REMARK    3  A    between atoms: C_7  and  N_56
REMARK    4  A    between atoms: C_8  and  C_9
REMARK    5  A    between atoms: C_8  and  N_56
REMARK    6  A    between atoms: O_15  and  C_16
REMARK    7  A    between atoms: C_16  and  C_17
REMARK    8  A    between atoms: C_17  and  C_19
REMARK    9  A    between atoms: C_17  and  O_25
REMARK   10  A    between atoms: C_19  and  N_59
REMARK                            x       y       z     vdW  Elec       q    Type
REMARK                         _______ _______ _______ _____ _____    ______ ____
ROOT
ATOM      1  C   UNL     1       1.808  -4.085  -0.717  0.00  0.00    +0.000 A 
ATOM      2  C   UNL     1       0.688  -4.788  -1.121  0.00  0.00    +0.004 A 
ATOM      3  C   UNL     1      -0.445  -4.109  -1.527  0.00  0.00    +0.046 A 
ATOM      4  C   UNL     1      -0.460  -2.722  -1.524  0.00  0.00    +0.122 A 
ATOM      5  C   UNL     1       0.667  -2.019  -1.124  0.00  0.00    -0.023 A 
ATOM      6  C   UNL     1       1.798  -2.703  -0.719  0.00  0.00    +0.005 A 
ENDROOT
BRANCH   5   7
ATOM      7  C   UNL     1       0.656  -0.513  -1.124  0.00  0.00    -0.043 C 
BRANCH   7   8
ATOM      8  N   UNL     1      -0.040  -0.034   0.086  0.00  0.00    +0.382 N 
ATOM      9  H   UNL     1       0.452  -0.379   0.918  0.00  0.00    -0.085 HD
ATOM     10  H   UNL     1      -1.003  -0.390   0.085  0.00  0.00    -0.085 HD
BRANCH   8  11
ATOM     11  C   UNL     1      -0.066   1.441   0.112  0.00  0.00    -0.079 C 
BRANCH  11  12
ATOM     12  C   UNL     1      -0.792   1.907   1.375  0.00  0.00    -0.024 C 
ATOM     13  C   UNL     1      -2.262   1.483   1.306  0.00  0.00    +0.030 C 
ATOM     14  C   UNL     1      -2.998   2.022   2.536  0.00  0.00    +0.160 C 
ATOM     15  O   UNL     1      -2.862   3.443   2.586  0.00  0.00    -0.380 OA
ATOM     16  C   UNL     1      -1.512   3.897   2.699  0.00  0.00    +0.160 C 
ATOM     17  C   UNL     1      -0.716   3.433   1.476  0.00  0.00    +0.030 C 
ENDBRANCH  11  12
ENDBRANCH   8  11
ENDBRANCH   7   8
ENDBRANCH   5   7
BRANCH   4  18
ATOM     18  O   UNL     1      -1.575  -2.052  -1.918  0.00  0.00    -0.489 OA
BRANCH  18  19
ATOM     19  C   UNL     1      -2.698  -2.841  -2.318  0.00  0.00    +0.258 C 
BRANCH  19  20
ATOM     20  C   UNL     1      -3.849  -1.919  -2.724  0.00  0.00    +0.135 C 
BRANCH  20  21
ATOM     21  O   UNL     1      -4.293  -1.180  -1.583  0.00  0.00    -0.390 OA
ATOM     22  H   UNL     1      -4.612  -1.733  -0.857  0.00  0.00    +0.210 HD
ENDBRANCH  20  21
BRANCH  20  23
ATOM     23  C   UNL     1      -5.007  -2.758  -3.269  0.00  0.00    -0.044 C 
BRANCH  23  29
ATOM     24  C   UNL     1      -7.381  -2.598  -3.696  0.00  0.00    -0.068 C 
ATOM     25  C   UNL     1      -8.547  -1.603  -3.656  0.00  0.00    +0.050 C 
ATOM     26  S   UNL     1      -8.446  -0.543  -5.132  0.00  0.00    -0.164 S 
ATOM     27  C   UNL     1      -6.717   0.022  -5.103  0.00  0.00    +0.050 C 
ATOM     28  C   UNL     1      -5.812  -1.204  -4.937  0.00  0.00    -0.068 C 
ATOM     29  N   UNL     1      -6.105  -1.847  -3.637  0.00  0.00    +0.382 N 
ATOM     30  H   UNL     1      -6.185  -1.117  -2.919  0.00  0.00    -0.082 HD
ENDBRANCH  23  29
ENDBRANCH  20  23
ENDBRANCH  19  20
ENDBRANCH  18  19
ENDBRANCH   4  18
TORSDOF 10
