REMARK  Name = ZINC47683645
REMARK  14 active torsions:
REMARK  status: ('A' for Active; 'I' for Inactive)
REMARK    1  A    between atoms: C_1  and  C_2
REMARK    2  A    between atoms: C_2  and  C_3
REMARK    3  A    between atoms: C_2  and  N_4
REMARK    4  A    between atoms: N_4  and  C_5
REMARK    5  A    between atoms: N_4  and  C_23
REMARK    6  A    between atoms: C_5  and  C_6
REMARK    7  A    between atoms: C_6  and  N_7
REMARK    8  A    between atoms: N_10  and  C_11
REMARK    9  A    between atoms: C_11  and  C_12
REMARK   10  A    between atoms: C_11  and  C_13
REMARK   11  A    between atoms: C_17  and  S_19
REMARK   12  A    between atoms: S_19  and  N_22
REMARK   13  A    between atoms: C_23  and  C_24
REMARK   14  A    between atoms: C_23  and  C_25
REMARK                            x       y       z     vdW  Elec       q    Type
REMARK                         _______ _______ _______ _____ _____    ______ ____
ROOT
ATOM      1  N   UNL     1      -4.520   0.820  -1.906  0.00  0.00    -0.301 N 
ATOM      2  C   UNL     1      -5.723   1.403  -1.734  0.00  0.00    +0.300 C 
ATOM      3  O   UNL     1      -6.143   1.614  -0.613  0.00  0.00    -0.253 OA
ATOM      4  N   UNL     1      -6.462   1.752  -2.807  0.00  0.00    -0.293 N 
ATOM      5  H   UNL     1      -4.186   0.652  -2.800  0.00  0.00    +0.150 HD
ATOM      6  H   UNL     1      -6.127   1.584  -3.701  0.00  0.00    +0.151 HD
ENDROOT
BRANCH   4   7
ATOM      7  C   UNL     1      -7.770   2.386  -2.621  0.00  0.00    +0.102 C 
ATOM      8  C   UNL     1      -8.835   1.306  -2.421  0.00  0.00    +0.033 C 
BRANCH   7   9
ATOM      9  C   UNL     1      -8.108   3.207  -3.838  0.00  0.00    -0.026 A 
ATOM     10  C   UNL     1      -7.814   2.725  -5.100  0.00  0.00    +0.005 A 
ATOM     11  C   UNL     1      -8.124   3.478  -6.217  0.00  0.00    +0.002 A 
ATOM     12  C   UNL     1      -8.728   4.713  -6.072  0.00  0.00    +0.028 A 
ATOM     13  C   UNL     1      -9.023   5.195  -4.810  0.00  0.00    +0.105 A 
ATOM     14  C   UNL     1      -8.717   4.439  -3.693  0.00  0.00    +0.034 A 
BRANCH  13  15
ATOM     15  S   UNL     1      -9.793   6.769  -4.625  0.00  0.00    +0.056 S 
ATOM     16  O   UNL     1      -9.467   7.229  -3.321  0.00  0.00    -0.153 OA
ATOM     17  O   UNL     1      -9.482   7.513  -5.795  0.00  0.00    -0.153 OA
BRANCH  15  18
ATOM     18  N   UNL     1     -11.430   6.519  -4.643  0.00  0.00    -0.204 NA
ATOM     19  H   UNL     1     -12.016   7.112  -4.149  0.00  0.00    +0.144 HD
ATOM     20  H   UNL     1     -11.801   5.779  -5.149  0.00  0.00    +0.144 HD
ENDBRANCH  15  18
ENDBRANCH  13  15
ENDBRANCH   7   9
ENDBRANCH   4   7
BRANCH   1  21
ATOM     21  C   UNL     1      -3.718   0.441  -0.740  0.00  0.00    +0.087 C 
BRANCH  21  22
ATOM     22  C   UNL     1      -2.408  -0.196  -1.208  0.00  0.00    -0.059 C 
BRANCH  22  23
ATOM     23  N   UNL     1      -1.616  -0.603  -0.040  0.00  0.00    +0.384 N 
ATOM     24  H   UNL     1      -1.479   0.191   0.567  0.00  0.00    -0.081 HD
BRANCH  23  26
ATOM     25  C   UNL     1       0.420  -0.018  -1.267  0.00  0.00    -0.014 C 
ATOM     26  C   UNL     1      -0.311  -1.110  -0.485  0.00  0.00    -0.074 C 
ATOM     27  C   UNL     1       0.523  -1.511   0.733  0.00  0.00    -0.014 C 
ENDBRANCH  23  26
BRANCH  23  28
ATOM     28  C   UNL     1      -2.329  -1.660   0.690  0.00  0.00    -0.074 C 
ATOM     29  C   UNL     1      -2.028  -3.016   0.048  0.00  0.00    -0.014 C 
ATOM     30  C   UNL     1      -1.868  -1.673   2.148  0.00  0.00    -0.014 C 
ENDBRANCH  23  28
ENDBRANCH  22  23
ENDBRANCH  21  22
ENDBRANCH   1  21
TORSDOF 9
