REMARK  Name = ZINC14976641
REMARK  12 active torsions:
REMARK  status: ('A' for Active; 'I' for Inactive)
REMARK    1  A    between atoms: C_3  and  S_28
REMARK    2  A    between atoms: C_6  and  C_7
REMARK    3  A    between atoms: C_7  and  C_8
REMARK    4  A    between atoms: C_8  and  N_9
REMARK    5  A    between atoms: C_10  and  C_16
REMARK    6  A    between atoms: C_16  and  C_17
REMARK    7  A    between atoms: C_17  and  N_58
REMARK    8  A    between atoms: C_18  and  C_19
REMARK    9  A    between atoms: C_18  and  N_58
REMARK   10  A    between atoms: C_19  and  O_20
REMARK   11  A    between atoms: O_20  and  C_21
REMARK   12  A    between atoms: S_28  and  N_31
REMARK                            x       y       z     vdW  Elec       q    Type
REMARK                         _______ _______ _______ _____ _____    ______ ____
ROOT
ATOM      1  N   UNL     1       1.389   1.674   0.475  0.00  0.00    -0.298 N 
ATOM      2  C   UNL     1       2.210   2.389   1.459  0.00  0.00    +0.075 C 
ATOM      3  C   UNL     1       3.625   2.461   0.838  0.00  0.00    +0.031 C 
ATOM      4  C   UNL     1       3.309   2.375  -0.673  0.00  0.00    +0.098 C 
ATOM      5  C   UNL     1       1.978   1.658  -0.734  0.00  0.00    +0.216 C 
ATOM      6  O   UNL     1       1.510   1.145  -1.728  0.00  0.00    -0.276 OA
ENDROOT
BRANCH   1   7
ATOM      7  C   UNL     1       0.092   1.061   0.770  0.00  0.00    +0.112 C 
BRANCH   7   8
ATOM      8  C   UNL     1       0.294  -0.410   1.137  0.00  0.00    +0.054 C 
BRANCH   8  14
ATOM      9  C   UNL     1      -1.531  -1.032   2.733  0.00  0.00    +0.005 A 
ATOM     10  C   UNL     1      -2.758  -1.605   3.011  0.00  0.00    +0.029 A 
ATOM     11  C   UNL     1      -3.488  -2.198   1.998  0.00  0.00    +0.105 A 
ATOM     12  C   UNL     1      -2.995  -2.212   0.707  0.00  0.00    +0.029 A 
ATOM     13  C   UNL     1      -1.771  -1.634   0.428  0.00  0.00    +0.005 A 
ATOM     14  C   UNL     1      -1.040  -1.041   1.441  0.00  0.00    -0.046 A 
BRANCH  11  15
ATOM     15  S   UNL     1      -5.049  -2.936   2.353  0.00  0.00    +0.056 S 
ATOM     16  O   UNL     1      -5.535  -2.310   3.533  0.00  0.00    -0.153 OA
ATOM     17  O   UNL     1      -5.782  -2.941   1.136  0.00  0.00    -0.153 OA
BRANCH  15  18
ATOM     18  N   UNL     1      -4.764  -4.521   2.741  0.00  0.00    -0.204 NA
ATOM     19  H   UNL     1      -3.857  -4.865   2.738  0.00  0.00    +0.144 HD
ATOM     20  H   UNL     1      -5.504  -5.104   2.971  0.00  0.00    +0.144 HD
ENDBRANCH  15  18
ENDBRANCH  11  15
ENDBRANCH   8  14
ENDBRANCH   7   8
ENDBRANCH   1   7
BRANCH   2  21
ATOM     21  C   UNL     1       1.656   3.797   1.687  0.00  0.00    +0.003 C 
BRANCH  21  22
ATOM     22  C   UNL     1       0.238   3.702   2.253  0.00  0.00    -0.081 C 
BRANCH  22  23
ATOM     23  N   UNL     1      -0.233   5.054   2.607  0.00  0.00    +0.381 N 
ATOM     24  H   UNL     1      -0.232   5.644   1.767  0.00  0.00    -0.086 HD
ATOM     25  H   UNL     1       0.397   5.458   3.310  0.00  0.00    -0.086 HD
BRANCH  23  26
ATOM     26  C   UNL     1      -1.601   4.992   3.156  0.00  0.00    -0.041 C 
BRANCH  26  27
ATOM     27  C   UNL     1      -2.061   6.407   3.514  0.00  0.00    +0.210 C 
BRANCH  27  28
ATOM     28  O   UNL     1      -2.163   7.190   2.323  0.00  0.00    -0.494 OA
BRANCH  28  29
ATOM     29  C   UNL     1      -2.563   8.482   2.466  0.00  0.00    +0.121 A 
ATOM     30  C   UNL     1      -2.857   8.982   3.726  0.00  0.00    +0.048 A 
ATOM     31  C   UNL     1      -3.258  10.296   3.870  0.00  0.00    +0.042 A 
ATOM     32  C   UNL     1      -3.378  11.110   2.757  0.00  0.00    +0.124 A 
ATOM     33  C   UNL     1      -3.090  10.611   1.498  0.00  0.00    +0.042 A 
ATOM     34  C   UNL     1      -2.683   9.299   1.352  0.00  0.00    +0.048 A 
ATOM     35  F   UNL     1      -3.775  12.394   2.899  0.00  0.00    -0.205 F 
ENDBRANCH  28  29
ENDBRANCH  27  28
ENDBRANCH  26  27
ENDBRANCH  23  26
ENDBRANCH  22  23
ENDBRANCH  21  22
ENDBRANCH   2  21
TORSDOF 12
