REMARK  Name = ZINC63102193
REMARK  8 active torsions:
REMARK  status: ('A' for Active; 'I' for Inactive)
REMARK    1  A    between atoms: C_3  and  S_12
REMARK    2  A    between atoms: C_4  and  C_8
REMARK    3  A    between atoms: C_9  and  C_10
REMARK    4  A    between atoms: C_10  and  O_11
REMARK    5  A    between atoms: S_12  and  N_15
REMARK    6  A    between atoms: N_15  and  C_16
REMARK    7  A    between atoms: C_16  and  C_17
REMARK    8  A    between atoms: C_17  and  C_18
REMARK                            x       y       z     vdW  Elec       q    Type
REMARK                         _______ _______ _______ _____ _____    ______ ____
ROOT
ATOM      1  C   UNL     1      -0.026   2.310  -0.080  0.00  0.00    +0.040 A 
ATOM      2  C   UNL     1       1.275   2.780  -0.082  0.00  0.00    +0.032 A 
ATOM      3  C   UNL     1       2.331   1.895  -0.013  0.00  0.00    +0.121 A 
ATOM      4  C   UNL     1       2.087   0.523   0.060  0.00  0.00    +0.054 A 
ATOM      5  C   UNL     1       0.773   0.053   0.062  0.00  0.00    +0.057 A 
ATOM      6  C   UNL     1      -0.277   0.949  -0.008  0.00  0.00    +0.125 A 
ATOM      7  F   UNL     1      -1.550   0.497  -0.007  0.00  0.00    -0.205 F 
ENDROOT
BRANCH   3   8
ATOM      8  S   UNL     1       3.987   2.497  -0.016  0.00  0.00    +0.060 S 
ATOM      9  O   UNL     1       3.905   3.910  -0.137  0.00  0.00    -0.153 OA
ATOM     10  O   UNL     1       4.652   1.862   1.067  0.00  0.00    -0.153 OA
BRANCH   8  11
ATOM     11  N   UNL     1       4.706   1.944  -1.402  0.00  0.00    -0.190 NA
ATOM     12  H   UNL     1       5.461   1.337  -1.348  0.00  0.00    +0.148 HD
BRANCH  11  13
ATOM     13  C   UNL     1       4.202   2.372  -2.709  0.00  0.00    +0.114 C 
BRANCH  13  14
ATOM     14  C   UNL     1       5.246   2.064  -3.784  0.00  0.00    +0.130 C 
BRANCH  14  15
ATOM     15  C   UNL     1       4.674   2.401  -5.163  0.00  0.00    +0.391 C 
ATOM     16  F   UNL     1       4.436   3.777  -5.245  0.00  0.00    -0.171 F 
ATOM     17  F   UNL     1       5.589   2.025  -6.152  0.00  0.00    -0.171 F 
ATOM     18  F   UNL     1       3.473   1.708  -5.351  0.00  0.00    -0.171 F 
ENDBRANCH  14  15
ENDBRANCH  13  14
ENDBRANCH  11  13
ENDBRANCH   8  11
ENDBRANCH   3   8
BRANCH   4  19
ATOM     19  C   UNL     1       3.180  -0.399   0.131  0.00  0.00    -0.062 C 
ATOM     20  C   UNL     1       4.076  -1.155   0.190  0.00  0.00    -0.069 C 
BRANCH  20  21
ATOM     21  C   UNL     1       5.199  -2.103   0.264  0.00  0.00    +0.244 C 
BRANCH  21  22
ATOM     22  O   UNL     1       4.693  -3.438   0.329  0.00  0.00    -0.383 OA
ATOM     23  H   UNL     1       5.380  -4.117   0.380  0.00  0.00    +0.211 HD
ENDBRANCH  21  22
ENDBRANCH  20  21
ENDBRANCH   4  19
TORSDOF 8
