REMARK  Name = ZINC43222422
REMARK  11 active torsions:
REMARK  status: ('A' for Active; 'I' for Inactive)
REMARK    1  A    between atoms: C_1  and  C_2
REMARK    2  A    between atoms: C_2  and  C_4
REMARK    3  A    between atoms: C_2  and  N_12
REMARK    4  A    between atoms: C_4  and  C_5
REMARK    5  A    between atoms: C_5  and  C_6
REMARK    6  A    between atoms: C_13  and  C_15
REMARK    7  A    between atoms: C_20  and  C_22
REMARK    8  A    between atoms: N_24  and  C_25
REMARK    9  A    between atoms: C_25  and  C_26
REMARK   10  A    between atoms: C_31  and  O_32
REMARK   11  A    between atoms: O_32  and  C_33
REMARK                            x       y       z     vdW  Elec       q    Type
REMARK                         _______ _______ _______ _____ _____    ______ ____
ROOT
ATOM      1  C   UNL     1       0.712  -1.094  -3.598  0.00  0.00    +0.068 C 
ATOM      2  C   UNL     1       1.236  -2.531  -3.389  0.00  0.00    -0.069 C 
ATOM      3  N   UNL     1       0.174  -3.403  -3.953  0.00  0.00    +0.380 N 
ATOM      4  C   UNL     1      -0.274  -2.688  -5.176  0.00  0.00    -0.069 C 
ATOM      5  C   UNL     1      -0.281  -1.195  -4.775  0.00  0.00    +0.068 C 
ATOM      6  H   UNL     1       0.550  -4.308  -4.192  0.00  0.00    -0.086 HD
ATOM      7  H   UNL     1      -0.590  -3.497  -3.300  0.00  0.00    -0.086 HD
ENDROOT
BRANCH   1   9
ATOM      8  N   UNL     1       0.688  -0.476  -1.203  0.00  0.00    -0.313 N 
ATOM      9  C   UNL     1       0.006  -0.608  -2.358  0.00  0.00    +0.215 C 
ATOM     10  O   UNL     1      -1.175  -0.336  -2.400  0.00  0.00    -0.276 OA
ATOM     11  H   UNL     1       1.632  -0.695  -1.170  0.00  0.00    +0.149 HD
BRANCH   8  13
ATOM     12  C   UNL     1      -0.019   1.526   0.010  0.00  0.00    +0.028 C 
ATOM     13  C   UNL     1       0.002  -0.004   0.002  0.00  0.00    +0.070 C 
BRANCH  13  14
ATOM     14  C   UNL     1       0.742  -0.511   1.242  0.00  0.00    +0.026 C 
BRANCH  14  15
ATOM     15  C   UNL     1       0.655  -2.037   1.299  0.00  0.00    +0.037 C 
BRANCH  15  16
ATOM     16  C   UNL     1       1.384  -2.537   2.519  0.00  0.00    -0.047 A 
ATOM     17  C   UNL     1       2.731  -2.841   2.444  0.00  0.00    +0.003 A 
ATOM     18  C   UNL     1       3.399  -3.299   3.564  0.00  0.00    +0.000 A 
ATOM     19  C   UNL     1       2.722  -3.452   4.759  0.00  0.00    +0.000 A 
ATOM     20  C   UNL     1       1.375  -3.146   4.835  0.00  0.00    +0.000 A 
ATOM     21  C   UNL     1       0.708  -2.684   3.716  0.00  0.00    +0.003 A 
ENDBRANCH  15  16
ENDBRANCH  14  15
ENDBRANCH  13  14
ENDBRANCH   8  13
ENDBRANCH   1   9
BRANCH   5  22
ATOM     22  C   UNL     1       0.183  -0.339  -5.926  0.00  0.00    +0.215 C 
ATOM     23  O   UNL     1       1.210   0.298  -5.832  0.00  0.00    -0.276 OA
ATOM     24  N   UNL     1      -0.544  -0.283  -7.059  0.00  0.00    -0.311 N 
ATOM     25  H   UNL     1      -1.365  -0.794  -7.135  0.00  0.00    +0.149 HD
BRANCH  24  26
ATOM     26  C   UNL     1      -0.093   0.548  -8.178  0.00  0.00    +0.143 C 
BRANCH  26  27
ATOM     27  C   UNL     1      -1.075   0.436  -9.316  0.00  0.00    +0.011 A 
ATOM     28  C   UNL     1      -0.806  -0.402 -10.381  0.00  0.00    +0.009 A 
ATOM     29  C   UNL     1      -1.707  -0.505 -11.425  0.00  0.00    +0.001 A 
ATOM     30  C   UNL     1      -2.879   0.229 -11.405  0.00  0.00    +0.004 A 
ATOM     31  C   UNL     1      -3.152   1.067 -10.342  0.00  0.00    +0.046 A 
ATOM     32  C   UNL     1      -2.252   1.169  -9.291  0.00  0.00    +0.125 A 
BRANCH  32  33
ATOM     33  O   UNL     1      -2.522   1.988  -8.241  0.00  0.00    -0.495 OA
ATOM     34  C   UNL     1      -3.753   2.713  -8.283  0.00  0.00    +0.277 C 
ENDBRANCH  32  33
ENDBRANCH  26  27
ENDBRANCH  24  26
ENDBRANCH   5  22
TORSDOF 9
