REMARK  Name = ZINC39674555
REMARK  8 active torsions:
REMARK  status: ('A' for Active; 'I' for Inactive)
REMARK    1  A    between atoms: C_1  and  C_2
REMARK    2  A    between atoms: C_6  and  C_7
REMARK    3  A    between atoms: C_11  and  C_20
REMARK    4  A    between atoms: N_22  and  C_23
REMARK    5  A    between atoms: C_23  and  C_25
REMARK    6  A    between atoms: C_23  and  C_26
REMARK    7  A    between atoms: C_27  and  C_33
REMARK    8  A    between atoms: C_30  and  C_32
REMARK                            x       y       z     vdW  Elec       q    Type
REMARK                         _______ _______ _______ _____ _____    ______ ____
ROOT
ATOM      1  C   UNL     1       0.506   0.450   3.051  0.00  0.00    +0.254 C 
ATOM      2  O   UNL     1       0.554   1.550   3.567  0.00  0.00    -0.269 OA
ATOM      3  N   UNL     1       0.404  -0.652   3.821  0.00  0.00    -0.296 N 
ATOM      4  C   UNL     1       0.443  -2.069   3.389  0.00  0.00    +0.121 C 
ATOM      5  C   UNL     1       1.259  -2.789   4.486  0.00  0.00    +0.100 C 
ATOM      6  C   UNL     1       1.110  -1.900   5.732  0.00  0.00    -0.004 C 
ATOM      7  C   UNL     1       0.232  -0.720   5.292  0.00  0.00    +0.115 C 
ATOM      8  C   UNL     1       0.431  -2.675   6.857  0.00  0.00    -0.010 C 
ATOM      9  C   UNL     1       0.347  -1.789   8.103  0.00  0.00    -0.082 C 
ATOM     10  N   UNL     1       1.698  -1.383   8.508  0.00  0.00    +0.379 N 
ATOM     11  C   UNL     1       2.310  -0.559   7.458  0.00  0.00    -0.082 C 
ATOM     12  C   UNL     1       2.477  -1.393   6.185  0.00  0.00    -0.010 C 
ATOM     13  H   UNL     1       1.645  -0.850   9.364  0.00  0.00    -0.086 HD
ATOM     14  H   UNL     1       2.263  -2.205   8.661  0.00  0.00    -0.086 HD
ENDROOT
BRANCH   1  20
ATOM     15  C   UNL     1       1.018   2.743   1.006  0.00  0.00    +0.045 C 
ATOM     16  C   UNL     1       0.784   1.301   0.636  0.00  0.00    -0.031 A 
ATOM     17  C   UNL     1       0.783   0.872  -0.670  0.00  0.00    +0.011 A 
ATOM     18  C   UNL     1       0.566  -0.441  -0.932  0.00  0.00    +0.046 A 
ATOM     19  S   UNL     1       0.356  -1.135   0.583  0.00  0.00    -0.092 S 
ATOM     20  C   UNL     1       0.561   0.321   1.591  0.00  0.00    +0.077 A 
ENDBRANCH   1  20
BRANCH   5  21
ATOM     21  C   UNL     1       2.707  -2.892   4.081  0.00  0.00    +0.219 C 
ATOM     22  O   UNL     1       3.194  -2.053   3.354  0.00  0.00    -0.275 OA
ATOM     23  N   UNL     1       3.460  -3.917   4.528  0.00  0.00    -0.309 N 
ATOM     24  H   UNL     1       3.070  -4.588   5.109  0.00  0.00    +0.149 HD
BRANCH  23  25
ATOM     25  C   UNL     1       4.867  -4.017   4.134  0.00  0.00    +0.100 C 
ATOM     26  C   UNL     1       4.970  -4.723   2.781  0.00  0.00    +0.033 C 
BRANCH  25  27
ATOM     27  C   UNL     1       5.624  -4.806   5.171  0.00  0.00    -0.001 C 
ATOM     28  C   UNL     1       6.698  -4.430   5.869  0.00  0.00    +0.063 C 
ATOM     29  N   UNL     1       7.094  -5.413   6.707  0.00  0.00    -0.159 NA
ATOM     30  N   UNL     1       6.404  -6.434   6.662  0.00  0.00    -0.180 NA
ATOM     31  C   UNL     1       5.338  -6.212   5.670  0.00  0.00    +0.154 C 
ATOM     32  C   UNL     1       5.446  -7.223   4.527  0.00  0.00    +0.039 C 
ATOM     33  C   UNL     1       7.376  -3.090   5.740  0.00  0.00    +0.067 C 
ENDBRANCH  25  27
ENDBRANCH  23  25
ENDBRANCH   5  21
TORSDOF 4
