REMARK  Name = ZINC67381654
REMARK  9 active torsions:
REMARK  status: ('A' for Active; 'I' for Inactive)
REMARK    1  A    between atoms: C_1  and  C_2
REMARK    2  A    between atoms: C_6  and  C_7
REMARK    3  A    between atoms: N_9  and  N_10
REMARK    4  A    between atoms: N_13  and  C_14
REMARK    5  A    between atoms: C_14  and  C_15
REMARK    6  A    between atoms: C_15  and  C_17
REMARK    7  A    between atoms: C_15  and  N_22
REMARK    8  A    between atoms: N_22  and  C_23
REMARK    9  A    between atoms: N_22  and  C_24
REMARK                            x       y       z     vdW  Elec       q    Type
REMARK                         _______ _______ _______ _____ _____    ______ ____
ROOT
ATOM      1  N   UNL     1       0.983  -1.006   5.410  0.00  0.00    -0.218 N 
ATOM      2  C   UNL     1       0.708  -1.955   6.326  0.00  0.00    +0.316 C 
ATOM      3  O   UNL     1       0.624  -1.659   7.502  0.00  0.00    -0.251 OA
ATOM      4  N   UNL     1       0.526  -3.233   5.938  0.00  0.00    -0.299 N 
ATOM      5  H   UNL     1       1.114  -0.086   5.689  0.00  0.00    +0.174 HD
ATOM      6  H   UNL     1       0.593  -3.469   5.000  0.00  0.00    +0.150 HD
ENDROOT
BRANCH   1   9
ATOM      7  C   UNL     1       1.354  -0.397   3.139  0.00  0.00    +0.267 C 
ATOM      8  O   UNL     1       1.518   0.757   3.489  0.00  0.00    -0.268 OA
ATOM      9  N   UNL     1       1.079  -1.347   4.055  0.00  0.00    -0.229 N 
ATOM     10  H   UNL     1       0.948  -2.266   3.776  0.00  0.00    +0.173 HD
BRANCH   7  16
ATOM     11  C   UNL     1       1.971   1.540   0.779  0.00  0.00    +0.045 C 
ATOM     12  C   UNL     1       1.725   0.061   0.631  0.00  0.00    -0.031 A 
ATOM     13  C   UNL     1       1.761  -0.568  -0.590  0.00  0.00    +0.011 A 
ATOM     14  C   UNL     1       1.531  -1.903  -0.651  0.00  0.00    +0.046 A 
ATOM     15  S   UNL     1       1.259  -2.348   0.946  0.00  0.00    -0.092 S 
ATOM     16  C   UNL     1       1.454  -0.754   1.720  0.00  0.00    +0.078 A 
ENDBRANCH   7  16
ENDBRANCH   1   9
BRANCH   4  17
ATOM     17  C   UNL     1       0.227  -4.266   6.934  0.00  0.00    +0.098 C 
BRANCH  17  18
ATOM     18  C   UNL     1      -0.058  -5.591   6.224  0.00  0.00    +0.016 C 
BRANCH  18  19
ATOM     19  C   UNL     1       1.192  -6.069   5.532  0.00  0.00    +0.093 A 
ATOM     20  C   UNL     1       2.034  -7.011   5.991  0.00  0.00    +0.043 A 
ATOM     21  C   UNL     1       3.063  -7.144   5.031  0.00  0.00    +0.041 A 
ATOM     22  C   UNL     1       2.788  -6.275   4.042  0.00  0.00    +0.195 A 
ATOM     23  O   UNL     1       1.650  -5.631   4.348  0.00  0.00    -0.469 OA
ENDBRANCH  18  19
BRANCH  18  24
ATOM     24  N   UNL     1      -1.124  -5.396   5.232  0.00  0.00    +0.384 N 
ATOM     25  C   UNL     1      -1.392  -6.666   4.545  0.00  0.00    -0.096 C 
ATOM     26  C   UNL     1      -2.345  -4.938   5.909  0.00  0.00    -0.096 C 
ATOM     27  H   UNL     1      -0.833  -4.703   4.559  0.00  0.00    -0.082 HD
ENDBRANCH  18  24
ENDBRANCH  17  18
ENDBRANCH   4  17
TORSDOF 6
