REMARK  Name = ZINC27528859
REMARK  8 active torsions:
REMARK  status: ('A' for Active; 'I' for Inactive)
REMARK    1  A    between atoms: C_3  and  C_6
REMARK    2  A    between atoms: C_6  and  N_7
REMARK    3  A    between atoms: N_7  and  C_8
REMARK    4  A    between atoms: C_8  and  C_9
REMARK    5  A    between atoms: C_9  and  C_10
REMARK    6  A    between atoms: C_13  and  N_16
REMARK    7  A    between atoms: N_16  and  C_17
REMARK    8  A    between atoms: C_17  and  C_18
REMARK                            x       y       z     vdW  Elec       q    Type
REMARK                         _______ _______ _______ _____ _____    ______ ____
ROOT
ATOM      1  C   UNL     1       1.270  -6.757  -2.186  0.00  0.00    -0.049 A 
ATOM      2  C   UNL     1       1.248  -5.854  -3.234  0.00  0.00    +0.005 A 
ATOM      3  C   UNL     1       1.232  -4.497  -2.978  0.00  0.00    +0.023 A 
ATOM      4  C   UNL     1       1.238  -4.039  -1.666  0.00  0.00    +0.027 A 
ATOM      5  C   UNL     1       1.265  -4.948  -0.617  0.00  0.00    +0.023 A 
ATOM      6  C   UNL     1       1.276  -6.304  -0.879  0.00  0.00    +0.005 A 
ENDROOT
BRANCH   4   7
ATOM      7  N   UNL     1       1.222  -2.667  -1.404  0.00  0.00    -0.340 N 
ATOM      8  H   UNL     1       1.204  -1.948  -2.236  0.00  0.00    +0.146 HD
BRANCH   7   9
ATOM      9  C   UNL     1       1.228  -2.186  -0.020  0.00  0.00    +0.136 C 
BRANCH   9  10
ATOM     10  C   UNL     1       1.208  -0.679  -0.013  0.00  0.00    -0.030 A 
ATOM     11  C   UNL     1       0.002  -0.004   0.002  0.00  0.00    +0.006 A 
ATOM     12  C   UNL     1      -0.017   1.378   0.010  0.00  0.00    +0.015 A 
ATOM     13  C   UNL     1       1.172   2.086   0.002  0.00  0.00    +0.018 A 
ATOM     14  C   UNL     1       2.379   1.410  -0.013  0.00  0.00    +0.015 A 
ATOM     15  C   UNL     1       2.396   0.028  -0.021  0.00  0.00    +0.006 A 
ATOM     16 BR   UNL     1       1.147   3.976   0.013  0.00  0.00    -0.050 Br
ENDBRANCH   9  10
ENDBRANCH   7   9
ENDBRANCH   4   7
BRANCH   1  17
ATOM     17  C   UNL     1       1.287  -8.237  -2.469  0.00  0.00    +0.016 C 
BRANCH  17  18
ATOM     18  C   UNL     1       2.735  -8.718  -2.579  0.00  0.00    -0.077 C 
BRANCH  18  19
ATOM     19  N   UNL     1       2.751 -10.161  -2.855  0.00  0.00    +0.384 N 
ATOM     20  H   UNL     1       2.217 -10.346  -3.798  0.00  0.00    -0.085 HD
ATOM     21  H   UNL     1       2.238 -10.683  -2.034  0.00  0.00    -0.085 HD
BRANCH  19  22
ATOM     22  C   UNL     1       4.129 -10.660  -2.967  0.00  0.00    -0.007 C 
BRANCH  22  25
ATOM     23  C   UNL     1       4.065 -14.107  -4.268  0.00  0.00    +0.041 A 
ATOM     24  C   UNL     1       4.080 -12.708  -4.468  0.00  0.00    +0.042 A 
ATOM     25  C   UNL     1       4.105 -12.140  -3.249  0.00  0.00    +0.088 A 
ATOM     26  O   UNL     1       4.112 -13.116  -2.327  0.00  0.00    -0.470 OA
ATOM     27  C   UNL     1       4.082 -14.311  -2.939  0.00  0.00    +0.195 A 
ENDBRANCH  22  25
ENDBRANCH  19  22
ENDBRANCH  18  19
ENDBRANCH  17  18
ENDBRANCH   1  17
TORSDOF 8
