REMARK  Name = ZINC15959621
REMARK  6 active torsions:
REMARK  status: ('A' for Active; 'I' for Inactive)
REMARK    1  A    between atoms: C_1  and  C_2
REMARK    2  A    between atoms: C_2  and  C_36
REMARK    3  A    between atoms: C_4  and  N_9
REMARK    4  A    between atoms: C_6  and  C_7
REMARK    5  A    between atoms: C_6  and  C_8
REMARK    6  A    between atoms: C_10  and  C_12
REMARK                            x       y       z     vdW  Elec       q    Type
REMARK                         _______ _______ _______ _____ _____    ______ ____
ROOT
ATOM      1  C   UNL     1       5.839  -1.704   0.295  0.00  0.00    +0.167 C 
ATOM      2  C   UNL     1       5.043  -0.420   0.019  0.00  0.00    +0.069 C 
ATOM      3  C   UNL     1       3.564  -0.708   0.038  0.00  0.00    -0.015 A 
ATOM      4  C   UNL     1       2.482   0.257   0.130  0.00  0.00    +0.003 A 
ATOM      5  C   UNL     1       2.468   1.651   0.232  0.00  0.00    +0.010 A 
ATOM      6  C   UNL     1       1.236   2.256   0.295  0.00  0.00    +0.001 A 
ATOM      7  C   UNL     1       0.057   1.529   0.261  0.00  0.00    +0.002 A 
ATOM      8  C   UNL     1       0.043   0.148   0.162  0.00  0.00    +0.026 A 
ATOM      9  C   UNL     1       1.279  -0.492   0.096  0.00  0.00    +0.047 A 
ATOM     10  N   UNL     1       1.623  -1.809  -0.005  0.00  0.00    -0.356 N 
ATOM     11  H   UNL     1       0.997  -2.548  -0.049  0.00  0.00    +0.166 HD
ATOM     12  C   UNL     1       2.986  -1.928  -0.035  0.00  0.00    +0.046 A 
ATOM     13  C   UNL     1       3.781  -3.208  -0.118  0.00  0.00    +0.155 C 
ATOM     14  N   UNL     1       5.174  -2.803  -0.415  0.00  0.00    -0.273 N 
ATOM     15  C   UNL     1       5.627  -3.539  -1.439  0.00  0.00    +0.248 C 
ATOM     16  O   UNL     1       6.783  -3.586  -1.810  0.00  0.00    -0.270 OA
ATOM     17  C   UNL     1       4.514  -4.280  -2.043  0.00  0.00    +0.042 A 
ATOM     18  C   UNL     1       3.362  -4.074  -1.257  0.00  0.00    -0.009 A 
ATOM     19  C   UNL     1       2.149  -4.630  -1.598  0.00  0.00    +0.006 A 
ATOM     20  C   UNL     1       2.114  -5.418  -2.744  0.00  0.00    +0.000 A 
ATOM     21  C   UNL     1       3.240  -5.638  -3.511  0.00  0.00    +0.001 A 
ATOM     22  C   UNL     1       4.467  -5.079  -3.187  0.00  0.00    +0.013 A 
ENDROOT
BRANCH   1  24
ATOM     23  N   UNL     1       8.277  -1.504   0.659  0.00  0.00    -0.311 N 
ATOM     24  C   UNL     1       7.250  -1.549  -0.212  0.00  0.00    +0.234 C 
ATOM     25  O   UNL     1       7.460  -1.465  -1.403  0.00  0.00    -0.274 OA
ATOM     26  H   UNL     1       8.108  -1.572   1.612  0.00  0.00    +0.149 HD
BRANCH  23  30
ATOM     27  C   UNL     1      12.051   0.599  -0.201  0.00  0.00    -0.010 C 
ATOM     28  C   UNL     1      11.955  -0.574   0.782  0.00  0.00    -0.072 C 
ATOM     29  C   UNL     1      10.513  -0.722   1.260  0.00  0.00    +0.009 C 
ATOM     30  C   UNL     1       9.652  -1.353   0.166  0.00  0.00    +0.070 C 
ATOM     31  C   UNL     1      10.222  -2.732  -0.166  0.00  0.00    +0.009 C 
ATOM     32  C   UNL     1      11.660  -2.606  -0.663  0.00  0.00    -0.072 C 
ATOM     33  C   UNL     1      11.661  -2.072  -2.100  0.00  0.00    -0.010 C 
ATOM     34  C   UNL     1      12.264  -4.028  -0.704  0.00  0.00    -0.010 C 
ATOM     35  C   UNL     1      12.817  -0.211   2.012  0.00  0.00    -0.010 C 
ATOM     36  N   UNL     1      12.558  -1.810   0.215  0.00  0.00    +0.386 N 
ATOM     37  H   UNL     1      12.851  -2.408   0.997  0.00  0.00    -0.084 HD
ATOM     38  H   UNL     1      13.382  -1.538  -0.335  0.00  0.00    -0.084 HD
ENDBRANCH  23  30
ENDBRANCH   1  24
TORSDOF 2
