REMARK  Name = ZINC44409695
REMARK  11 active torsions:
REMARK  status: ('A' for Active; 'I' for Inactive)
REMARK    1  A    between atoms: C_1  and  C_2
REMARK    2  A    between atoms: C_2  and  C_3
REMARK    3  A    between atoms: C_3  and  C_5
REMARK    4  A    between atoms: C_3  and  N_33
REMARK    5  A    between atoms: C_5  and  C_6
REMARK    6  A    between atoms: C_7  and  O_31
REMARK    7  A    between atoms: C_9  and  C_30
REMARK    8  A    between atoms: C_16  and  O_23
REMARK    9  A    between atoms: C_17  and  C_22
REMARK   10  A    between atoms: C_27  and  O_29
REMARK   11  A    between atoms: O_31  and  C_32
REMARK                            x       y       z     vdW  Elec       q    Type
REMARK                         _______ _______ _______ _____ _____    ______ ____
ROOT
ATOM      1  C   UNL     1       1.277  -2.528   2.581  0.00  0.00    +0.036 A 
ATOM      2  C   UNL     1       2.632  -2.832   2.630  0.00  0.00    +0.127 A 
ATOM      3  C   UNL     1       3.210  -3.289   3.810  0.00  0.00    +0.050 A 
ATOM      4  C   UNL     1       2.438  -3.477   4.936  0.00  0.00    -0.029 A 
ATOM      5  C   UNL     1       1.073  -3.195   4.886  0.00  0.00    +0.105 A 
ATOM      6  C   UNL     1       0.505  -2.674   3.716  0.00  0.00    +0.149 A 
ATOM      7  O   UNL     1      -0.781  -2.272   3.762  0.00  0.00    -0.451 OA
ATOM      8  C   UNL     1      -1.806  -3.125   3.996  0.00  0.00    +0.181 A 
ATOM      9  C   UNL     1      -2.896  -3.008   3.147  0.00  0.00    +0.083 A 
ATOM     10  C   UNL     1      -4.013  -3.835   3.284  0.00  0.00    +0.113 A 
ATOM     11  C   UNL     1      -4.028  -4.800   4.300  0.00  0.00    +0.138 A 
ATOM     12  C   UNL     1      -2.940  -4.912   5.142  0.00  0.00    +0.038 A 
ATOM     13  C   UNL     1      -1.825  -4.080   5.001  0.00  0.00    +0.181 A 
ATOM     14  O   UNL     1      -0.829  -4.297   5.902  0.00  0.00    -0.418 OA
ATOM     15  C   UNL     1       0.192  -3.449   6.037  0.00  0.00    +0.348 C 
ATOM     16  O   UNL     1       0.384  -2.888   7.098  0.00  0.00    -0.244 OA
ATOM     17  C   UNL     1      -2.955  -5.949   6.235  0.00  0.00    +0.051 C 
ATOM     18  C   UNL     1      -4.979  -3.459   2.243  0.00  0.00    +0.346 C 
ATOM     19  O   UNL     1      -6.064  -3.981   2.077  0.00  0.00    -0.245 OA
ATOM     20  O   UNL     1      -4.486  -2.453   1.500  0.00  0.00    -0.427 OA
ATOM     21  C   UNL     1      -3.188  -2.095   1.983  0.00  0.00    +0.345 C 
ATOM     22  C   UNL     1       3.063  -3.983   6.211  0.00  0.00    +0.045 C 
ENDROOT
BRANCH  11  23
ATOM     23  O   UNL     1      -5.101  -5.616   4.454  0.00  0.00    -0.506 OA
ATOM     24  H   UNL     1      -5.046  -6.438   3.948  0.00  0.00    +0.292 HD
ENDBRANCH  11  23
BRANCH  21  25
ATOM     25  O   UNL     1      -3.184  -0.733   2.415  0.00  0.00    -0.354 OA
ATOM     26  H   UNL     1      -3.366  -0.097   1.710  0.00  0.00    +0.214 HD
ENDBRANCH  21  25
BRANCH   2  27
ATOM     27  O   UNL     1       3.397  -2.681   1.520  0.00  0.00    -0.495 OA
ATOM     28  C   UNL     1       4.783  -3.010   1.637  0.00  0.00    +0.277 C 
ENDBRANCH   2  27
BRANCH   1  29
ATOM     29  C   UNL     1       0.655  -2.037   1.299  0.00  0.00    +0.026 C 
BRANCH  29  30
ATOM     30  C   UNL     1       0.742  -0.511   1.242  0.00  0.00    -0.071 C 
BRANCH  30  31
ATOM     31  N   UNL     1       2.151  -0.103   1.171  0.00  0.00    +0.380 N 
ATOM     32  H   UNL     1       2.574  -0.495   0.344  0.00  0.00    -0.090 HD
ATOM     33  H   UNL     1       2.209   0.904   1.134  0.00  0.00    -0.090 HD
ATOM     34  H   UNL     1       2.639  -0.437   1.989  0.00  0.00    -0.090 HD
ENDBRANCH  30  31
BRANCH  30  36
ATOM     35  C   UNL     1      -0.019   1.526   0.010  0.00  0.00    +0.002 C 
ATOM     36  C   UNL     1       0.002  -0.004   0.002  0.00  0.00    -0.019 C 
ENDBRANCH  30  36
ENDBRANCH  29  30
ENDBRANCH   1  29
TORSDOF 7
