REMARK  Name = ZINC25217806
REMARK  9 active torsions:
REMARK  status: ('A' for Active; 'I' for Inactive)
REMARK    1  A    between atoms: C_1  and  C_2
REMARK    2  A    between atoms: C_2  and  C_4
REMARK    3  A    between atoms: C_2  and  O_32
REMARK    4  A    between atoms: C_4  and  N_5
REMARK    5  A    between atoms: N_14  and  C_15
REMARK    6  A    between atoms: C_15  and  C_16
REMARK    7  A    between atoms: N_18  and  C_19
REMARK    8  A    between atoms: C_19  and  C_21
REMARK    9  A    between atoms: C_19  and  C_22
REMARK                            x       y       z     vdW  Elec       q    Type
REMARK                         _______ _______ _______ _____ _____    ______ ____
ROOT
ATOM      1  N   UNL     1      -2.255  -0.296  -1.485  0.00  0.00    -0.314 N 
ATOM      2  C   UNL     1      -1.731   0.930  -1.837  0.00  0.00    +0.175 A 
ATOM      3  N   UNL     1      -2.132   1.656  -2.852  0.00  0.00    -0.327 N 
ATOM      4  C   UNL     1      -1.399   2.799  -2.913  0.00  0.00    +0.065 A 
ATOM      5  C   UNL     1      -1.403   3.897  -3.777  0.00  0.00    +0.028 A 
ATOM      6  C   UNL     1      -0.516   4.929  -3.575  0.00  0.00    +0.002 A 
ATOM      7  C   UNL     1       0.384   4.888  -2.520  0.00  0.00    +0.002 A 
ATOM      8  C   UNL     1       0.400   3.812  -1.657  0.00  0.00    +0.028 A 
ATOM      9  C   UNL     1      -0.487   2.763  -1.846  0.00  0.00    +0.068 A 
ATOM     10  N   UNL     1      -0.721   1.571  -1.179  0.00  0.00    -0.305 N 
ATOM     11  H   UNL     1      -1.856  -0.833  -0.612  0.00  0.00    +0.149 HD
ATOM     12  H   UNL     1      -2.949   1.298  -3.495  0.00  0.00    +0.169 HD
ENDROOT
BRANCH   1  13
ATOM     13  C   UNL     1      -3.341  -0.882  -2.272  0.00  0.00    +0.135 C 
BRANCH  13  15
ATOM     14  C   UNL     1      -4.869  -2.847  -2.496  0.00  0.00    +0.039 C 
ATOM     15  C   UNL     1      -3.734  -2.234  -1.673  0.00  0.00    +0.128 C 
BRANCH  15  16
ATOM     16  O   UNL     1      -2.604  -3.110  -1.693  0.00  0.00    -0.391 OA
ATOM     17  H   UNL     1      -1.687  -2.836  -1.152  0.00  0.00    +0.210 HD
ENDBRANCH  15  16
ENDBRANCH  13  15
ENDBRANCH   1  13
BRANCH  10  18
ATOM     18  C   UNL     1      -0.013   1.086   0.008  0.00  0.00    +0.220 C 
BRANCH  18  19
ATOM     19  C   UNL     1      -0.718   1.572   1.248  0.00  0.00    +0.233 C 
ATOM     20  O   UNL     1      -1.714   2.256   1.150  0.00  0.00    -0.274 OA
ATOM     21  N   UNL     1      -0.242   1.246   2.466  0.00  0.00    -0.307 N 
ATOM     22  H   UNL     1       0.662   0.625   2.555  0.00  0.00    +0.149 HD
BRANCH  21  23
ATOM     23  C   UNL     1      -0.927   1.718   3.671  0.00  0.00    +0.100 C 
ATOM     24  C   UNL     1      -0.438   3.126   4.018  0.00  0.00    +0.033 C 
BRANCH  23  25
ATOM     25  C   UNL     1      -0.629   0.786   4.817  0.00  0.00    -0.027 A 
ATOM     26  C   UNL     1       0.656   0.265   4.961  0.00  0.00    +0.006 A 
ATOM     27  C   UNL     1       0.960  -0.575   5.988  0.00  0.00    +0.009 A 
ATOM     28  C   UNL     1      -0.036  -0.934   6.911  0.00  0.00    -0.018 A 
ATOM     29  C   UNL     1       0.238  -1.804   7.980  0.00  0.00    +0.008 A 
ATOM     30  C   UNL     1      -0.752  -2.129   8.855  0.00  0.00    +0.001 A 
ATOM     31  C   UNL     1      -2.038  -1.612   8.708  0.00  0.00    +0.001 A 
ATOM     32  C   UNL     1      -2.341  -0.767   7.685  0.00  0.00    +0.008 A 
ATOM     33  C   UNL     1      -1.344  -0.408   6.762  0.00  0.00    -0.018 A 
ATOM     34  C   UNL     1      -1.619   0.461   5.692  0.00  0.00    +0.014 A 
ENDBRANCH  23  25
ENDBRANCH  21  23
ENDBRANCH  18  19
ENDBRANCH  10  18
TORSDOF 7
