REMARK  Name = ZINC13493129
REMARK  10 active torsions:
REMARK  status: ('A' for Active; 'I' for Inactive)
REMARK    1  A    between atoms: C_1  and  C_2
REMARK    2  A    between atoms: N_8  and  C_9
REMARK    3  A    between atoms: C_9  and  C_10
REMARK    4  A    between atoms: N_12  and  C_13
REMARK    5  A    between atoms: C_13  and  C_14
REMARK    6  A    between atoms: C_19  and  C_20
REMARK    7  A    between atoms: N_22  and  C_23
REMARK    8  A    between atoms: C_23  and  C_24
REMARK    9  A    between atoms: C_24  and  C_26
REMARK   10  A    between atoms: C_24  and  C_27
REMARK                            x       y       z     vdW  Elec       q    Type
REMARK                         _______ _______ _______ _____ _____    ______ ____
ROOT
ATOM      1  C   UNL     1      -0.018   1.503   0.010  0.00  0.00    +0.065 C 
ATOM      2  C   UNL     1       0.002  -0.004   0.002  0.00  0.00    +0.038 A 
ATOM      3  C   UNL     1       0.005  -0.664  -1.176  0.00  0.00    +0.134 A 
ATOM      4  N   UNL     1       0.023  -1.995  -1.234  0.00  0.00    -0.234 NA
ATOM      5  C   UNL     1       0.038  -2.716  -0.133  0.00  0.00    +0.184 A 
ATOM      6  C   UNL     1       0.035  -2.035   1.167  0.00  0.00    +0.292 A 
ATOM      7  O   UNL     1       0.049  -2.672   2.206  0.00  0.00    -0.264 OA
ATOM      8  N   UNL     1       0.022  -0.683   1.184  0.00  0.00    -0.300 N 
ATOM      9  N   UNL     1       0.055  -4.103  -0.201  0.00  0.00    -0.324 N 
ATOM     10  H   UNL     1       0.066  -4.628   0.615  0.00  0.00    +0.148 HD
ENDROOT
BRANCH   8  11
ATOM     11  C   UNL     1       0.025   0.043   2.457  0.00  0.00    +0.220 C 
BRANCH  11  12
ATOM     12  C   UNL     1      -1.395   0.273   2.907  0.00  0.00    +0.233 C 
ATOM     13  O   UNL     1      -2.318  -0.130   2.231  0.00  0.00    -0.274 OA
ATOM     14  N   UNL     1      -1.638   0.926   4.061  0.00  0.00    -0.310 N 
ATOM     15  H   UNL     1      -0.900   1.248   4.601  0.00  0.00    +0.149 HD
BRANCH  14  16
ATOM     16  C   UNL     1      -3.018   1.149   4.498  0.00  0.00    +0.141 C 
BRANCH  16  17
ATOM     17  C   UNL     1      -3.016   1.896   5.807  0.00  0.00    -0.011 A 
ATOM     18  C   UNL     1      -3.197   1.214   7.004  0.00  0.00    +0.010 A 
ATOM     19  C   UNL     1      -3.188   1.937   8.183  0.00  0.00    +0.041 A 
ATOM     20  C   UNL     1      -2.998   3.314   8.131  0.00  0.00    +0.094 A 
ATOM     21  N   UNL     1      -2.828   3.927   6.970  0.00  0.00    -0.347 N 
ATOM     22  C   UNL     1      -2.827   3.263   5.830  0.00  0.00    +0.019 A 
ATOM     23  C   UNL     1      -2.622   4.007   4.535  0.00  0.00    +0.063 C 
ATOM     24  N   UNL     1      -2.987   4.053   9.308  0.00  0.00    -0.345 N 
ATOM     25  H   UNL     1      -3.111   3.608  10.161  0.00  0.00    +0.144 HD
ATOM     26  H   UNL     1      -2.855   5.013   9.277  0.00  0.00    +0.144 HD
ATOM     27  H   UNL     1      -2.697   4.888   6.957  0.00  0.00    +0.167 HD
ENDBRANCH  16  17
ENDBRANCH  14  16
ENDBRANCH  11  12
ENDBRANCH   8  11
BRANCH   9  28
ATOM     28  C   UNL     1       0.057  -4.773  -1.504  0.00  0.00    +0.111 C 
BRANCH  28  29
ATOM     29  C   UNL     1       0.078  -6.289  -1.297  0.00  0.00    +0.033 C 
ATOM     30  C   UNL     1      -1.220  -6.729  -0.618  0.00  0.00    +0.014 C 
BRANCH  29  31
ATOM     31  C   UNL     1       0.204  -6.976  -2.633  0.00  0.00    -0.043 A 
ATOM     32  C   UNL     1      -0.759  -6.779  -3.605  0.00  0.00    +0.004 A 
ATOM     33  C   UNL     1      -0.644  -7.409  -4.830  0.00  0.00    +0.000 A 
ATOM     34  C   UNL     1       0.435  -8.235  -5.083  0.00  0.00    +0.000 A 
ATOM     35  C   UNL     1       1.399  -8.431  -4.112  0.00  0.00    +0.000 A 
ATOM     36  C   UNL     1       1.286  -7.798  -2.888  0.00  0.00    +0.004 A 
ENDBRANCH  29  31
ENDBRANCH  28  29
ENDBRANCH   9  28
TORSDOF 7
