REMARK  Name = ZINC59331812
REMARK  6 active torsions:
REMARK  status: ('A' for Active; 'I' for Inactive)
REMARK    1  A    between atoms: C_1  and  N_2
REMARK    2  A    between atoms: N_5  and  C_8
REMARK    3  A    between atoms: C_11  and  N_15
REMARK    4  A    between atoms: N_15  and  C_16
REMARK    5  A    between atoms: C_16  and  N_18
REMARK    6  A    between atoms: C_19  and  C_21
REMARK                            x       y       z     vdW  Elec       q    Type
REMARK                         _______ _______ _______ _____ _____    ______ ____
ROOT
ATOM      1  N   UNL     1       4.997  -6.583  -0.081  0.00  0.00    -0.297 N 
ATOM      2  H   UNL     1       4.967  -7.275  -0.760  0.00  0.00    +0.154 HD
ENDROOT
BRANCH   1   6
ATOM      3  C   UNL     1       2.118  -3.564  -0.053  0.00  0.00    +0.048 A 
ATOM      4  C   UNL     1       3.448  -3.259   0.205  0.00  0.00    +0.026 A 
ATOM      5  C   UNL     1       4.400  -4.258   0.197  0.00  0.00    +0.025 A 
ATOM      6  C   UNL     1       4.029  -5.570  -0.071  0.00  0.00    +0.034 A 
ATOM      7  C   UNL     1       2.700  -5.876  -0.329  0.00  0.00    +0.045 A 
ATOM      8  C   UNL     1       1.745  -4.877  -0.315  0.00  0.00    +0.064 A 
ATOM      9 CL   UNL     1       0.082  -5.261  -0.630  0.00  0.00    -0.082 Cl
BRANCH   3  14
ATOM     10  C   UNL     1      -0.009   1.444   0.398  0.00  0.00    -0.096 C 
ATOM     11  N   UNL     1       0.015  -0.007   0.176  0.00  0.00    +0.380 N 
ATOM     12  C   UNL     1       0.884  -0.311  -0.968  0.00  0.00    -0.060 C 
ATOM     13  C   UNL     1       0.821  -1.812  -1.272  0.00  0.00    +0.086 C 
ATOM     14  N   UNL     1       1.153  -2.551  -0.044  0.00  0.00    -0.332 N 
ATOM     15  C   UNL     1       0.440  -2.195   1.193  0.00  0.00    +0.086 C 
ATOM     16  C   UNL     1       0.522  -0.677   1.381  0.00  0.00    -0.060 C 
ATOM     17  H   UNL     1      -0.920  -0.332  -0.020  0.00  0.00    -0.082 HD
ENDBRANCH   3  14
ENDBRANCH   1   6
BRANCH   1  18
ATOM     18  C   UNL     1       5.968  -6.597   0.854  0.00  0.00    +0.141 C 
ATOM     19  S   UNL     1       5.937  -5.464   2.137  0.00  0.00    -0.018 S 
BRANCH  18  20
ATOM     20  N   UNL     1       6.963  -7.503   0.778  0.00  0.00    -0.264 N 
ATOM     21  C   UNL     1       7.934  -7.517   1.712  0.00  0.00    +0.250 C 
ATOM     22  O   UNL     1       7.912  -6.713   2.623  0.00  0.00    -0.270 OA
ATOM     23  H   UNL     1       6.980  -8.145   0.051  0.00  0.00    +0.157 HD
BRANCH  21  24
ATOM     24  C   UNL     1       9.022  -8.507   1.629  0.00  0.00    +0.045 A 
ATOM     25  C   UNL     1       9.131  -9.351   0.531  0.00  0.00    +0.014 A 
ATOM     26  C   UNL     1      10.157 -10.283   0.456  0.00  0.00    +0.001 A 
ATOM     27  C   UNL     1      11.088 -10.408   1.441  0.00  0.00    +0.009 A 
ATOM     28  C   UNL     1      11.039  -9.587   2.580  0.00  0.00    -0.003 A 
ATOM     29  C   UNL     1      10.013  -8.618   2.698  0.00  0.00    -0.005 A 
ATOM     30  C   UNL     1       9.964  -7.795   3.829  0.00  0.00    +0.009 A 
ATOM     31  C   UNL     1      10.908  -7.931   4.803  0.00  0.00    +0.002 A 
ATOM     32  C   UNL     1      11.923  -8.879   4.689  0.00  0.00    +0.016 A 
ATOM     33  C   UNL     1      11.993  -9.704   3.607  0.00  0.00    +0.026 A 
ATOM     34 BR   UNL     1      13.380 -10.983   3.475  0.00  0.00    -0.050 Br
ENDBRANCH  21  24
ENDBRANCH  18  20
ENDBRANCH   1  18
TORSDOF 5
