REMARK  Name = ZINC42736622
REMARK  12 active torsions:
REMARK  status: ('A' for Active; 'I' for Inactive)
REMARK    1  A    between atoms: C_1  and  C_2
REMARK    2  A    between atoms: C_2  and  C_4
REMARK    3  A    between atoms: C_2  and  N_15
REMARK    4  A    between atoms: N_6  and  C_7
REMARK    5  A    between atoms: C_10  and  N_14
REMARK    6  A    between atoms: N_15  and  C_16
REMARK    7  A    between atoms: N_15  and  C_17
REMARK    8  A    between atoms: C_17  and  C_19
REMARK    9  A    between atoms: C_17  and  C_20
REMARK   10  A    between atoms: C_20  and  C_21
REMARK   11  A    between atoms: C_20  and  C_22
REMARK   12  A    between atoms: C_20  and  C_23
REMARK                            x       y       z     vdW  Elec       q    Type
REMARK                         _______ _______ _______ _____ _____    ______ ____
ROOT
ATOM      1  C   UNL     1      -0.453  -1.357   0.557  0.00  0.00    +0.203 C 
ATOM      2  O   UNL     1      -0.400  -2.284  -0.223  0.00  0.00    -0.277 OA
ATOM      3  N   UNL     1      -1.184  -1.466   1.685  0.00  0.00    -0.286 N 
ATOM      4  H   UNL     1      -1.179  -0.749   2.338  0.00  0.00    +0.155 HD
ENDROOT
BRANCH   3   5
ATOM      5  C   UNL     1      -1.951  -2.617   1.914  0.00  0.00    +0.052 A 
ATOM      6  C   UNL     1      -1.536  -3.841   1.407  0.00  0.00    +0.026 A 
ATOM      7  C   UNL     1      -2.291  -4.974   1.632  0.00  0.00    +0.024 A 
ATOM      8  C   UNL     1      -3.467  -4.891   2.366  0.00  0.00    +0.026 A 
ATOM      9  C   UNL     1      -3.883  -3.667   2.874  0.00  0.00    +0.044 A 
ATOM     10  C   UNL     1      -3.125  -2.534   2.653  0.00  0.00    +0.064 A 
ATOM     11 CL   UNL     1      -3.641  -1.005   3.293  0.00  0.00    -0.082 Cl
BRANCH   8  12
ATOM     12  N   UNL     1      -4.233  -6.040   2.593  0.00  0.00    -0.358 N 
ATOM     13  H   UNL     1      -3.942  -6.894   2.239  0.00  0.00    +0.142 HD
ATOM     14  H   UNL     1      -5.054  -5.981   3.106  0.00  0.00    +0.142 HD
ENDBRANCH   8  12
ENDBRANCH   3   5
BRANCH   1  16
ATOM     15  C   UNL     1       1.758  -0.243   0.690  0.00  0.00    -0.004 C 
ATOM     16  C   UNL     1       0.297  -0.083   0.267  0.00  0.00    +0.016 C 
BRANCH  16  17
ATOM     17  N   UNL     1       0.233   0.206  -1.173  0.00  0.00    +0.387 N 
ATOM     18  C   UNL     1       0.628  -0.989  -1.930  0.00  0.00    -0.095 C 
ATOM     19  H   UNL     1       0.860   0.965  -1.391  0.00  0.00    -0.081 HD
BRANCH  17  20
ATOM     20  C   UNL     1      -1.140   0.584  -1.535  0.00  0.00    -0.066 C 
ATOM     21  C   UNL     1      -2.118  -0.016  -0.523  0.00  0.00    -0.013 C 
BRANCH  20  22
ATOM     22  C   UNL     1      -1.268   2.109  -1.527  0.00  0.00    -0.050 C 
ATOM     23  C   UNL     1      -0.394   2.700  -2.635  0.00  0.00    +0.009 C 
ATOM     24  C   UNL     1      -2.728   2.499  -1.765  0.00  0.00    +0.009 C 
ATOM     25  C   UNL     1      -0.809   2.651  -0.172  0.00  0.00    +0.009 C 
ENDBRANCH  20  22
ENDBRANCH  17  20
ENDBRANCH  16  17
ENDBRANCH   1  16
TORSDOF 6
