REMARK  Name = ZINC64074503
REMARK  7 active torsions:
REMARK  status: ('A' for Active; 'I' for Inactive)
REMARK    1  A    between atoms: C_1  and  C_2
REMARK    2  A    between atoms: C_4  and  C_16
REMARK    3  A    between atoms: N_7  and  C_8
REMARK    4  A    between atoms: C_16  and  C_18
REMARK    5  A    between atoms: C_16  and  N_19
REMARK    6  A    between atoms: N_19  and  C_20
REMARK    7  A    between atoms: C_20  and  C_21
REMARK                            x       y       z     vdW  Elec       q    Type
REMARK                         _______ _______ _______ _____ _____    ______ ____
ROOT
ATOM      1  C   UNL     1       0.363  -0.276  -2.653  0.00  0.00    +0.080 C 
ATOM      2  C   UNL     1      -0.977  -0.953  -2.947  0.00  0.00    +0.029 C 
ENDROOT
BRANCH   1   5
ATOM      3  C   UNL     1      -0.019   1.526   0.010  0.00  0.00    +0.035 C 
ATOM      4  C   UNL     1       0.002  -0.004   0.002  0.00  0.00    +0.120 C 
ATOM      5  C   UNL     1       0.742  -0.515  -1.214  0.00  0.00    -0.016 C 
ATOM      6  C   UNL     1       1.776  -1.208  -0.787  0.00  0.00    +0.090 C 
ATOM      7  N   UNL     1       1.841  -1.238   0.593  0.00  0.00    -0.271 N 
ATOM      8  N   UNL     1       0.773  -0.514   1.148  0.00  0.00    -0.244 N 
ATOM      9  H   UNL     1       2.527  -1.694   1.106  0.00  0.00    +0.169 HD
BRANCH   8  10
ATOM     10  C   UNL     1       0.498  -0.317   2.507  0.00  0.00    +0.083 A 
ATOM     11  C   UNL     1      -0.742  -0.668   3.023  0.00  0.00    +0.030 A 
ATOM     12  C   UNL     1      -1.011  -0.473   4.364  0.00  0.00    +0.040 A 
ATOM     13  C   UNL     1      -0.046   0.072   5.194  0.00  0.00    +0.126 A 
ATOM     14  C   UNL     1       1.191   0.424   4.683  0.00  0.00    +0.078 A 
ATOM     15  C   UNL     1       1.468   0.225   3.342  0.00  0.00    +0.149 A 
ATOM     16  F   UNL     1       2.678   0.563   2.844  0.00  0.00    -0.203 F 
ATOM     17  F   UNL     1      -0.313   0.261   6.505  0.00  0.00    -0.205 F 
ENDBRANCH   8  10
ENDBRANCH   1   5
BRANCH   1  18
ATOM     18  N   UNL     1       0.246   1.169  -2.895  0.00  0.00    -0.306 NA
ATOM     19  H   UNL     1      -0.649   1.516  -2.583  0.00  0.00    +0.123 HD
BRANCH  18  20
ATOM     20  C   UNL     1       0.469   1.485  -4.312  0.00  0.00    +0.128 C 
BRANCH  20  21
ATOM     21  C   UNL     1       0.339   2.995  -4.524  0.00  0.00    +0.188 C 
ATOM     22  N   UNL     1       1.297   3.708  -3.670  0.00  0.00    -0.362 N 
ATOM     23  C   UNL     1       0.613   4.474  -2.870  0.00  0.00    +0.060 A 
ATOM     24  C   UNL     1       1.006   5.411  -1.808  0.00  0.00    +0.030 A 
ATOM     25  C   UNL     1       0.055   6.084  -1.130  0.00  0.00    +0.040 A 
ATOM     26  C   UNL     1      -1.320   5.929  -1.396  0.00  0.00    +0.125 A 
ATOM     27  C   UNL     1      -1.786   5.094  -2.351  0.00  0.00    +0.065 A 
ATOM     28  C   UNL     1      -0.840   4.310  -3.152  0.00  0.00    +0.063 A 
ATOM     29  N   UNL     1      -0.998   3.447  -4.117  0.00  0.00    -0.362 N 
ATOM     30  F   UNL     1      -2.207   6.643  -0.669  0.00  0.00    -0.205 F 
ATOM     31  H   UNL     1       2.263   3.623  -3.696  0.00  0.00    +0.162 HD
ATOM     32  H   UNL     1      -1.842   3.157  -4.496  0.00  0.00    +0.162 HD
ENDBRANCH  20  21
ENDBRANCH  18  20
ENDBRANCH   1  18
TORSDOF 5
