REMARK  Name = ZINC42398911
REMARK  9 active torsions:
REMARK  status: ('A' for Active; 'I' for Inactive)
REMARK    1  A    between atoms: C_1  and  C_2
REMARK    2  A    between atoms: C_5  and  C_9
REMARK    3  A    between atoms: C_6  and  C_8
REMARK    4  A    between atoms: C_9  and  C_11
REMARK    5  A    between atoms: C_9  and  N_13
REMARK    6  A    between atoms: C_11  and  N_12
REMARK    7  A    between atoms: N_13  and  C_14
REMARK    8  A    between atoms: N_13  and  C_15
REMARK    9  A    between atoms: C_15  and  C_16
REMARK                            x       y       z     vdW  Elec       q    Type
REMARK                         _______ _______ _______ _____ _____    ______ ____
ROOT
ATOM      1  C   UNL     1       0.131  -4.285  -0.060  0.00  0.00    +0.070 C 
ENDROOT
BRANCH   1   6
ATOM      2  C   UNL     1       0.915   1.362  -1.005  0.00  0.00    +0.044 C 
ATOM      3  C   UNL     1       0.710  -0.110  -0.759  0.00  0.00    -0.050 A 
ATOM      4  C   UNL     1       0.619  -0.984  -1.826  0.00  0.00    +0.004 A 
ATOM      5  C   UNL     1       0.432  -2.334  -1.600  0.00  0.00    +0.005 A 
ATOM      6  C   UNL     1       0.336  -2.812  -0.306  0.00  0.00    -0.029 A 
ATOM      7  C   UNL     1       0.428  -1.939   0.761  0.00  0.00    -0.046 A 
ATOM      8  C   UNL     1       0.620  -0.589   0.535  0.00  0.00    +0.007 A 
ATOM      9  C   UNL     1       0.324  -2.459   2.171  0.00  0.00    +0.044 C 
ENDBRANCH   1   6
BRANCH   1  10
ATOM     10  N   UNL     1      -0.403  -4.915  -1.275  0.00  0.00    -0.296 NA
ATOM     11  C   UNL     1      -1.752  -4.417  -1.576  0.00  0.00    +0.105 C 
BRANCH  10  12
ATOM     12  C   UNL     1      -0.397  -6.379  -1.155  0.00  0.00    +0.127 C 
BRANCH  12  13
ATOM     13  C   UNL     1      -0.762  -6.993  -2.482  0.00  0.00    +0.005 A 
ATOM     14  C   UNL     1       0.049  -7.363  -3.503  0.00  0.00    +0.027 A 
ATOM     15  C   UNL     1      -0.514  -7.913  -4.640  0.00  0.00    +0.025 A 
ATOM     16  C   UNL     1      -1.860  -8.065  -4.700  0.00  0.00    +0.060 A 
ATOM     17  S   UNL     1      -2.374  -7.428  -3.113  0.00  0.00    -0.099 S 
ATOM     18 BR   UNL     1       0.578  -8.444  -6.090  0.00  0.00    -0.050 Br
ENDBRANCH  12  13
ENDBRANCH  10  12
ENDBRANCH   1  10
BRANCH   1  19
ATOM     19  C   UNL     1       1.469  -4.932   0.304  0.00  0.00    -0.063 C 
BRANCH  19  20
ATOM     20  N   UNL     1       2.373  -4.870  -0.851  0.00  0.00    +0.379 N 
ATOM     21  H   UNL     1       1.922  -5.282  -1.654  0.00  0.00    -0.090 HD
ATOM     22  H   UNL     1       2.599  -3.906  -1.050  0.00  0.00    -0.090 HD
ATOM     23  H   UNL     1       3.220  -5.378  -0.643  0.00  0.00    -0.090 HD
ENDBRANCH  19  20
ENDBRANCH   1  19
TORSDOF 6
