REMARK  Name = ZINC40322139
REMARK  11 active torsions:
REMARK  status: ('A' for Active; 'I' for Inactive)
REMARK    1  A    between atoms: C_1  and  O_2
REMARK    2  A    between atoms: O_2  and  C_3
REMARK    3  A    between atoms: C_6  and  C_11
REMARK    4  A    between atoms: C_8  and  O_9
REMARK    5  A    between atoms: O_9  and  C_10
REMARK    6  A    between atoms: C_11  and  C_13
REMARK    7  A    between atoms: C_11  and  N_32
REMARK    8  A    between atoms: C_13  and  N_14
REMARK    9  A    between atoms: C_15  and  C_17
REMARK   10  A    between atoms: C_20  and  S_22
REMARK   11  A    between atoms: S_22  and  C_25
REMARK                            x       y       z     vdW  Elec       q    Type
REMARK                         _______ _______ _______ _____ _____    ______ ____
ROOT
ATOM      1  N   UNL     1       0.357  -3.301  -5.210  0.00  0.00    -0.310 N 
ATOM      2  C   UNL     1      -0.644  -3.431  -6.102  0.00  0.00    +0.279 C 
ATOM      3  O   UNL     1      -0.634  -2.776  -7.128  0.00  0.00    -0.267 OA
ATOM      4  H   UNL     1       0.349  -3.824  -4.393  0.00  0.00    +0.149 HD
ENDROOT
BRANCH   2   5
ATOM      5  C   UNL     1      -1.746  -4.362  -5.838  0.00  0.00    +0.192 A 
ATOM      6  C   UNL     1      -2.815  -4.593  -6.655  0.00  0.00    +0.056 A 
ATOM      7  C   UNL     1      -3.615  -5.551  -6.013  0.00  0.00    +0.070 A 
ATOM      8  C   UNL     1      -3.007  -5.859  -4.846  0.00  0.00    +0.246 A 
ATOM      9  O   UNL     1      -1.879  -5.144  -4.747  0.00  0.00    -0.433 OA
BRANCH   8  10
ATOM     10  S   UNL     1      -3.598  -7.014  -3.655  0.00  0.00    +0.058 S 
ATOM     11  O   UNL     1      -3.025  -6.642  -2.409  0.00  0.00    -0.161 OA
ATOM     12  O   UNL     1      -5.002  -7.114  -3.848  0.00  0.00    -0.161 OA
BRANCH  10  13
ATOM     13  C   UNL     1      -2.919  -8.586  -4.072  0.00  0.00    +0.097 A 
ATOM     14  C   UNL     1      -3.601  -9.427  -4.932  0.00  0.00    +0.029 A 
ATOM     15  C   UNL     1      -3.069 -10.660  -5.260  0.00  0.00    +0.022 A 
ATOM     16  C   UNL     1      -1.854 -11.052  -4.727  0.00  0.00    +0.041 A 
ATOM     17  C   UNL     1      -1.172 -10.210  -3.866  0.00  0.00    +0.022 A 
ATOM     18  C   UNL     1      -1.703  -8.975  -3.544  0.00  0.00    +0.029 A 
ATOM     19 CL   UNL     1      -1.186 -12.601  -5.138  0.00  0.00    -0.084 Cl
ENDBRANCH  10  13
ENDBRANCH   8  10
ENDBRANCH   2   5
BRANCH   1  20
ATOM     20  C   UNL     1       1.458  -2.372  -5.474  0.00  0.00    +0.094 C 
BRANCH  20  21
ATOM     21  C   UNL     1       2.384  -2.319  -4.258  0.00  0.00    -0.020 C 
BRANCH  21  25
ATOM     22  C   UNL     1       0.283  -0.623  -0.941  0.00  0.00    +0.161 A 
ATOM     23  C   UNL     1       0.816   0.199  -1.921  0.00  0.00    +0.049 A 
ATOM     24  C   UNL     1       1.494  -0.352  -2.992  0.00  0.00    +0.006 A 
ATOM     25  C   UNL     1       1.644  -1.723  -3.088  0.00  0.00    -0.056 A 
ATOM     26  C   UNL     1       1.114  -2.549  -2.114  0.00  0.00    +0.051 A 
ATOM     27  C   UNL     1       0.438  -2.003  -1.035  0.00  0.00    +0.162 A 
BRANCH  22  29
ATOM     28  C   UNL     1      -0.505   1.341   0.143  0.00  0.00    +0.277 C 
ATOM     29  O   UNL     1      -0.385  -0.082   0.113  0.00  0.00    -0.491 OA
ENDBRANCH  22  29
BRANCH  27  30
ATOM     30  O   UNL     1      -0.078  -2.813  -0.073  0.00  0.00    -0.491 OA
ATOM     31  C   UNL     1       0.119  -4.220  -0.235  0.00  0.00    +0.277 C 
ENDBRANCH  27  30
ENDBRANCH  21  25
BRANCH  21  32
ATOM     32  N   UNL     1       3.556  -1.489  -4.569  0.00  0.00    +0.385 N 
ATOM     33  C   UNL     1       4.473  -1.438  -3.402  0.00  0.00    -0.078 C 
ATOM     34  C   UNL     1       5.832  -1.050  -4.036  0.00  0.00    -0.020 C 
ATOM     35  C   UNL     1       5.822  -1.822  -5.375  0.00  0.00    -0.020 C 
ATOM     36  C   UNL     1       4.335  -2.099  -5.668  0.00  0.00    -0.078 C 
ATOM     37  H   UNL     1       3.264  -0.557  -4.825  0.00  0.00    -0.081 HD
ENDBRANCH  21  32
ENDBRANCH  20  21
ENDBRANCH   1  20
TORSDOF 9
