REMARK  Name = ZINC09313844
REMARK  8 active torsions:
REMARK  status: ('A' for Active; 'I' for Inactive)
REMARK    1  A    between atoms: C_1  and  N_2
REMARK    2  A    between atoms: C_3  and  N_13
REMARK    3  A    between atoms: C_4  and  C_11
REMARK    4  A    between atoms: N_7  and  C_10
REMARK    5  A    between atoms: N_13  and  C_14
REMARK    6  A    between atoms: C_14  and  C_15
REMARK    7  A    between atoms: C_15  and  N_16
REMARK    8  A    between atoms: N_16  and  C_17
REMARK                            x       y       z     vdW  Elec       q    Type
REMARK                         _______ _______ _______ _____ _____    ______ ____
ROOT
ATOM      1  N   UNL     1       1.882   8.277   0.026  0.00  0.00    -0.328 N 
ATOM      2  H   UNL     1       2.505   8.100   0.800  0.00  0.00    +0.147 HD
ENDROOT
BRANCH   1   5
ATOM      3  C   UNL     1       1.685   9.403  -2.515  0.00  0.00    +0.155 C 
ATOM      4  N   UNL     1       1.488  10.202  -1.303  0.00  0.00    -0.284 N 
ATOM      5  C   UNL     1       1.595   9.606  -0.075  0.00  0.00    +0.126 A 
ATOM      6  C   UNL     1       1.399  10.380   1.074  0.00  0.00    +0.154 A 
ATOM      7  C   UNL     1       1.106  11.761   0.919  0.00  0.00    +0.276 A 
ATOM      8  O   UNL     1       0.933  12.467   1.896  0.00  0.00    -0.266 OA
ATOM      9  N   UNL     1       1.016  12.281  -0.321  0.00  0.00    -0.263 N 
ATOM     10  C   UNL     1       1.204  11.511  -1.407  0.00  0.00    +0.333 A 
ATOM     11  O   UNL     1       1.116  12.013  -2.511  0.00  0.00    -0.246 OA
ATOM     12  C   UNL     1       0.709  13.704  -0.488  0.00  0.00    +0.157 C 
BRANCH   6  13
ATOM     13  C   UNL     1       1.496   9.793   2.377  0.00  0.00    +0.108 C 
ATOM     14  N   UNL     1       1.574   9.328   3.410  0.00  0.00    -0.191 NA
ENDBRANCH   6  13
ENDBRANCH   1   5
BRANCH   1  15
ATOM     15  C   UNL     1       0.653   7.481   0.148  0.00  0.00    +0.121 C 
BRANCH  15  16
ATOM     16  C   UNL     1       1.006   5.992   0.129  0.00  0.00    +0.121 C 
BRANCH  16  17
ATOM     17  N   UNL     1      -0.219   5.198   0.250  0.00  0.00    -0.329 N 
ATOM     18  H   UNL     1      -1.079   5.641   0.325  0.00  0.00    +0.147 HD
BRANCH  17  19
ATOM     19  C   UNL     1      -0.150   3.810   0.256  0.00  0.00    +0.096 A 
ATOM     20  C   UNL     1       1.086   3.181   0.147  0.00  0.00    +0.041 A 
ATOM     21  C   UNL     1       1.140   1.799   0.154  0.00  0.00    +0.005 A 
ATOM     22  C   UNL     1      -0.048   1.089   0.271  0.00  0.00    +0.018 A 
ATOM     23  C   UNL     1      -1.240   1.779   0.370  0.00  0.00    +0.084 A 
ATOM     24  N   UNL     1      -1.330   3.136   0.372  0.00  0.00    -0.350 N 
ATOM     25  H   UNL     1      -2.231   3.622   0.457  0.00  0.00    +0.166 HD
ENDBRANCH  17  19
ENDBRANCH  16  17
ENDBRANCH  15  16
ENDBRANCH   1  15
TORSDOF 6
