REMARK  Name = ZINC40521188
REMARK  5 active torsions:
REMARK  status: ('A' for Active; 'I' for Inactive)
REMARK    1  A    between atoms: C_1  and  C_2
REMARK    2  A    between atoms: C_5  and  O_23
REMARK    3  A    between atoms: C_10  and  C_11
REMARK    4  A    between atoms: N_13  and  C_14
REMARK    5  A    between atoms: O_23  and  C_24
REMARK                            x       y       z     vdW  Elec       q    Type
REMARK                         _______ _______ _______ _____ _____    ______ ____
ROOT
ATOM      1  C   UNL     1      -0.030  -0.384   2.485  0.00  0.00    +0.280 C 
ATOM      2  O   UNL     1      -0.100   0.801   2.747  0.00  0.00    -0.267 OA
ATOM      3  N   UNL     1       0.054  -1.291   3.479  0.00  0.00    -0.298 N 
ATOM      4  H   UNL     1       0.110  -2.236   3.270  0.00  0.00    +0.150 HD
ENDROOT
BRANCH   1  14
ATOM      5  C   UNL     1      -0.217   1.495   0.014  0.00  0.00    +0.048 C 
ATOM      6  C   UNL     1      -0.120  -0.009   0.004  0.00  0.00    +0.008 A 
ATOM      7  C   UNL     1      -0.087  -0.880  -1.170  0.00  0.00    +0.027 A 
ATOM      8  C   UNL     1      -0.130  -0.657  -2.548  0.00  0.00    +0.057 A 
ATOM      9  C   UNL     1      -0.079  -1.730  -3.414  0.00  0.00    +0.121 A 
ATOM     10  C   UNL     1       0.015  -3.028  -2.916  0.00  0.00    +0.049 A 
ATOM     11  C   UNL     1       0.058  -3.259  -1.559  0.00  0.00    +0.050 A 
ATOM     12  C   UNL     1       0.008  -2.192  -0.669  0.00  0.00    +0.136 A 
ATOM     13  O   UNL     1       0.030  -2.113   0.676  0.00  0.00    -0.450 OA
ATOM     14  C   UNL     1      -0.038  -0.829   1.084  0.00  0.00    +0.193 A 
BRANCH   9  15
ATOM     15  O   UNL     1      -0.120  -1.521  -4.757  0.00  0.00    -0.495 OA
ATOM     16  C   UNL     1      -0.063  -2.676  -5.596  0.00  0.00    +0.277 C 
ENDBRANCH   9  15
ENDBRANCH   1  14
BRANCH   3  17
ATOM     17  C   UNL     1       0.062  -0.848   4.875  0.00  0.00    +0.159 C 
ATOM     18  C   UNL     1       0.560  -1.983   5.772  0.00  0.00    +0.032 C 
ATOM     19  C   UNL     1       0.104  -3.329   5.239  0.00  0.00    +0.004 C 
ATOM     20  C   UNL     1      -1.398  -3.538   5.308  0.00  0.00    +0.019 C 
ATOM     21  C   UNL     1      -2.124  -2.587   4.355  0.00  0.00    +0.104 C 
ATOM     22  N   UNL     1      -2.359  -1.311   5.051  0.00  0.00    -0.314 N 
ATOM     23  C   UNL     1      -1.344  -0.477   5.299  0.00  0.00    +0.233 C 
ATOM     24  O   UNL     1      -1.546   0.575   5.869  0.00  0.00    -0.274 OA
ATOM     25  H   UNL     1      -3.256  -1.072   5.330  0.00  0.00    +0.149 HD
ENDBRANCH   3  17
TORSDOF 3
