REMARK  Name = ZINC07959248
REMARK  4 active torsions:
REMARK  status: ('A' for Active; 'I' for Inactive)
REMARK    1  A    between atoms: C_1  and  C_2
REMARK    2  A    between atoms: C_10  and  C_11
REMARK    3  A    between atoms: N_16  and  S_19
REMARK    4  A    between atoms: S_19  and  C_22
REMARK                            x       y       z     vdW  Elec       q    Type
REMARK                         _______ _______ _______ _____ _____    ______ ____
ROOT
ATOM      1  C   UNL     1      -3.761   3.409  -3.634  0.00  0.00    +0.254 C 
ATOM      2  O   UNL     1      -4.571   3.163  -2.759  0.00  0.00    -0.269 OA
ATOM      3  N   UNL     1      -2.981   2.427  -4.126  0.00  0.00    -0.295 N 
ATOM      4  C   UNL     1      -2.081   2.683  -5.259  0.00  0.00    +0.125 C 
ATOM      5  C   UNL     1      -2.392   1.672  -6.370  0.00  0.00    +0.128 C 
ATOM      6  N   UNL     1      -2.427   0.325  -5.783  0.00  0.00    -0.174 NA
ATOM      7  C   UNL     1      -3.331   0.068  -4.653  0.00  0.00    +0.128 C 
ATOM      8  C   UNL     1      -3.016   1.080  -3.539  0.00  0.00    +0.125 C 
ENDROOT
BRANCH   1  18
ATOM      9  C   UNL     1      -5.389   4.596  -5.902  0.00  0.00    +0.046 C 
ATOM     10  C   UNL     1      -4.329   5.370  -5.162  0.00  0.00    -0.024 A 
ATOM     11  C   UNL     1      -4.059   6.705  -5.511  0.00  0.00    -0.007 A 
ATOM     12  C   UNL     1      -4.673   7.490  -6.521  0.00  0.00    +0.009 A 
ATOM     13  C   UNL     1      -4.287   8.774  -6.734  0.00  0.00    +0.001 A 
ATOM     14  C   UNL     1      -3.283   9.368  -5.978  0.00  0.00    +0.001 A 
ATOM     15  C   UNL     1      -2.659   8.640  -4.985  0.00  0.00    +0.015 A 
ATOM     16  C   UNL     1      -3.041   7.335  -4.757  0.00  0.00    +0.020 A 
ATOM     17  S   UNL     1      -2.526   6.072  -3.622  0.00  0.00    -0.083 S 
ATOM     18  C   UNL     1      -3.635   4.779  -4.154  0.00  0.00    +0.078 A 
ENDBRANCH   1  18
BRANCH   6  19
ATOM     19  S   UNL     1      -1.469  -0.883  -6.388  0.00  0.00    +0.061 S 
ATOM     20  O   UNL     1      -2.095  -2.110  -6.040  0.00  0.00    -0.153 OA
ATOM     21  O   UNL     1      -1.175  -0.532  -7.733  0.00  0.00    -0.153 OA
BRANCH  19  22
ATOM     22  C   UNL     1       0.057  -0.828  -5.508  0.00  0.00    +0.106 A 
ATOM     23  C   UNL     1       1.099  -0.052  -5.981  0.00  0.00    +0.031 A 
ATOM     24  C   UNL     1       2.295  -0.005  -5.289  0.00  0.00    +0.040 A 
ATOM     25  C   UNL     1       2.452  -0.743  -4.128  0.00  0.00    +0.124 A 
ATOM     26  C   UNL     1       1.409  -1.523  -3.659  0.00  0.00    +0.040 A 
ATOM     27  C   UNL     1       0.212  -1.565  -4.349  0.00  0.00    +0.031 A 
ATOM     28  F   UNL     1       3.622  -0.701  -3.454  0.00  0.00    -0.205 F 
ENDBRANCH  19  22
ENDBRANCH   6  19
TORSDOF 3
