REMARK  Name = ZINC25782630
REMARK  10 active torsions:
REMARK  status: ('A' for Active; 'I' for Inactive)
REMARK    1  A    between atoms: C_13  and  C_14
REMARK    2  A    between atoms: C_14  and  O_15
REMARK    3  A    between atoms: O_15  and  C_16
REMARK    4  A    between atoms: N_18  and  CA_19
REMARK    5  A    between atoms: CA_19  and  C_21
REMARK    6  A    between atoms: CA_19  and  C_33
REMARK    7  A    between atoms: C_21  and  C_22
REMARK    8  A    between atoms: C_25  and  C_28
REMARK    9  A    between atoms: C_28  and  P_29
REMARK   10  A    between atoms: P_29  and  O_32
REMARK                            x       y       z     vdW  Elec       q    Type
REMARK                         _______ _______ _______ _____ _____    ______ ____
ROOT
ATOM      1  C   UNL     1      -2.502   6.498  -2.157  0.00  0.00    +0.401 C 
ATOM      2  O   UNL     1      -1.903   6.983  -3.097  0.00  0.00    -0.226 OA
ATOM      3  N   UNL     1      -3.849   6.505  -2.140  0.00  0.00    -0.267 N 
ATOM      4  H   UNL     1      -4.391   6.066  -1.289  0.00  0.00    +0.153 HD
ENDROOT
BRANCH   1   5
ATOM      5  O   UNL     1      -1.819   5.954  -1.132  0.00  0.00    -0.449 OA
BRANCH   5   6
ATOM      6  C   UNL     1      -0.369   5.982  -1.218  0.00  0.00    +0.246 C 
BRANCH   6  19
ATOM      7  C   UNL     1      -0.013   1.076   0.008  0.00  0.00    +0.001 A 
ATOM      8  C   UNL     1      -1.221   1.748   0.017  0.00  0.00    +0.000 A 
ATOM      9  C   UNL     1      -1.246   3.132   0.030  0.00  0.00    +0.005 A 
ATOM     10  C   UNL     1      -0.064   3.843   0.023  0.00  0.00    -0.029 A 
ATOM     11  C   UNL     1       1.157   3.175   0.008  0.00  0.00    -0.014 A 
ATOM     12  C   UNL     1       1.174   1.779   0.000  0.00  0.00    +0.009 A 
ATOM     13  C   UNL     1       2.262   4.166   0.002  0.00  0.00    -0.014 A 
ATOM     14  C   UNL     1       3.648   3.998  -0.013  0.00  0.00    +0.009 A 
ATOM     15  C   UNL     1       4.476   5.101  -0.015  0.00  0.00    +0.001 A 
ATOM     16  C   UNL     1       3.938   6.376  -0.003  0.00  0.00    +0.000 A 
ATOM     17  C   UNL     1       2.566   6.550   0.011  0.00  0.00    +0.005 A 
ATOM     18  C   UNL     1       1.731   5.452   0.014  0.00  0.00    -0.029 A 
ATOM     19  C   UNL     1       0.227   5.323   0.028  0.00  0.00    +0.088 C 
ENDBRANCH   6  19
ENDBRANCH   5   6
ENDBRANCH   1   5
BRANCH   3  20
ATOM     20  CA  UNL     1      -4.593   7.097  -3.255  0.00  0.00    +0.193 C 
BRANCH  20  21
ATOM     21  C   UNL     1      -4.726   8.582  -3.038  0.00  0.00    +0.376 C 
ATOM     22  O   UNL     1      -4.249   9.094  -2.053  0.00  0.00    -0.244 OA
ATOM     23  OXT UNL     1      -5.375   9.337  -3.939  0.00  0.00    -0.244 OA
ENDBRANCH  20  21
BRANCH  20  24
ATOM     24  C   UNL     1      -5.984   6.466  -3.333  0.00  0.00    +0.069 C 
BRANCH  24  25
ATOM     25  C   UNL     1      -5.854   5.003  -3.672  0.00  0.00    -0.045 A 
ATOM     26  C   UNL     1      -5.856   4.597  -4.993  0.00  0.00    +0.004 A 
ATOM     27  C   UNL     1      -5.732   3.256  -5.304  0.00  0.00    +0.004 A 
ATOM     28  C   UNL     1      -5.616   2.320  -4.294  0.00  0.00    -0.036 A 
ATOM     29  C   UNL     1      -5.620   2.725  -2.972  0.00  0.00    +0.004 A 
ATOM     30  C   UNL     1      -5.739   4.067  -2.661  0.00  0.00    +0.004 A 
BRANCH  28  31
ATOM     31  C   UNL     1      -5.486   0.858  -4.633  0.00  0.00    +0.164 C 
BRANCH  31  32
ATOM     32  P   UNL     1      -7.143   0.104  -4.724  0.00  0.00    +0.362 P 
ATOM     33  O   UNL     1      -7.869   0.354  -3.459  0.00  0.00    -0.256 OA
ATOM     34  O   UNL     1      -7.961   0.754  -5.949  0.00  0.00    -0.140 OA
BRANCH  32  35
ATOM     35  O   UNL     1      -6.999  -1.483  -4.957  0.00  0.00    -0.322 OA
ATOM     36  H   UNL     1      -7.899  -2.110  -5.038  0.00  0.00    +0.220 HD
ENDBRANCH  32  35
ENDBRANCH  31  32
ENDBRANCH  28  31
ENDBRANCH  24  25
ENDBRANCH  20  24
ENDBRANCH   3  20
TORSDOF 10
