REMARK  Name = ZINC11820130
REMARK  7 active torsions:
REMARK  status: ('A' for Active; 'I' for Inactive)
REMARK    1  A    between atoms: C_6  and  C_7
REMARK    2  A    between atoms: C_7  and  N_8
REMARK    3  A    between atoms: C_12  and  C_15
REMARK    4  A    between atoms: C_12  and  O_26
REMARK    5  A    between atoms: C_15  and  N_51
REMARK    6  A    between atoms: C_16  and  C_17
REMARK    7  A    between atoms: C_16  and  N_51
REMARK                            x       y       z     vdW  Elec       q    Type
REMARK                         _______ _______ _______ _____ _____    ______ ____
ROOT
ATOM      1  N   UNL     1       0.066   1.511  -0.089  0.00  0.00    -0.295 N 
ATOM      2  C   UNL     1       1.322   2.252  -0.081  0.00  0.00    +0.108 C 
ATOM      3  C   UNL     1       1.103   3.671   0.446  0.00  0.00    +0.022 C 
ATOM      4  C   UNL     1      -0.066   4.304  -0.319  0.00  0.00    +0.044 C 
ATOM      5  C   UNL     1      -1.351   3.564   0.062  0.00  0.00    +0.127 C 
ATOM      6  C   UNL     1      -1.139   2.082  -0.053  0.00  0.00    +0.246 C 
ATOM      7  O   UNL     1      -2.115   1.365  -0.111  0.00  0.00    -0.273 OA
ENDROOT
BRANCH   5   8
ATOM      8  O   UNL     1      -1.708   3.895   1.405  0.00  0.00    -0.381 OA
ATOM      9  H   UNL     1      -2.515   3.461   1.716  0.00  0.00    +0.211 HD
ENDBRANCH   5   8
BRANCH   1  10
ATOM     10  C   UNL     1       0.132   0.049  -0.147  0.00  0.00    +0.143 C 
BRANCH  10  16
ATOM     11  C   UNL     1       1.395  -0.713   1.875  0.00  0.00    +0.008 A 
ATOM     12  C   UNL     1       1.438  -1.218   3.161  0.00  0.00    +0.038 A 
ATOM     13  C   UNL     1       0.262  -1.529   3.821  0.00  0.00    +0.123 A 
ATOM     14  C   UNL     1      -0.957  -1.327   3.196  0.00  0.00    +0.038 A 
ATOM     15  C   UNL     1      -0.997  -0.817   1.912  0.00  0.00    +0.008 A 
ATOM     16  C   UNL     1       0.178  -0.507   1.253  0.00  0.00    -0.030 A 
ATOM     17  F   UNL     1       0.303  -2.028   5.076  0.00  0.00    -0.205 F 
ENDBRANCH  10  16
ENDBRANCH   1  10
BRANCH   5  18
ATOM     18  C   UNL     1      -2.479   3.986  -0.882  0.00  0.00    -0.037 C 
BRANCH  18  19
ATOM     19  N   UNL     1      -2.643   5.450  -0.815  0.00  0.00    +0.385 N 
ATOM     20  H   UNL     1      -1.788   5.903  -1.158  0.00  0.00    -0.085 HD
ATOM     21  H   UNL     1      -2.811   5.728   0.159  0.00  0.00    -0.085 HD
BRANCH  19  22
ATOM     22  C   UNL     1      -3.786   5.875  -1.646  0.00  0.00    -0.024 C 
BRANCH  22  23
ATOM     23  C   UNL     1      -3.929   7.373  -1.559  0.00  0.00    +0.049 A 
ATOM     24  C   UNL     1      -4.705   8.070  -0.623  0.00  0.00    -0.006 A 
ATOM     25  C   UNL     1      -4.568   9.391  -0.872  0.00  0.00    +0.039 A 
ATOM     26  N   UNL     1      -3.743   9.526  -1.935  0.00  0.00    -0.281 N 
ATOM     27  H   UNL     1      -3.459  10.389  -2.353  0.00  0.00    +0.189 HD
ATOM     28  N   UNL     1      -3.357   8.245  -2.346  0.00  0.00    -0.180 NA
ATOM     29  C   UNL     1      -5.382  10.199   0.115  0.00  0.00    +0.055 C 
ATOM     30  C   UNL     1      -5.688   9.225   1.273  0.00  0.00    +0.011 C 
ATOM     31  C   UNL     1      -5.618   7.854   0.566  0.00  0.00    +0.039 C 
ENDBRANCH  22  23
ENDBRANCH  19  22
ENDBRANCH  18  19
ENDBRANCH   5  18
TORSDOF 7
