REMARK  Name = ZINC12338887
REMARK  7 active torsions:
REMARK  status: ('A' for Active; 'I' for Inactive)
REMARK    1  A    between atoms: C_1  and  C_2
REMARK    2  A    between atoms: C_2  and  C_3
REMARK    3  A    between atoms: C_7  and  N_9
REMARK    4  A    between atoms: C_11  and  C_23
REMARK    5  A    between atoms: C_14  and  C_21
REMARK    6  A    between atoms: C_17  and  C_20
REMARK    7  A    between atoms: C_21  and  O_22
REMARK                            x       y       z     vdW  Elec       q    Type
REMARK                         _______ _______ _______ _____ _____    ______ ____
ROOT
ATOM      1  N   UNL     1       0.017  -1.468   4.671  0.00  0.00    -0.325 N 
ATOM      2  C   UNL     1       0.254  -2.571   5.347  0.00  0.00    +0.212 A 
ATOM      3  C   UNL     1      -0.393  -2.814   6.652  0.00  0.00    +0.097 A 
ATOM      4  C   UNL     1      -0.571  -4.125   7.034  0.00  0.00    +0.030 A 
ATOM      5  C   UNL     1      -0.098  -5.162   6.114  0.00  0.00    +0.027 A 
ATOM      6  C   UNL     1      -0.454  -6.507   6.274  0.00  0.00    +0.007 A 
ATOM      7  C   UNL     1       0.027  -7.427   5.366  0.00  0.00    +0.117 A 
ATOM      8  N   UNL     1       0.805  -7.058   4.365  0.00  0.00    -0.256 NA
ATOM      9  C   UNL     1       1.169  -5.806   4.173  0.00  0.00    +0.081 A 
ATOM     10  C   UNL     1       0.736  -4.809   5.037  0.00  0.00    +0.159 A 
ATOM     11  O   UNL     1       1.096  -3.520   4.862  0.00  0.00    -0.437 OA
ATOM     12  C   UNL     1       2.059  -5.454   3.009  0.00  0.00    +0.069 C 
ATOM     13  H   UNL     1      -0.652  -0.841   4.985  0.00  0.00    +0.169 HD
ENDROOT
BRANCH   1  18
ATOM     14  C   UNL     1       0.756  -0.487   1.232  0.00  0.00    -0.046 A 
ATOM     15  C   UNL     1       2.127  -0.678   1.201  0.00  0.00    +0.004 A 
ATOM     16  C   UNL     1       2.795  -1.133   2.324  0.00  0.00    +0.002 A 
ATOM     17  C   UNL     1       2.098  -1.398   3.485  0.00  0.00    +0.026 A 
ATOM     18  C   UNL     1       0.715  -1.207   3.524  0.00  0.00    +0.042 A 
ATOM     19  C   UNL     1       0.048  -0.743   2.387  0.00  0.00    +0.029 A 
BRANCH  14  21
ATOM     20  C   UNL     1       0.001   1.538   0.016  0.00  0.00    +0.009 C 
ATOM     21  C   UNL     1       0.038   0.008   0.004  0.00  0.00    +0.032 C 
ENDBRANCH  14  21
ENDBRANCH   1  18
BRANCH   3  22
ATOM     22  C   UNL     1      -0.832  -1.698   7.511  0.00  0.00    +0.247 C 
ATOM     23  O   UNL     1      -0.743  -0.553   7.112  0.00  0.00    -0.270 OA
ATOM     24  N   UNL     1      -1.331  -1.948   8.738  0.00  0.00    -0.325 N 
ATOM     25  H   UNL     1      -1.333  -2.853   9.085  0.00  0.00    +0.145 HD
ATOM     26  H   UNL     1      -1.687  -1.222   9.273  0.00  0.00    +0.145 HD
ENDBRANCH   3  22
BRANCH   6  27
ATOM     27  C   UNL     1      -1.343  -6.939   7.412  0.00  0.00    +0.193 C 
BRANCH  27  28
ATOM     28  O   UNL     1      -1.549  -8.351   7.345  0.00  0.00    -0.390 OA
ATOM     29  H   UNL     1      -2.113  -8.700   8.049  0.00  0.00    +0.210 HD
ENDBRANCH  27  28
ENDBRANCH   6  27
TORSDOF 5
