REMARK  Name = ZINC63533208
REMARK  11 active torsions:
REMARK  status: ('A' for Active; 'I' for Inactive)
REMARK    1  A    between atoms: C_1  and  C_2
REMARK    2  A    between atoms: C_3  and  C_31
REMARK    3  A    between atoms: C_5  and  N_11
REMARK    4  A    between atoms: C_7  and  C_9
REMARK    5  A    between atoms: C_12  and  C_14
REMARK    6  A    between atoms: C_14  and  S_15
REMARK    7  A    between atoms: S_15  and  C_16
REMARK    8  A    between atoms: C_19  and  C_30
REMARK    9  A    between atoms: C_20  and  C_22
REMARK   10  A    between atoms: C_22  and  C_23
REMARK   11  A    between atoms: C_26  and  O_29
REMARK                            x       y       z     vdW  Elec       q    Type
REMARK                         _______ _______ _______ _____ _____    ______ ____
ROOT
ATOM      1  C   UNL     1      -7.092  -2.895  -5.552  0.00  0.00    +0.145 A 
ATOM      2  H   UNL     1      -9.035  -2.304  -6.040  0.00  0.00    +0.168 HD
ATOM      3  N   UNL     1      -6.592  -4.093  -5.357  0.00  0.00    -0.338 N 
ATOM      4  C   UNL     1      -7.558  -5.010  -5.527  0.00  0.00    +0.034 A 
ATOM      5  C   UNL     1      -8.698  -4.371  -5.839  0.00  0.00    +0.041 A 
ATOM      6  N   UNL     1      -8.413  -3.024  -5.852  0.00  0.00    -0.338 N 
ATOM      7  C   UNL     1      -7.392  -6.502  -5.393  0.00  0.00    +0.065 C 
ATOM      8  H   UNL     1      -5.670  -4.285  -5.126  0.00  0.00    +0.167 HD
ENDROOT
BRANCH   1   9
ATOM      9  S   UNL     1      -6.205  -1.377  -5.437  0.00  0.00    -0.080 S 
BRANCH   9  10
ATOM     10  C   UNL     1      -5.010  -1.666  -4.103  0.00  0.00    +0.173 C 
BRANCH  10  12
ATOM     11  N   UNL     1      -3.215  -0.410  -2.954  0.00  0.00    -0.292 N 
ATOM     12  C   UNL     1      -4.175  -0.428  -3.899  0.00  0.00    +0.225 C 
ATOM     13  O   UNL     1      -4.367   0.553  -4.587  0.00  0.00    -0.275 OA
ATOM     14  H   UNL     1      -3.062  -1.195  -2.404  0.00  0.00    +0.151 HD
BRANCH  11  19
ATOM     15  C   UNL     1      -0.013   1.086   0.008  0.00  0.00    +0.015 C 
ATOM     16  C   UNL     1      -0.753   1.593  -1.232  0.00  0.00    +0.050 C 
ATOM     17  C   UNL     1      -0.148   1.007  -2.488  0.00  0.00    +0.017 C 
ATOM     18  N   UNL     1      -1.050   0.587  -3.282  0.00  0.00    -0.269 NA
ATOM     19  C   UNL     1      -2.404   0.793  -2.755  0.00  0.00    +0.208 C 
ATOM     20  C   UNL     1      -2.210   1.071  -1.246  0.00  0.00    +0.142 C 
ATOM     21  C   UNL     1       1.332   0.931  -2.764  0.00  0.00    +0.060 C 
BRANCH  20  22
ATOM     22  C   UNL     1      -2.340  -0.166  -0.458  0.00  0.00    +0.070 C 
ATOM     23  N   UNL     1      -2.440  -1.120   0.151  0.00  0.00    -0.196 NA
ENDBRANCH  20  22
ENDBRANCH  11  19
ENDBRANCH  10  12
ENDBRANCH   9  10
ENDBRANCH   1   9
BRANCH   5  24
ATOM     24  C   UNL     1     -10.036  -5.007  -6.117  0.00  0.00    +0.090 C 
BRANCH  24  25
ATOM     25  C   UNL     1     -10.759  -5.244  -4.816  0.00  0.00    -0.041 A 
ATOM     26  C   UNL     1     -10.587  -6.436  -4.138  0.00  0.00    +0.007 A 
ATOM     27  C   UNL     1     -11.249  -6.656  -2.946  0.00  0.00    +0.045 A 
ATOM     28  C   UNL     1     -12.088  -5.679  -2.429  0.00  0.00    +0.117 A 
ATOM     29  C   UNL     1     -12.259  -4.484  -3.111  0.00  0.00    +0.045 A 
ATOM     30  C   UNL     1     -11.590  -4.266  -4.300  0.00  0.00    +0.007 A 
BRANCH  28  31
ATOM     31  O   UNL     1     -12.741  -5.893  -1.256  0.00  0.00    -0.507 OA
ATOM     32  H   UNL     1     -12.249  -5.606  -0.474  0.00  0.00    +0.292 HD
ENDBRANCH  28  31
ENDBRANCH  24  25
ENDBRANCH   5  24
TORSDOF 8
