REMARK  Name = ZINC15062423
REMARK  7 active torsions:
REMARK  status: ('A' for Active; 'I' for Inactive)
REMARK    1  A    between atoms: C_4  and  N_7
REMARK    2  A    between atoms: C_10  and  N_56
REMARK    3  A    between atoms: C_13  and  C_14
REMARK    4  A    between atoms: C_13  and  N_56
REMARK    5  A    between atoms: C_14  and  O_25
REMARK    6  A    between atoms: N_18  and  C_21
REMARK    7  A    between atoms: C_21  and  C_22
REMARK                            x       y       z     vdW  Elec       q    Type
REMARK                         _______ _______ _______ _____ _____    ______ ____
ROOT
ATOM      1  N   UNL     1      -4.815   2.418  -1.325  0.00  0.00    +0.383 N 
ATOM      2  H   UNL     1      -4.779   3.405  -1.045  0.00  0.00    -0.085 HD
ATOM      3  H   UNL     1      -4.276   2.288  -2.190  0.00  0.00    -0.085 HD
ENDROOT
BRANCH   1   7
ATOM      4  N   UNL     1      -8.404   1.674  -3.417  0.00  0.00    -0.330 N 
ATOM      5  C   UNL     1      -8.412   2.800  -2.474  0.00  0.00    +0.103 C 
ATOM      6  C   UNL     1      -6.973   3.219  -2.166  0.00  0.00    +0.003 C 
ATOM      7  C   UNL     1      -6.218   2.031  -1.564  0.00  0.00    -0.069 C 
ATOM      8  C   UNL     1      -6.266   0.855  -2.544  0.00  0.00    +0.003 C 
ATOM      9  C   UNL     1      -7.725   0.505  -2.842  0.00  0.00    +0.103 C 
BRANCH   4  13
ATOM     10  C   UNL     1     -12.271   0.709  -4.623  0.00  0.00    +0.000 A 
ATOM     11  C   UNL     1     -11.195  -0.009  -5.114  0.00  0.00    +0.002 A 
ATOM     12  C   UNL     1      -9.912   0.309  -4.716  0.00  0.00    +0.023 A 
ATOM     13  C   UNL     1      -9.701   1.350  -3.822  0.00  0.00    +0.030 A 
ATOM     14  C   UNL     1     -10.784   2.066  -3.326  0.00  0.00    +0.023 A 
ATOM     15  C   UNL     1     -12.064   1.747  -3.733  0.00  0.00    +0.002 A 
ENDBRANCH   4  13
ENDBRANCH   1   7
BRANCH   1  16
ATOM     16  C   UNL     1      -4.229   1.587  -0.257  0.00  0.00    -0.037 C 
BRANCH  16  17
ATOM     17  C   UNL     1      -2.824   2.101   0.065  0.00  0.00    +0.127 C 
ATOM     18  C   UNL     1      -2.898   3.584   0.435  0.00  0.00    +0.044 C 
ATOM     19  C   UNL     1      -1.547   4.004   1.014  0.00  0.00    +0.022 C 
ATOM     20  C   UNL     1      -1.343   3.301   2.357  0.00  0.00    +0.108 C 
ATOM     21  N   UNL     1      -1.579   1.869   2.219  0.00  0.00    -0.299 N 
ATOM     22  C   UNL     1      -2.257   1.316   1.213  0.00  0.00    +0.245 C 
ATOM     23  O   UNL     1      -2.425   0.115   1.226  0.00  0.00    -0.273 OA
BRANCH  17  24
ATOM     24  O   UNL     1      -1.986   1.940  -1.081  0.00  0.00    -0.381 OA
ATOM     25  H   UNL     1      -1.896   1.024  -1.377  0.00  0.00    +0.211 HD
ENDBRANCH  17  24
BRANCH  21  26
ATOM     26  C   UNL     1      -1.036   0.982   3.251  0.00  0.00    +0.111 C 
BRANCH  26  27
ATOM     27  C   UNL     1      -2.069   0.802   4.364  0.00  0.00    +0.006 C 
ATOM     28  C   UNL     1      -1.706   1.321   5.757  0.00  0.00    +0.005 C 
ATOM     29  C   UNL     1      -1.736  -0.185   5.484  0.00  0.00    +0.005 C 
ENDBRANCH  26  27
ENDBRANCH  21  26
ENDBRANCH  16  17
ENDBRANCH   1  16
TORSDOF 7
