REMARK  Name = ZINC42766174
REMARK  9 active torsions:
REMARK  status: ('A' for Active; 'I' for Inactive)
REMARK    1  A    between atoms: C_3  and  C_20
REMARK    2  A    between atoms: C_6  and  C_7
REMARK    3  A    between atoms: C_7  and  C_9
REMARK    4  A    between atoms: C_7  and  O_19
REMARK    5  A    between atoms: C_9  and  N_10
REMARK    6  A    between atoms: N_10  and  C_11
REMARK    7  A    between atoms: N_10  and  C_16
REMARK    8  A    between atoms: C_11  and  C_12
REMARK    9  A    between atoms: C_20  and  N_22
REMARK                            x       y       z     vdW  Elec       q    Type
REMARK                         _______ _______ _______ _____ _____    ______ ____
ROOT
ATOM      1  C   UNL     1      -1.314  -0.983   0.102  0.00  0.00    +0.128 C 
ENDROOT
BRANCH   1   7
ATOM      2  C   UNL     1       0.089   1.083   0.246  0.00  0.00    +0.007 A 
ATOM      3  C   UNL     1       1.312   1.719   0.303  0.00  0.00    +0.010 A 
ATOM      4  C   UNL     1       2.488   0.966   0.279  0.00  0.00    +0.003 A 
ATOM      5  C   UNL     1       2.417  -0.426   0.197  0.00  0.00    +0.010 A 
ATOM      6  C   UNL     1       1.187  -1.048   0.140  0.00  0.00    +0.007 A 
ATOM      7  C   UNL     1       0.026  -0.296   0.164  0.00  0.00    -0.021 A 
BRANCH   4   8
ATOM      8  C   UNL     1       3.801   1.639   0.340  0.00  0.00    +0.077 C 
ATOM      9  S   UNL     1       3.992   3.059   1.277  0.00  0.00    -0.035 S 
BRANCH   8  10
ATOM     10  N   UNL     1       4.848   1.135  -0.343  0.00  0.00    -0.352 N 
ATOM     11  H   UNL     1       4.740   0.331  -0.874  0.00  0.00    +0.143 HD
ATOM     12  H   UNL     1       5.711   1.578  -0.303  0.00  0.00    +0.143 HD
ENDBRANCH   8  10
ENDBRANCH   4   8
ENDBRANCH   1   7
BRANCH   1  13
ATOM     13  O   UNL     1      -1.280  -2.167   0.902  0.00  0.00    -0.389 OA
ATOM     14  H   UNL     1      -0.615  -2.812   0.622  0.00  0.00    +0.210 HD
ENDBRANCH   1  13
BRANCH   1  15
ATOM     15  C   UNL     1      -1.630  -1.356  -1.347  0.00  0.00    -0.041 C 
BRANCH  15  16
ATOM     16  N   UNL     1      -2.985  -1.917  -1.425  0.00  0.00    +0.389 N 
ATOM     17  H   UNL     1      -3.053  -2.718  -0.816  0.00  0.00    -0.081 HD
BRANCH  16  18
ATOM     18  C   UNL     1      -3.960  -0.900  -1.006  0.00  0.00    -0.068 C 
ATOM     19  C   UNL     1      -4.612  -1.071   0.367  0.00  0.00    -0.017 C 
ATOM     20  C   UNL     1      -5.426  -1.328  -0.903  0.00  0.00    -0.017 C 
ENDBRANCH  16  18
BRANCH  16  21
ATOM     21  C   UNL     1      -3.268  -2.326  -2.807  0.00  0.00    +0.037 C 
BRANCH  21  22
ATOM     22  C   UNL     1      -2.367  -3.503  -3.185  0.00  0.00    +0.376 C 
ATOM     23  F   UNL     1      -2.496  -4.515  -2.227  0.00  0.00    -0.173 F 
ATOM     24  F   UNL     1      -2.745  -3.997  -4.438  0.00  0.00    -0.173 F 
ATOM     25  F   UNL     1      -1.036  -3.075  -3.234  0.00  0.00    -0.173 F 
ENDBRANCH  21  22
ENDBRANCH  16  21
ENDBRANCH  15  16
ENDBRANCH   1  15
TORSDOF 9
