REMARK  Name = ZINC62241015
REMARK  12 active torsions:
REMARK  status: ('A' for Active; 'I' for Inactive)
REMARK    1  A    between atoms: C_1  and  C_2
REMARK    2  A    between atoms: C_2  and  O_3
REMARK    3  A    between atoms: O_3  and  C_4
REMARK    4  A    between atoms: C_7  and  C_10
REMARK    5  A    between atoms: C_10  and  C_16
REMARK    6  A    between atoms: C_16  and  N_17
REMARK    7  A    between atoms: N_17  and  C_18
REMARK    8  A    between atoms: C_18  and  C_19
REMARK    9  A    between atoms: C_18  and  C_20
REMARK   10  A    between atoms: N_25  and  C_26
REMARK   11  A    between atoms: C_26  and  C_27
REMARK   12  A    between atoms: C_26  and  C_28
REMARK                            x       y       z     vdW  Elec       q    Type
REMARK                         _______ _______ _______ _____ _____    ______ ____
ROOT
ATOM      1  C   UNL     1      -3.487  -6.432   0.116  0.00  0.00    -0.070 C 
ENDROOT
BRANCH   1   2
ATOM      2  C   UNL     1      -1.979  -6.331  -0.121  0.00  0.00    -0.015 C 
ATOM      3  C   UNL     1      -1.605  -7.104  -1.389  0.00  0.00    +0.038 C 
ATOM      4  C   UNL     1      -1.932  -8.586  -1.190  0.00  0.00    +0.160 C 
ATOM      5  O   UNL     1      -1.229  -9.079  -0.047  0.00  0.00    -0.380 OA
ATOM      6  C   UNL     1      -1.574  -8.425   1.176  0.00  0.00    +0.160 C 
ATOM      7  C   UNL     1      -1.232  -6.937   1.072  0.00  0.00    +0.038 C 
BRANCH   2  11
ATOM      8  C   UNL     1      -0.873  -2.228  -0.568  0.00  0.00    +0.121 A 
ATOM      9  C   UNL     1       0.056  -3.229  -0.814  0.00  0.00    +0.046 A 
ATOM     10  C   UNL     1      -0.304  -4.554  -0.668  0.00  0.00    +0.008 A 
ATOM     11  C   UNL     1      -1.589  -4.884  -0.278  0.00  0.00    -0.043 A 
ATOM     12  C   UNL     1      -2.516  -3.889  -0.033  0.00  0.00    +0.008 A 
ATOM     13  C   UNL     1      -2.159  -2.561  -0.171  0.00  0.00    +0.046 A 
BRANCH   8  14
ATOM     14  O   UNL     1      -0.521  -0.923  -0.710  0.00  0.00    -0.492 OA
BRANCH  14  16
ATOM     15  C   UNL     1       1.029   0.858  -1.226  0.00  0.00    +0.048 C 
ATOM     16  C   UNL     1       0.821  -0.654  -1.122  0.00  0.00    +0.225 C 
ENDBRANCH  14  16
ENDBRANCH   8  14
ENDBRANCH   2  11
ENDBRANCH   1   2
BRANCH   1  17
ATOM     17  N   UNL     1      -4.202  -5.952  -1.074  0.00  0.00    +0.387 N 
ATOM     18  H   UNL     1      -4.024  -4.966  -1.199  0.00  0.00    -0.085 HD
ATOM     19  H   UNL     1      -3.881  -6.457  -1.886  0.00  0.00    -0.085 HD
BRANCH  17  20
ATOM     20  C   UNL     1      -5.644  -6.170  -0.900  0.00  0.00    +0.013 C 
ATOM     21  C   UNL     1      -6.155  -5.307   0.255  0.00  0.00    -0.004 C 
BRANCH  20  22
ATOM     22  C   UNL     1      -6.367  -5.792  -2.167  0.00  0.00    +0.206 C 
ATOM     23  O   UNL     1      -5.742  -5.381  -3.122  0.00  0.00    -0.277 OA
ATOM     24  N   UNL     1      -7.707  -5.911  -2.240  0.00  0.00    -0.242 N 
ATOM     25  C   UNL     1      -8.353  -5.572  -3.374  0.00  0.00    +0.306 C 
ATOM     26  O   UNL     1      -7.726  -5.160  -4.330  0.00  0.00    -0.252 OA
ATOM     27  N   UNL     1      -9.694  -5.691  -3.447  0.00  0.00    -0.297 N 
ATOM     28  H   UNL     1      -8.207  -6.240  -1.477  0.00  0.00    +0.159 HD
ATOM     29  H   UNL     1     -10.194  -6.020  -2.683  0.00  0.00    +0.151 HD
BRANCH  27  30
ATOM     30  C   UNL     1     -10.396  -5.323  -4.679  0.00  0.00    +0.068 C 
ATOM     31  C   UNL     1     -10.385  -6.509  -5.646  0.00  0.00    +0.027 C 
ATOM     32  C   UNL     1     -11.841  -4.947  -4.349  0.00  0.00    +0.027 C 
ENDBRANCH  27  30
ENDBRANCH  20  22
ENDBRANCH  17  20
ENDBRANCH   1  17
TORSDOF 8
