REMARK  Name = ZINC48971394
REMARK  7 active torsions:
REMARK  status: ('A' for Active; 'I' for Inactive)
REMARK    1  A    between atoms: C_1  and  N_2
REMARK    2  A    between atoms: N_2  and  C_3
REMARK    3  A    between atoms: N_2  and  C_10
REMARK    4  A    between atoms: C_3  and  C_4
REMARK    5  A    between atoms: C_10  and  C_11
REMARK    6  A    between atoms: N_13  and  C_14
REMARK    7  A    between atoms: C_17  and  N_21
REMARK                            x       y       z     vdW  Elec       q    Type
REMARK                         _______ _______ _______ _____ _____    ______ ____
ROOT
ATOM      1  C   UNL     1       2.159  -0.075   1.119  0.00  0.00    +0.201 C 
ATOM      2  O   UNL     1       2.557   0.571   0.172  0.00  0.00    -0.278 OA
ATOM      3  N   UNL     1       3.008  -0.409   2.111  0.00  0.00    -0.286 N 
ATOM      4  H   UNL     1       2.674  -0.856   2.905  0.00  0.00    +0.155 HD
ENDROOT
BRANCH   3   5
ATOM      5  C   UNL     1       4.373  -0.112   1.995  0.00  0.00    +0.052 A 
ATOM      6  C   UNL     1       4.948   0.034   0.740  0.00  0.00    +0.026 A 
ATOM      7  C   UNL     1       6.292   0.327   0.626  0.00  0.00    +0.024 A 
ATOM      8  C   UNL     1       7.070   0.476   1.767  0.00  0.00    +0.026 A 
ATOM      9  C   UNL     1       6.496   0.331   3.023  0.00  0.00    +0.044 A 
ATOM     10  C   UNL     1       5.149   0.043   3.137  0.00  0.00    +0.064 A 
ATOM     11 CL   UNL     1       4.429  -0.132   4.707  0.00  0.00    -0.082 Cl
BRANCH   8  12
ATOM     12  N   UNL     1       8.433   0.772   1.651  0.00  0.00    -0.358 N 
ATOM     13  H   UNL     1       8.834   0.873   0.774  0.00  0.00    +0.142 HD
ATOM     14  H   UNL     1       8.976   0.876   2.448  0.00  0.00    +0.142 HD
ENDBRANCH   8  12
ENDBRANCH   3   5
BRANCH   1  15
ATOM     15  C   UNL     1       0.716  -0.504   1.185  0.00  0.00    +0.019 C 
BRANCH  15  17
ATOM     16  C   UNL     1      -0.025   1.450   0.007  0.00  0.00    -0.095 C 
ATOM     17  N   UNL     1       0.005  -0.019  -0.006  0.00  0.00    +0.387 N 
ATOM     18  H   UNL     1       0.482  -0.339  -0.835  0.00  0.00    -0.081 HD
BRANCH  17  19
ATOM     19  C   UNL     1      -1.369  -0.537  -0.001  0.00  0.00    -0.035 C 
BRANCH  19  20
ATOM     20  C   UNL     1      -2.059  -0.142  -1.281  0.00  0.00    -0.025 A 
ATOM     21  C   UNL     1      -2.121  -0.810  -2.458  0.00  0.00    +0.011 A 
ATOM     22  C   UNL     1      -2.820  -0.249  -3.511  0.00  0.00    +0.028 A 
ATOM     23  C   UNL     1      -3.423   0.953  -3.334  0.00  0.00    +0.078 A 
ATOM     24  S   UNL     1      -3.014   1.324  -1.636  0.00  0.00    -0.084 S 
ATOM     25 CL   UNL     1      -4.356   1.885  -4.463  0.00  0.00    -0.076 Cl
ENDBRANCH  19  20
ENDBRANCH  17  19
ENDBRANCH  15  17
ENDBRANCH   1  15
TORSDOF 6
