REMARK  Name = ZINC62787900
REMARK  12 active torsions:
REMARK  status: ('A' for Active; 'I' for Inactive)
REMARK    1  A    between atoms: C_1  and  C_2
REMARK    2  A    between atoms: C_2  and  C_3
REMARK    3  A    between atoms: C_2  and  N_4
REMARK    4  A    between atoms: N_4  and  C_5
REMARK    5  A    between atoms: N_4  and  C_18
REMARK    6  A    between atoms: C_5  and  C_6
REMARK    7  A    between atoms: C_6  and  N_7
REMARK    8  A    between atoms: N_7  and  C_8
REMARK    9  A    between atoms: C_13  and  C_14
REMARK   10  A    between atoms: C_14  and  N_16
REMARK   11  A    between atoms: C_18  and  C_19
REMARK   12  A    between atoms: C_18  and  C_20
REMARK                            x       y       z     vdW  Elec       q    Type
REMARK                         _______ _______ _______ _____ _____    ______ ____
ROOT
ATOM      1  N   UNL     1      -3.042   2.023  -2.229  0.00  0.00    -0.345 N 
ATOM      2  H   UNL     1      -3.392   1.376  -2.861  0.00  0.00    +0.146 HD
ENDROOT
BRANCH   1   3
ATOM      3  C   UNL     1      -3.296   3.377  -2.410  0.00  0.00    +0.038 A 
ATOM      4  C   UNL     1      -2.707   4.315  -1.572  0.00  0.00    +0.043 A 
ATOM      5  C   UNL     1      -2.960   5.661  -1.754  0.00  0.00    +0.043 A 
ATOM      6  C   UNL     1      -3.803   6.086  -2.771  0.00  0.00    +0.021 A 
ATOM      7  C   UNL     1      -4.396   5.170  -3.611  0.00  0.00    +0.013 A 
ATOM      8  C   UNL     1      -4.145   3.805  -3.444  0.00  0.00    +0.024 A 
ATOM      9 CL   UNL     1      -2.221   6.827  -0.702  0.00  0.00    -0.083 Cl
BRANCH   8  10
ATOM     10  C   UNL     1      -4.771   2.821  -4.342  0.00  0.00    +0.079 C 
ATOM     11  S   UNL     1      -6.351   2.249  -4.017  0.00  0.00    -0.035 S 
BRANCH  10  12
ATOM     12  N   UNL     1      -4.100   2.371  -5.421  0.00  0.00    -0.352 N 
ATOM     13  H   UNL     1      -3.204   2.695  -5.605  0.00  0.00    +0.143 HD
ATOM     14  H   UNL     1      -4.512   1.722  -6.013  0.00  0.00    +0.143 HD
ENDBRANCH  10  12
ENDBRANCH   8  10
ENDBRANCH   1   3
BRANCH   1  15
ATOM     15  C   UNL     1      -2.247   1.573  -1.085  0.00  0.00    +0.083 C 
BRANCH  15  16
ATOM     16  C   UNL     1      -2.118   0.049  -1.121  0.00  0.00    -0.059 C 
BRANCH  16  17
ATOM     17  N   UNL     1      -1.451  -0.416   0.103  0.00  0.00    +0.384 N 
ATOM     18  H   UNL     1      -1.935  -0.051   0.909  0.00  0.00    -0.081 HD
BRANCH  17  20
ATOM     19  C   UNL     1       0.437   0.208  -1.328  0.00  0.00    -0.014 C 
ATOM     20  C   UNL     1      -0.060   0.057   0.112  0.00  0.00    -0.074 C 
ATOM     21  C   UNL     1       0.014   1.411   0.821  0.00  0.00    -0.014 C 
ENDBRANCH  17  20
BRANCH  17  22
ATOM     22  C   UNL     1      -1.469  -1.884   0.143  0.00  0.00    -0.074 C 
ATOM     23  C   UNL     1      -0.886  -2.365   1.474  0.00  0.00    -0.014 C 
ATOM     24  C   UNL     1      -2.910  -2.380   0.009  0.00  0.00    -0.014 C 
ENDBRANCH  17  22
ENDBRANCH  16  17
ENDBRANCH  15  16
ENDBRANCH   1  15
TORSDOF 8
