REMARK  Name = ZINC36660422
REMARK  10 active torsions:
REMARK  status: ('A' for Active; 'I' for Inactive)
REMARK    1  A    between atoms: C_1  and  N_2
REMARK    2  A    between atoms: N_2  and  C_3
REMARK    3  A    between atoms: N_2  and  C_4
REMARK    4  A    between atoms: C_4  and  C_5
REMARK    5  A    between atoms: C_5  and  N_6
REMARK    6  A    between atoms: C_18  and  C_20
REMARK    7  A    between atoms: N_25  and  S_26
REMARK    8  A    between atoms: S_26  and  C_29
REMARK    9  A    between atoms: C_32  and  O_35
REMARK   10  A    between atoms: O_35  and  C_36
REMARK                            x       y       z     vdW  Elec       q    Type
REMARK                         _______ _______ _______ _____ _____    ______ ____
ROOT
ATOM      1  N   UNL     1       2.843  -0.730  -1.715  0.00  0.00    -0.251 N 
ATOM      2  C   UNL     1       2.672   0.187  -2.740  0.00  0.00    +0.168 A 
ATOM      3  N   UNL     1       1.915   1.258  -2.769  0.00  0.00    -0.221 NA
ATOM      4  C   UNL     1       1.845   2.070  -3.847  0.00  0.00    +0.116 A 
ATOM      5  C   UNL     1       1.074   3.246  -4.007  0.00  0.00    +0.152 A 
ATOM      6  C   UNL     1       1.118   3.960  -5.178  0.00  0.00    +0.079 A 
ATOM      7  C   UNL     1       1.915   3.558  -6.242  0.00  0.00    +0.127 A 
ATOM      8  C   UNL     1       2.682   2.412  -6.119  0.00  0.00    +0.055 A 
ATOM      9  C   UNL     1       2.643   1.692  -4.950  0.00  0.00    +0.046 A 
ATOM     10  S   UNL     1       3.433   0.216  -4.357  0.00  0.00    -0.052 S 
ATOM     11  F   UNL     1       1.940   4.277  -7.386  0.00  0.00    -0.205 F 
ATOM     12  F   UNL     1       0.285   3.671  -2.995  0.00  0.00    -0.203 F 
ATOM     13  C   UNL     1       3.680  -1.774  -1.877  0.00  0.00    +0.240 C 
ATOM     14  O   UNL     1       4.354  -1.861  -2.882  0.00  0.00    -0.273 OA
ENDROOT
BRANCH  13  15
ATOM     15  C   UNL     1       3.779  -2.833  -0.810  0.00  0.00    +0.166 C 
ATOM     16  C   UNL     1       4.883  -2.458   0.201  0.00  0.00    +0.031 C 
ATOM     17  C   UNL     1       5.539  -3.827   0.523  0.00  0.00    +0.019 C 
ATOM     18  C   UNL     1       5.452  -4.543  -0.848  0.00  0.00    +0.110 C 
ATOM     19  N   UNL     1       4.155  -4.119  -1.415  0.00  0.00    -0.165 NA
BRANCH  19  20
ATOM     20  S   UNL     1       3.272  -4.950  -2.542  0.00  0.00    +0.062 S 
ATOM     21  O   UNL     1       3.551  -6.329  -2.341  0.00  0.00    -0.153 OA
ATOM     22  O   UNL     1       1.953  -4.425  -2.492  0.00  0.00    -0.153 OA
BRANCH  20  23
ATOM     23  C   UNL     1       3.921  -4.531  -4.126  0.00  0.00    +0.106 A 
ATOM     24  C   UNL     1       3.338  -3.518  -4.865  0.00  0.00    +0.032 A 
ATOM     25  C   UNL     1       3.845  -3.188  -6.106  0.00  0.00    +0.047 A 
ATOM     26  C   UNL     1       4.941  -3.873  -6.612  0.00  0.00    +0.120 A 
ATOM     27  C   UNL     1       5.524  -4.889  -5.868  0.00  0.00    +0.047 A 
ATOM     28  C   UNL     1       5.017  -5.212  -4.625  0.00  0.00    +0.032 A 
BRANCH  26  29
ATOM     29  O   UNL     1       5.441  -3.550  -7.833  0.00  0.00    -0.495 OA
ATOM     30  C   UNL     1       6.570  -4.298  -8.290  0.00  0.00    +0.277 C 
ENDBRANCH  26  29
ENDBRANCH  20  23
ENDBRANCH  19  20
ENDBRANCH  13  15
BRANCH   1  31
ATOM     31  C   UNL     1       2.114  -0.565  -0.455  0.00  0.00    +0.097 C 
BRANCH  31  32
ATOM     32  C   UNL     1       0.751  -1.253  -0.561  0.00  0.00    -0.060 C 
BRANCH  32  34
ATOM     33  C   UNL     1      -0.279   0.336   0.912  0.00  0.00    -0.097 C 
ATOM     34  N   UNL     1       0.020  -1.087   0.702  0.00  0.00    +0.377 N 
ATOM     35  C   UNL     1      -1.236  -1.847   0.644  0.00  0.00    -0.097 C 
ATOM     36  H   UNL     1       0.585  -1.428   1.465  0.00  0.00    -0.083 HD
ENDBRANCH  32  34
ENDBRANCH  31  32
ENDBRANCH   1  31
TORSDOF 7
