REMARK  Name = ZINC44490108
REMARK  7 active torsions:
REMARK  status: ('A' for Active; 'I' for Inactive)
REMARK    1  A    between atoms: C_1  and  C_2
REMARK    2  A    between atoms: C_2  and  C_3
REMARK    3  A    between atoms: C_2  and  C_4
REMARK    4  A    between atoms: C_2  and  N_8
REMARK    5  A    between atoms: N_5  and  O_6
REMARK    6  A    between atoms: C_9  and  C_11
REMARK    7  A    between atoms: C_16  and  O_17
REMARK                            x       y       z     vdW  Elec       q    Type
REMARK                         _______ _______ _______ _____ _____    ______ ____
ROOT
ATOM      1  N   UNL     1       0.688  -0.476  -1.203  0.00  0.00    -0.299 N 
ATOM      2  C   UNL     1       1.972  -0.132  -1.427  0.00  0.00    +0.248 C 
ATOM      3  O   UNL     1       2.561   0.571  -0.628  0.00  0.00    -0.270 OA
ATOM      4  H   UNL     1       0.218  -1.037  -1.840  0.00  0.00    +0.150 HD
ENDROOT
BRANCH   2   5
ATOM      5  C   UNL     1       2.662  -0.608  -2.640  0.00  0.00    +0.078 A 
ATOM      6  C   UNL     1       1.987  -1.411  -3.564  0.00  0.00    +0.018 A 
ATOM      7  C   UNL     1       2.637  -1.852  -4.695  0.00  0.00    +0.016 A 
ATOM      8  C   UNL     1       3.959  -1.502  -4.923  0.00  0.00    +0.021 A 
ATOM      9  C   UNL     1       4.638  -0.709  -4.018  0.00  0.00    +0.061 A 
ATOM     10  C   UNL     1       3.997  -0.252  -2.877  0.00  0.00    +0.130 A 
ATOM     11 BR   UNL     1       4.838  -2.115  -6.481  0.00  0.00    -0.050 Br
BRANCH  10  12
ATOM     12  O   UNL     1       4.660   0.531  -1.990  0.00  0.00    -0.506 OA
ATOM     13  H   UNL     1       5.122   0.038  -1.298  0.00  0.00    +0.292 HD
ENDBRANCH  10  12
ENDBRANCH   2   5
BRANCH   1  15
ATOM     14  C   UNL     1      -0.019   1.526   0.010  0.00  0.00    +0.039 C 
ATOM     15  C   UNL     1       0.002  -0.004   0.002  0.00  0.00    +0.088 C 
ATOM     16  C   UNL     1       0.742  -0.511   1.242  0.00  0.00    +0.039 C 
BRANCH  15  17
ATOM     17  C   UNL     1      -1.412  -0.526   0.013  0.00  0.00    +0.155 C 
ATOM     18  N   UNL     1      -1.844  -1.198   1.027  0.00  0.00    -0.075 NA
ATOM     19  N   UNL     1      -2.243  -0.285  -1.059  0.00  0.00    -0.342 N 
ATOM     20  H   UNL     1      -1.918   0.220  -1.821  0.00  0.00    +0.144 HD
ATOM     21  H   UNL     1      -3.152  -0.621  -1.052  0.00  0.00    +0.144 HD
BRANCH  18  22
ATOM     22  O   UNL     1      -3.173  -1.688   1.037  0.00  0.00    -0.408 OA
ATOM     23  H   UNL     1      -3.405  -2.179   1.838  0.00  0.00    +0.328 HD
ENDBRANCH  18  22
ENDBRANCH  15  17
ENDBRANCH   1  15
TORSDOF 5
