REMARK  Name = ZINC20758812
REMARK  10 active torsions:
REMARK  status: ('A' for Active; 'I' for Inactive)
REMARK    1  A    between atoms: C_1  and  C_2
REMARK    2  A    between atoms: C_2  and  C_3
REMARK    3  A    between atoms: C_3  and  C_4
REMARK    4  A    between atoms: C_4  and  N_5
REMARK    5  A    between atoms: C_6  and  C_8
REMARK    6  A    between atoms: C_8  and  S_9
REMARK    7  A    between atoms: S_9  and  C_10
REMARK    8  A    between atoms: C_14  and  C_18
REMARK    9  A    between atoms: N_21  and  C_22
REMARK   10  A    between atoms: C_26  and  C_28
REMARK                            x       y       z     vdW  Elec       q    Type
REMARK                         _______ _______ _______ _____ _____    ______ ____
ROOT
ATOM      1  C   UNL     1      -4.601   2.506   2.239  0.00  0.00    +0.177 A 
ATOM      2  N   UNL     1      -3.575   2.598   3.050  0.00  0.00    -0.201 NA
ATOM      3  C   UNL     1      -2.329   2.279   2.670  0.00  0.00    +0.187 A 
ATOM      4  C   UNL     1      -2.096   1.825   1.365  0.00  0.00    +0.082 A 
ATOM      5  C   UNL     1      -0.720   1.561   1.251  0.00  0.00    +0.046 A 
ATOM      6  N   UNL     1      -0.151   1.847   2.391  0.00  0.00    -0.279 N 
ATOM      7  N   UNL     1      -1.122   2.289   3.298  0.00  0.00    -0.153 NA
ATOM      8  H   UNL     1       0.935   1.722   2.510  0.00  0.00    +0.189 HD
ATOM      9  C   UNL     1      -0.016   1.067   0.014  0.00  0.00    +0.066 C 
ATOM     10  C   UNL     1      -3.240   1.723   0.449  0.00  0.00    +0.124 A 
ATOM     11  N   UNL     1      -3.088   1.319  -0.789  0.00  0.00    -0.384 N 
ATOM     12  N   UNL     1      -4.486   2.068   0.947  0.00  0.00    -0.275 N 
ATOM     13  H   UNL     1      -3.960   1.251  -1.456  0.00  0.00    +0.157 HD
ATOM     14  H   UNL     1      -2.089   1.048  -1.160  0.00  0.00    +0.157 HD
ENDROOT
BRANCH  12  15
ATOM     15  C   UNL     1      -5.620   1.985   0.129  0.00  0.00    +0.051 A 
ATOM     16  C   UNL     1      -6.056   0.749  -0.332  0.00  0.00    +0.028 A 
ATOM     17  C   UNL     1      -7.177   0.669  -1.134  0.00  0.00    +0.022 A 
ATOM     18  C   UNL     1      -7.859   1.819  -1.489  0.00  0.00    +0.044 A 
ATOM     19  C   UNL     1      -7.424   3.052  -1.036  0.00  0.00    -0.030 A 
ATOM     20  C   UNL     1      -6.307   3.137  -0.228  0.00  0.00    +0.031 A 
ATOM     21  C   UNL     1      -8.170   4.303  -1.424  0.00  0.00    +0.045 C 
ATOM     22 CL   UNL     1      -9.264   1.716  -2.504  0.00  0.00    -0.083 Cl
ENDBRANCH  12  15
BRANCH   1  23
ATOM     23  S   UNL     1      -6.195   2.957   2.839  0.00  0.00    -0.078 S 
BRANCH  23  24
ATOM     24  C   UNL     1      -5.769   3.437   4.531  0.00  0.00    +0.173 C 
BRANCH  24  26
ATOM     25  N   UNL     1      -6.940   4.277   6.542  0.00  0.00    -0.315 N 
ATOM     26  C   UNL     1      -7.015   3.873   5.258  0.00  0.00    +0.223 C 
ATOM     27  O   UNL     1      -8.086   3.861   4.688  0.00  0.00    -0.275 OA
ATOM     28  H   UNL     1      -5.969   4.288   7.059  0.00  0.00    +0.149 HD
BRANCH  25  29
ATOM     29  C   UNL     1      -8.151   4.702   7.248  0.00  0.00    +0.104 C 
BRANCH  29  30
ATOM     30  C   UNL     1      -7.792   5.107   8.679  0.00  0.00    +0.018 C 
BRANCH  30  32
ATOM     31  C   UNL     1      -8.697   5.956  10.847  0.00  0.00    +0.004 C 
ATOM     32  C   UNL     1      -9.057   5.550   9.417  0.00  0.00    -0.002 C 
ENDBRANCH  30  32
ENDBRANCH  29  30
ENDBRANCH  25  29
ENDBRANCH  24  26
ENDBRANCH  23  24
ENDBRANCH   1  23
TORSDOF 7
