REMARK  Name = ZINC04318059
REMARK  7 active torsions:
REMARK  status: ('A' for Active; 'I' for Inactive)
REMARK    1  A    between atoms: C_1  and  C_2
REMARK    2  A    between atoms: C_2  and  N_48
REMARK    3  A    between atoms: N_12  and  C_13
REMARK    4  A    between atoms: C_13  and  C_14
REMARK    5  A    between atoms: C_14  and  C_16
REMARK    6  A    between atoms: C_14  and  O_17
REMARK    7  A    between atoms: N_24  and  C_25
REMARK                            x       y       z     vdW  Elec       q    Type
REMARK                         _______ _______ _______ _____ _____    ______ ____
ROOT
ATOM      1  C   UNL     1       0.759   1.461  -0.227  0.00  0.00    -0.060 C 
ATOM      2  C   UNL     1       0.066   1.933  -1.507  0.00  0.00    +0.089 C 
ATOM      3  N   UNL     1      -0.824   3.059  -1.192  0.00  0.00    -0.304 N 
ATOM      4  C   UNL     1      -1.839   2.664  -0.205  0.00  0.00    +0.089 C 
ATOM      5  C   UNL     1      -1.146   2.193   1.075  0.00  0.00    -0.060 C 
ATOM      6  C   UNL     1      -1.413   3.556  -2.332  0.00  0.00    +0.201 A 
ATOM      7  N   UNL     1      -1.790   2.838  -3.370  0.00  0.00    -0.196 NA
ATOM      8  C   UNL     1      -2.325   3.628  -4.301  0.00  0.00    +0.170 A 
ATOM      9  C   UNL     1      -2.275   4.933  -3.823  0.00  0.00    +0.153 A 
ATOM     10  N   UNL     1      -1.690   4.867  -2.566  0.00  0.00    -0.304 N 
ATOM     11  C   UNL     1      -2.777   5.977  -4.621  0.00  0.00    +0.280 A 
ATOM     12  O   UNL     1      -2.743   7.128  -4.222  0.00  0.00    -0.265 OA
ATOM     13  N   UNL     1      -3.295   5.690  -5.833  0.00  0.00    -0.273 N 
ATOM     14  H   UNL     1      -3.653   6.430  -6.403  0.00  0.00    +0.173 HD
ATOM     15  C   UNL     1      -3.339   4.426  -6.286  0.00  0.00    +0.331 A 
ATOM     16  O   UNL     1      -3.813   4.205  -7.384  0.00  0.00    -0.246 OA
ATOM     17  N   UNL     1      -2.870   3.397  -5.554  0.00  0.00    -0.280 N 
ATOM     18  C   UNL     1      -2.936   2.033  -6.083  0.00  0.00    +0.155 C 
ATOM     19  N   UNL     1      -0.271   1.047   0.749  0.00  0.00    +0.382 N 
ATOM     20  H   UNL     1      -0.840   0.299   0.335  0.00  0.00    -0.082 HD
ENDROOT
BRANCH  19  22
ATOM     21  C   UNL     1      -0.687   0.371   3.069  0.00  0.00    -0.017 C 
ATOM     22  C   UNL     1       0.373   0.536   1.978  0.00  0.00    -0.082 C 
ENDBRANCH  19  22
BRANCH  10  23
ATOM     23  C   UNL     1      -1.422   5.991  -1.665  0.00  0.00    +0.156 C 
BRANCH  23  24
ATOM     24  C   UNL     1      -0.086   6.637  -2.040  0.00  0.00    +0.131 C 
ATOM     25  C   UNL     1       0.134   7.885  -1.182  0.00  0.00    +0.039 C 
BRANCH  24  26
ATOM     26  O   UNL     1       0.974   5.707  -1.809  0.00  0.00    -0.390 OA
ATOM     27  H   UNL     1       1.046   5.413  -0.891  0.00  0.00    +0.210 HD
ENDBRANCH  24  26
ENDBRANCH  23  24
ENDBRANCH  10  23
TORSDOF 4
