REMARK  Name = ZINC39467037
REMARK  6 active torsions:
REMARK  status: ('A' for Active; 'I' for Inactive)
REMARK    1  A    between atoms: C_4  and  C_7
REMARK    2  A    between atoms: C_7  and  C_8
REMARK    3  A    between atoms: P_17  and  C_33
REMARK    4  A    between atoms: C_25  and  C_26
REMARK    5  A    between atoms: C_26  and  C_27
REMARK    6  A    between atoms: C_38  and  O_39
REMARK                            x       y       z     vdW  Elec       q    Type
REMARK                         _______ _______ _______ _____ _____    ______ ____
ROOT
ATOM      1  C   UNL     1       4.055  -1.075   1.440  0.00  0.00    -0.043 C 
ATOM      2  C   UNL     1       3.817  -2.284   1.949  0.00  0.00    -0.019 C 
ATOM      3  C   UNL     1       4.350  -2.610   3.317  0.00  0.00    +0.016 C 
ATOM      4  C   UNL     1       4.498  -4.114   3.520  0.00  0.00    -0.003 C 
ATOM      5  C   UNL     1       5.080  -4.388   4.914  0.00  0.00    -0.020 C 
ATOM      6  C   UNL     1       5.229  -5.908   5.056  0.00  0.00    +0.157 C 
ATOM      7  O   UNL     1       5.689  -6.220   6.384  0.00  0.00    -0.316 OA
ATOM      8  P   UNL     1       6.988  -5.415   6.943  0.00  0.00    +0.291 P 
ATOM      9  O   UNL     1       8.232  -6.017   6.412  0.00  0.00    -0.269 OA
ATOM     10  N   UNL     1       6.816  -3.871   6.385  0.00  0.00    -0.288 NA
ATOM     11  N   UNL     1       6.371  -3.723   5.087  0.00  0.00    +0.398 N 
ATOM     12  C   UNL     1       6.262  -2.269   4.870  0.00  0.00    -0.046 C 
ATOM     13  C   UNL     1       5.739  -1.975   3.471  0.00  0.00    +0.005 C 
ATOM     14  C   UNL     1       5.631  -0.500   3.197  0.00  0.00    -0.021 C 
ATOM     15  C   UNL     1       4.821  -0.089   2.223  0.00  0.00    -0.044 C 
ATOM     16  H   UNL     1       7.029  -3.108   6.945  0.00  0.00    +0.111 HD
ATOM     17  H   UNL     1       7.040  -4.112   4.440  0.00  0.00    -0.055 HD
ENDROOT
BRANCH   8  18
ATOM     18  C   UNL     1       7.006  -5.434   8.757  0.00  0.00    +0.091 A 
ATOM     19  C   UNL     1       6.373  -4.431   9.465  0.00  0.00    +0.018 A 
ATOM     20  C   UNL     1       6.386  -4.444  10.847  0.00  0.00    +0.001 A 
ATOM     21  C   UNL     1       7.033  -5.462  11.525  0.00  0.00    +0.004 A 
ATOM     22  C   UNL     1       7.667  -6.468  10.822  0.00  0.00    +0.046 A 
ATOM     23  C   UNL     1       7.650  -6.459   9.434  0.00  0.00    +0.131 A 
BRANCH  23  24
ATOM     24  O   UNL     1       8.268  -7.451   8.740  0.00  0.00    -0.506 OA
ATOM     25  H   UNL     1       9.196  -7.269   8.536  0.00  0.00    +0.292 HD
ENDBRANCH  23  24
ENDBRANCH   8  18
BRANCH   1  26
ATOM     26  C   UNL     1       3.546  -0.719   0.067  0.00  0.00    +0.070 C 
BRANCH  26  30
ATOM     27  C   UNL     1       6.604  -1.462  -2.822  0.00  0.00    +0.000 A 
ATOM     28  C   UNL     1       5.776  -2.491  -2.411  0.00  0.00    +0.000 A 
ATOM     29  C   UNL     1       4.787  -2.250  -1.476  0.00  0.00    +0.004 A 
ATOM     30  C   UNL     1       4.625  -0.981  -0.952  0.00  0.00    -0.043 A 
ATOM     31  C   UNL     1       5.453   0.047  -1.362  0.00  0.00    +0.004 A 
ATOM     32  C   UNL     1       6.441  -0.193  -2.298  0.00  0.00    +0.000 A 
ENDBRANCH  26  30
ENDBRANCH   1  26
BRANCH  15  33
ATOM     33  C   UNL     1       4.685   1.383   1.927  0.00  0.00    +0.070 C 
BRANCH  33  34
ATOM     34  C   UNL     1       3.503   1.939   2.678  0.00  0.00    -0.043 A 
ATOM     35  C   UNL     1       2.273   2.039   2.054  0.00  0.00    +0.004 A 
ATOM     36  C   UNL     1       1.188   2.550   2.743  0.00  0.00    +0.000 A 
ATOM     37  C   UNL     1       1.333   2.959   4.055  0.00  0.00    +0.000 A 
ATOM     38  C   UNL     1       2.563   2.857   4.679  0.00  0.00    +0.000 A 
ATOM     39  C   UNL     1       3.646   2.343   3.992  0.00  0.00    +0.004 A 
ENDBRANCH  33  34
ENDBRANCH  15  33
TORSDOF 6
