REMARK  Name = ZINC15675665
REMARK  9 active torsions:
REMARK  status: ('A' for Active; 'I' for Inactive)
REMARK    1  A    between atoms: C_1  and  C_2
REMARK    2  A    between atoms: C_2  and  C_25
REMARK    3  A    between atoms: N_14  and  C_15
REMARK    4  A    between atoms: C_15  and  C_16
REMARK    5  A    between atoms: C_16  and  C_17
REMARK    6  A    between atoms: C_17  and  N_80
REMARK    7  A    between atoms: C_18  and  N_80
REMARK    8  A    between atoms: C_19  and  N_80
REMARK    9  A    between atoms: N_27  and  C_28
REMARK                            x       y       z     vdW  Elec       q    Type
REMARK                         _______ _______ _______ _____ _____    ______ ____
ROOT
ATOM      1  C   UNL     1       5.633  -4.570   0.861  0.00  0.00    +0.043 C 
ATOM      2  C   UNL     1       4.525  -3.867   1.648  0.00  0.00    +0.128 C 
ATOM      3  C   UNL     1       3.628  -4.925   2.289  0.00  0.00    +0.157 C 
ATOM      4  N   UNL     1       2.754  -4.281   3.275  0.00  0.00    -0.331 N 
ATOM      5  C   UNL     1       1.505  -4.626   3.695  0.00  0.00    +0.088 A 
ATOM      6  C   UNL     1       0.431  -5.538   3.557  0.00  0.00    +0.067 A 
ATOM      7  C   UNL     1      -0.531  -5.153   4.413  0.00  0.00    +0.198 A 
ATOM      8  O   UNL     1      -0.127  -4.058   5.078  0.00  0.00    -0.461 OA
ATOM      9  C   UNL     1       1.108  -3.705   4.664  0.00  0.00    +0.153 A 
ATOM     10  C   UNL     1       2.151  -2.780   4.822  0.00  0.00    +0.079 A 
ATOM     11  C   UNL     1       3.148  -3.136   3.963  0.00  0.00    +0.109 A 
ATOM     12  C   UNL     1       4.450  -2.512   3.699  0.00  0.00    +0.264 C 
ATOM     13  O   UNL     1       4.888  -1.620   4.402  0.00  0.00    -0.268 OA
ATOM     14  N   UNL     1       5.138  -2.981   2.631  0.00  0.00    -0.281 N 
ENDROOT
BRANCH   2  15
ATOM     15  C   UNL     1       3.700  -3.042   0.694  0.00  0.00    +0.238 C 
ATOM     16  O   UNL     1       3.672  -3.324  -0.485  0.00  0.00    -0.273 OA
ATOM     17  N   UNL     1       2.994  -1.989   1.152  0.00  0.00    -0.311 N 
ATOM     18  H   UNL     1       3.016  -1.763   2.095  0.00  0.00    +0.149 HD
BRANCH  17  19
ATOM     19  C   UNL     1       2.192  -1.187   0.225  0.00  0.00    +0.073 C 
ATOM     20  C   UNL     1       1.056  -0.506   0.991  0.00  0.00    +0.022 C 
ATOM     21  C   UNL     1       0.002  -0.004   0.002  0.00  0.00    +0.002 C 
ATOM     22  C   UNL     1      -0.019   1.526   0.010  0.00  0.00    +0.000 C 
ATOM     23  C   UNL     1       1.417   2.055  -0.000  0.00  0.00    +0.000 C 
ATOM     24  C   UNL     1       2.003   1.910  -1.406  0.00  0.00    +0.000 C 
ATOM     25  C   UNL     1       2.370   0.447  -1.657  0.00  0.00    +0.002 C 
ATOM     26  C   UNL     1       3.077  -0.121  -0.425  0.00  0.00    +0.022 C 
ENDBRANCH  17  19
ENDBRANCH   2  15
BRANCH  14  27
ATOM     27  C   UNL     1       6.537  -2.586   2.457  0.00  0.00    +0.107 C 
BRANCH  27  28
ATOM     28  C   UNL     1       6.606  -1.303   1.625  0.00  0.00    +0.000 C 
BRANCH  28  29
ATOM     29  C   UNL     1       8.068  -0.891   1.444  0.00  0.00    -0.077 C 
BRANCH  29  31
ATOM     30  C   UNL     1       7.665   0.103  -0.727  0.00  0.00    -0.096 C 
ATOM     31  N   UNL     1       8.117   0.360   0.657  0.00  0.00    +0.380 N 
ATOM     32  H   UNL     1       7.492   1.050   1.089  0.00  0.00    -0.082 HD
BRANCH  31  33
ATOM     33  C   UNL     1       9.493   0.897   0.648  0.00  0.00    -0.069 C 
ATOM     34  C   UNL     1       9.909   1.222   2.084  0.00  0.00    -0.015 C 
ATOM     35  C   UNL     1      11.324   1.802   2.087  0.00  0.00    -0.002 C 
ATOM     36  C   UNL     1      11.353   3.081   1.247  0.00  0.00    -0.000 C 
ATOM     37  C   UNL     1      10.938   2.756  -0.190  0.00  0.00    -0.002 C 
ATOM     38  C   UNL     1       9.522   2.176  -0.193  0.00  0.00    -0.015 C 
ENDBRANCH  31  33
ENDBRANCH  29  31
ENDBRANCH  28  29
ENDBRANCH  27  28
ENDBRANCH  14  27
TORSDOF 7
