REMARK  Name = ZINC02140022
REMARK  14 active torsions:
REMARK  status: ('A' for Active; 'I' for Inactive)
REMARK    1  A    between atoms: C_1  and  C_2
REMARK    2  A    between atoms: C_2  and  O_3
REMARK    3  A    between atoms: O_3  and  C_4
REMARK    4  A    between atoms: C_4  and  C_6
REMARK    5  A    between atoms: C_11  and  C_12
REMARK    6  A    between atoms: C_12  and  O_13
REMARK    7  A    between atoms: O_13  and  C_14
REMARK    8  A    between atoms: C_14  and  C_15
REMARK    9  A    between atoms: C_17  and  C_23
REMARK   10  A    between atoms: C_20  and  O_21
REMARK   11  A    between atoms: O_21  and  C_22
REMARK   12  A    between atoms: C_36  and  C_38
REMARK   13  A    between atoms: C_38  and  O_40
REMARK   14  A    between atoms: O_40  and  C_41
REMARK                            x       y       z     vdW  Elec       q    Type
REMARK                         _______ _______ _______ _____ _____    ______ ____
ROOT
ATOM      1  C   UNL     1      -3.236  -0.463   7.351  0.00  0.00    +0.020 A 
ATOM      2  C   UNL     1      -4.092  -0.041   6.352  0.00  0.00    +0.011 A 
ATOM      3  C   UNL     1      -3.582   0.506   5.189  0.00  0.00    -0.055 A 
ATOM      4  C   UNL     1      -2.216   0.643   5.027  0.00  0.00    +0.006 A 
ATOM      5  C   UNL     1      -1.356   0.229   6.026  0.00  0.00    +0.046 A 
ATOM      6  C   UNL     1      -1.864  -0.326   7.191  0.00  0.00    +0.125 A 
ENDROOT
BRANCH   3   7
ATOM      7  C   UNL     1      -4.518   0.959   4.098  0.00  0.00    +0.008 C 
ATOM      8  C   UNL     1      -3.811   0.899   2.765  0.00  0.00    +0.010 A 
ATOM      9  C   UNL     1      -4.022  -0.086   1.862  0.00  0.00    -0.021 A 
ATOM     10  C   UNL     1      -3.181   0.194   0.720  0.00  0.00    +0.003 A 
ATOM     11  C   UNL     1      -2.980  -0.464  -0.497  0.00  0.00    +0.010 A 
ATOM     12  C   UNL     1      -2.081   0.100  -1.368  0.00  0.00    +0.001 A 
ATOM     13  C   UNL     1      -1.398   1.268  -1.067  0.00  0.00    +0.002 A 
ATOM     14  C   UNL     1      -1.577   1.940   0.130  0.00  0.00    +0.026 A 
ATOM     15  C   UNL     1      -2.484   1.390   1.033  0.00  0.00    +0.047 A 
ATOM     16  N   UNL     1      -2.890   1.785   2.276  0.00  0.00    -0.359 N 
ATOM     17  H   UNL     1      -2.574   2.575   2.741  0.00  0.00    +0.166 HD
ATOM     18  C   UNL     1      -4.979  -1.229   2.088  0.00  0.00    +0.033 C 
ATOM     19  C   UNL     1      -5.315  -1.278   3.585  0.00  0.00    +0.045 C 
ATOM     20  N   UNL     1      -5.700   0.070   4.050  0.00  0.00    +0.396 N 
ATOM     21  H   UNL     1      -6.394   0.465   3.405  0.00  0.00    -0.083 HD
ATOM     22  H   UNL     1      -6.107  -0.001   4.990  0.00  0.00    -0.083 HD
BRANCH  19  23
ATOM     23  C   UNL     1      -6.467  -2.223   3.810  0.00  0.00    +0.293 C 
ATOM     24  O   UNL     1      -7.585  -1.790   3.955  0.00  0.00    -0.253 OA
BRANCH  23  25
ATOM     25  O   UNL     1      -6.250  -3.547   3.850  0.00  0.00    -0.469 OA
ATOM     26  C   UNL     1      -7.406  -4.398   4.071  0.00  0.00    +0.280 C 
ENDBRANCH  23  25
ENDBRANCH  19  23
ENDBRANCH   3   7
BRANCH   6  27
ATOM     27  O   UNL     1      -1.021  -0.734   8.175  0.00  0.00    -0.495 OA
ATOM     28  C   UNL     1       0.379  -0.562   7.943  0.00  0.00    +0.277 C 
ENDBRANCH   6  27
BRANCH   1  29
ATOM     29  C   UNL     1      -3.791  -1.066   8.616  0.00  0.00    +0.199 C 
BRANCH  29  30
ATOM     30  O   UNL     1      -5.218  -1.098   8.541  0.00  0.00    -0.370 OA
BRANCH  30  31
ATOM     31  C   UNL     1      -5.848  -1.655   9.696  0.00  0.00    +0.196 C 
BRANCH  31  37
ATOM     32  C   UNL     1      -8.178  -2.141  10.510  0.00  0.00    +0.064 A 
ATOM     33  C   UNL     1      -9.563  -2.119  10.331  0.00  0.00    +0.015 A 
ATOM     34  C   UNL     1     -10.096  -1.612   9.164  0.00  0.00    +0.001 A 
ATOM     35  C   UNL     1      -9.262  -1.121   8.175  0.00  0.00    +0.000 A 
ATOM     36  C   UNL     1      -7.890  -1.135   8.348  0.00  0.00    +0.007 A 
ATOM     37  C   UNL     1      -7.343  -1.640   9.510  0.00  0.00    -0.008 A 
BRANCH  32  38
ATOM     38  C   UNL     1      -7.600  -2.688  11.754  0.00  0.00    +0.340 C 
ATOM     39  O   UNL     1      -6.395  -2.703  11.909  0.00  0.00    -0.245 OA
BRANCH  38  40
ATOM     40  O   UNL     1      -8.408  -3.171  12.717  0.00  0.00    -0.461 OA
BRANCH  40  42
ATOM     41  C   UNL     1      -8.841  -4.193  14.885  0.00  0.00    +0.048 C 
ATOM     42  C   UNL     1      -7.771  -3.693  13.913  0.00  0.00    +0.229 C 
ENDBRANCH  40  42
ENDBRANCH  38  40
ENDBRANCH  32  38
ENDBRANCH  31  37
ENDBRANCH  30  31
ENDBRANCH  29  30
ENDBRANCH   1  29
TORSDOF 11
