REMARK  Name = ZINC59170425
REMARK  9 active torsions:
REMARK  status: ('A' for Active; 'I' for Inactive)
REMARK    1  A    between atoms: C_1  and  C_2
REMARK    2  A    between atoms: C_2  and  O_3
REMARK    3  A    between atoms: O_3  and  C_4
REMARK    4  A    between atoms: N_12  and  C_13
REMARK    5  A    between atoms: C_16  and  S_19
REMARK    6  A    between atoms: S_19  and  N_22
REMARK    7  A    between atoms: C_23  and  C_25
REMARK    8  A    between atoms: N_27  and  C_28
REMARK    9  A    between atoms: C_32  and  C_34
REMARK                            x       y       z     vdW  Elec       q    Type
REMARK                         _______ _______ _______ _____ _____    ______ ____
ROOT
ATOM      1  C   UNL     1      -1.642  -1.554   0.029  0.00  0.00    +0.163 A 
ATOM      2  C   UNL     1      -0.615  -2.137   0.752  0.00  0.00    +0.049 A 
ATOM      3  C   UNL     1      -0.867  -3.202   1.605  0.00  0.00    +0.004 A 
ATOM      4  C   UNL     1      -2.144  -3.696   1.744  0.00  0.00    +0.012 A 
ATOM      5  C   UNL     1      -3.195  -3.121   1.018  0.00  0.00    +0.022 A 
ATOM      6  C   UNL     1      -2.941  -2.035   0.161  0.00  0.00    +0.179 A 
ATOM      7  O   UNL     1      -3.960  -1.469  -0.531  0.00  0.00    -0.435 OA
ATOM      8  C   UNL     1      -5.022  -2.262  -0.823  0.00  0.00    +0.212 A 
ATOM      9  N   UNL     1      -5.612  -2.199  -1.998  0.00  0.00    -0.325 N 
ATOM     10  C   UNL     1      -5.495  -3.196   0.217  0.00  0.00    +0.098 A 
ATOM     11  C   UNL     1      -4.561  -3.634   1.144  0.00  0.00    +0.030 A 
ATOM     12  H   UNL     1      -6.298  -2.844  -2.231  0.00  0.00    +0.169 HD
ENDROOT
BRANCH   9  13
ATOM     13  C   UNL     1      -5.259  -1.224  -2.889  0.00  0.00    +0.042 A 
ATOM     14  C   UNL     1      -5.098   0.095  -2.460  0.00  0.00    +0.027 A 
ATOM     15  C   UNL     1      -4.742   1.073  -3.365  0.00  0.00    +0.030 A 
ATOM     16  C   UNL     1      -4.543   0.750  -4.695  0.00  0.00    +0.105 A 
ATOM     17  C   UNL     1      -4.700  -0.555  -5.128  0.00  0.00    +0.030 A 
ATOM     18  C   UNL     1      -5.051  -1.545  -4.233  0.00  0.00    +0.027 A 
BRANCH  16  19
ATOM     19  S   UNL     1      -4.087   2.005  -5.844  0.00  0.00    +0.056 S 
ATOM     20  O   UNL     1      -4.493   1.548  -7.127  0.00  0.00    -0.153 OA
ATOM     21  O   UNL     1      -4.536   3.238  -5.298  0.00  0.00    -0.153 OA
BRANCH  19  22
ATOM     22  N   UNL     1      -2.433   2.072  -5.867  0.00  0.00    -0.204 NA
ATOM     23  H   UNL     1      -1.916   1.475  -5.303  0.00  0.00    +0.144 HD
ATOM     24  H   UNL     1      -1.981   2.708  -6.443  0.00  0.00    +0.144 HD
ENDBRANCH  19  22
ENDBRANCH  16  19
ENDBRANCH   9  13
BRANCH  10  25
ATOM     25  C   UNL     1      -6.895  -3.652   0.262  0.00  0.00    +0.253 C 
ATOM     26  O   UNL     1      -7.226  -4.522   1.045  0.00  0.00    -0.270 OA
ATOM     27  N   UNL     1      -7.808  -3.106  -0.565  0.00  0.00    -0.281 N 
ATOM     28  H   UNL     1      -7.534  -2.451  -1.226  0.00  0.00    +0.155 HD
BRANCH  27  29
ATOM     29  C   UNL     1      -9.151  -3.483  -0.470  0.00  0.00    +0.034 A 
ATOM     30  C   UNL     1      -9.486  -4.792  -0.145  0.00  0.00    +0.023 A 
ATOM     31  C   UNL     1     -10.813  -5.160  -0.052  0.00  0.00    +0.002 A 
ATOM     32  C   UNL     1     -11.809  -4.229  -0.281  0.00  0.00    +0.003 A 
ATOM     33  C   UNL     1     -11.480  -2.925  -0.605  0.00  0.00    -0.049 A 
ATOM     34  C   UNL     1     -10.154  -2.549  -0.694  0.00  0.00    +0.026 A 
ATOM     35  C   UNL     1     -12.568  -1.914  -0.854  0.00  0.00    +0.044 C 
ENDBRANCH  27  29
ENDBRANCH  10  25
BRANCH   1  36
ATOM     36  O   UNL     1      -1.383  -0.510  -0.803  0.00  0.00    -0.489 OA
BRANCH  36  38
ATOM     37  C   UNL     1       0.069   1.104  -1.865  0.00  0.00    +0.048 C 
ATOM     38  C   UNL     1      -0.026  -0.070  -0.888  0.00  0.00    +0.226 C 
ENDBRANCH  36  38
ENDBRANCH   1  36
TORSDOF 7
