REMARK  Name = ZINC61658229
REMARK  6 active torsions:
REMARK  status: ('A' for Active; 'I' for Inactive)
REMARK    1  A    between atoms: C_1  and  N_2
REMARK    2  A    between atoms: N_2  and  C_3
REMARK    3  A    between atoms: N_2  and  C_13
REMARK    4  A    between atoms: C_3  and  C_4
REMARK    5  A    between atoms: C_9  and  C_10
REMARK    6  A    between atoms: C_13  and  C_14
REMARK                            x       y       z     vdW  Elec       q    Type
REMARK                         _______ _______ _______ _____ _____    ______ ____
ROOT
ATOM      1  C   UNL     1       2.369  -0.287   1.155  0.00  0.00    -0.005 A 
ATOM      2  C   UNL     1       2.882   0.651   2.037  0.00  0.00    +0.008 A 
ATOM      3  C   UNL     1       4.050   1.313   1.691  0.00  0.00    +0.020 A 
ATOM      4  C   UNL     1       4.666   1.020   0.485  0.00  0.00    +0.111 A 
ATOM      5  N   UNL     1       4.157   0.125  -0.333  0.00  0.00    -0.252 NA
ATOM      6  C   UNL     1       3.044  -0.535  -0.037  0.00  0.00    +0.105 A 
ENDROOT
BRANCH   6   7
ATOM      7  C   UNL     1       2.512  -1.541  -0.988  0.00  0.00    +0.113 C 
ATOM      8  N   UNL     1       2.380  -1.235  -2.276  0.00  0.00    -0.386 N 
ATOM      9  N   UNL     1       2.166  -2.750  -0.553  0.00  0.00    -0.343 N 
ATOM     10  H   UNL     1       2.699  -0.381  -2.606  0.00  0.00    +0.157 HD
ATOM     11  H   UNL     1       2.263  -2.973   0.386  0.00  0.00    +0.144 HD
ATOM     12  H   UNL     1       1.818  -3.408  -1.174  0.00  0.00    +0.144 HD
ATOM     13  H   UNL     1       1.964  -1.866  -2.884  0.00  0.00    +0.157 HD
ENDBRANCH   6   7
BRANCH   1  14
ATOM     14  C   UNL     1       1.102  -1.033   1.485  0.00  0.00    +0.121 C 
BRANCH  14  16
ATOM     15  C   UNL     1      -0.455   0.796   1.184  0.00  0.00    +0.105 C 
ATOM     16  N   UNL     1      -0.003  -0.505   0.674  0.00  0.00    -0.297 NA
BRANCH  16  17
ATOM     17  C   UNL     1      -1.115  -1.463   0.613  0.00  0.00    +0.120 C 
BRANCH  17  18
ATOM     18  C   UNL     1      -2.117  -1.004  -0.415  0.00  0.00    -0.025 A 
ATOM     19  C   UNL     1      -3.158  -0.168  -0.056  0.00  0.00    +0.028 A 
ATOM     20  C   UNL     1      -4.042   0.226  -1.006  0.00  0.00    +0.055 A 
ATOM     21  S   UNL     1      -3.410  -0.592  -2.461  0.00  0.00    -0.090 S 
ATOM     22  C   UNL     1      -2.007  -1.399  -1.707  0.00  0.00    +0.051 A 
ATOM     23 BR   UNL     1      -5.553   1.350  -0.834  0.00  0.00    -0.043 Br
ENDBRANCH  17  18
ENDBRANCH  16  17
ENDBRANCH  14  16
ENDBRANCH   1  14
TORSDOF 5
