REMARK  Name = ZINC16957850
REMARK  11 active torsions:
REMARK  status: ('A' for Active; 'I' for Inactive)
REMARK    1  A    between atoms: C_4  and  C_7
REMARK    2  A    between atoms: C_10  and  C_11
REMARK    3  A    between atoms: C_14  and  N_17
REMARK    4  A    between atoms: N_17  and  C_18
REMARK    5  A    between atoms: N_17  and  C_22
REMARK    6  A    between atoms: C_18  and  C_19
REMARK    7  A    between atoms: C_19  and  C_20
REMARK    8  A    between atoms: C_22  and  C_23
REMARK    9  A    between atoms: C_23  and  C_24
REMARK   10  A    between atoms: N_27  and  N_28
REMARK   11  A    between atoms: C_29  and  C_31
REMARK                            x       y       z     vdW  Elec       q    Type
REMARK                         _______ _______ _______ _____ _____    ______ ____
ROOT
ATOM      1  C   UNL     1       4.618   6.810   2.579  0.00  0.00    +0.123 C 
ATOM      2  N   UNL     1       4.082   5.715   3.042  0.00  0.00    -0.344 N 
ATOM      3  C   UNL     1       4.569   5.375   4.251  0.00  0.00    +0.037 C 
ATOM      4  C   UNL     1       4.223   4.303   4.994  0.00  0.00    +0.030 C 
ATOM      5  C   UNL     1       5.582   6.445   4.609  0.00  0.00    +0.182 C 
ATOM      6  N   UNL     1       5.547   7.345   3.441  0.00  0.00    -0.229 N 
ATOM      7  H   UNL     1       3.322   5.182   2.452  0.00  0.00    +0.167 HD
ENDROOT
BRANCH   1  11
ATOM      8  C   UNL     1       3.605   8.534  -1.167  0.00  0.00    +0.000 A 
ATOM      9  C   UNL     1       4.658   9.051  -0.434  0.00  0.00    +0.001 A 
ATOM     10  C   UNL     1       4.993   8.496   0.784  0.00  0.00    +0.011 A 
ATOM     11  C   UNL     1       4.266   7.409   1.276  0.00  0.00    +0.014 A 
ATOM     12  C   UNL     1       3.208   6.889   0.527  0.00  0.00    +0.011 A 
ATOM     13  C   UNL     1       2.881   7.457  -0.686  0.00  0.00    +0.001 A 
ENDBRANCH   1  11
BRANCH   4  14
ATOM     14  C   UNL     1       3.297   3.297   4.448  0.00  0.00    -0.023 A 
ATOM     15  C   UNL     1       2.677   3.512   3.212  0.00  0.00    +0.010 A 
ATOM     16  C   UNL     1       1.811   2.568   2.705  0.00  0.00    +0.024 A 
ATOM     17  C   UNL     1       1.552   1.404   3.421  0.00  0.00    +0.030 A 
ATOM     18  C   UNL     1       2.162   1.189   4.652  0.00  0.00    +0.024 A 
ATOM     19  C   UNL     1       3.034   2.125   5.163  0.00  0.00    +0.010 A 
BRANCH  17  20
ATOM     20  N   UNL     1       0.673   0.450   2.904  0.00  0.00    -0.329 N 
BRANCH  20  21
ATOM     21  C   UNL     1       0.398  -0.777   3.655  0.00  0.00    +0.110 C 
BRANCH  21  22
ATOM     22  C   UNL     1      -0.797  -0.551   4.582  0.00  0.00    +0.065 C 
BRANCH  22  23
ATOM     23  C   UNL     1      -1.080  -1.813   5.356  0.00  0.00    +0.075 C 
ATOM     24  N   UNL     1      -1.122  -1.784   6.634  0.00  0.00    -0.312 NA
ATOM     25  H   UNL     1      -1.328  -2.706   7.198  0.00  0.00    +0.186 HD
ENDBRANCH  22  23
ENDBRANCH  21  22
ENDBRANCH  20  21
BRANCH  20  26
ATOM     26  C   UNL     1       0.025   0.677   1.609  0.00  0.00    +0.110 C 
BRANCH  26  27
ATOM     27  C   UNL     1      -1.301   1.409   1.825  0.00  0.00    +0.065 C 
BRANCH  27  28
ATOM     28  C   UNL     1      -1.968   1.643   0.493  0.00  0.00    +0.075 C 
ATOM     29  N   UNL     1      -3.164   1.233   0.296  0.00  0.00    -0.312 NA
ATOM     30  H   UNL     1      -3.705   0.710   1.099  0.00  0.00    +0.186 HD
ENDBRANCH  27  28
ENDBRANCH  26  27
ENDBRANCH  20  26
ENDBRANCH  17  20
ENDBRANCH   4  14
BRANCH   6  31
ATOM     31  N   UNL     1       6.303   8.509   3.251  0.00  0.00    -0.228 N 
ATOM     32  C   UNL     1       5.741   9.717   3.456  0.00  0.00    +0.260 C 
ATOM     33  O   UNL     1       4.580   9.797   3.806  0.00  0.00    -0.269 OA
ATOM     34  H   UNL     1       7.354   8.438   2.935  0.00  0.00    +0.173 HD
BRANCH  32  35
ATOM     35  C   UNL     1       6.538  10.946   3.256  0.00  0.00    +0.038 A 
ATOM     36  C   UNL     1       7.874  10.858   2.860  0.00  0.00    +0.014 A 
ATOM     37  C   UNL     1       8.611  12.008   2.671  0.00  0.00    +0.021 A 
ATOM     38  C   UNL     1       8.031  13.248   2.882  0.00  0.00    +0.041 A 
ATOM     39  C   UNL     1       6.708  13.342   3.280  0.00  0.00    +0.021 A 
ATOM     40  C   UNL     1       5.959  12.199   3.467  0.00  0.00    +0.014 A 
ATOM     41 CL   UNL     1       8.967  14.691   2.648  0.00  0.00    -0.084 Cl
ENDBRANCH  32  35
ENDBRANCH   6  31
TORSDOF 11
