REMARK  Name = ZINC67035063
REMARK  8 active torsions:
REMARK  status: ('A' for Active; 'I' for Inactive)
REMARK    1  A    between atoms: C_1  and  C_2
REMARK    2  A    between atoms: N_8  and  C_9
REMARK    3  A    between atoms: C_9  and  C_10
REMARK    4  A    between atoms: C_10  and  N_11
REMARK    5  A    between atoms: N_14  and  N_15
REMARK    6  A    between atoms: C_16  and  C_18
REMARK    7  A    between atoms: C_18  and  C_19
REMARK    8  A    between atoms: C_19  and  C_20
REMARK                            x       y       z     vdW  Elec       q    Type
REMARK                         _______ _______ _______ _____ _____    ______ ____
ROOT
ATOM      1  N   UNL     1       4.113   0.250   2.546  0.00  0.00    -0.300 N 
ATOM      2  C   UNL     1       4.919   0.025   3.602  0.00  0.00    +0.316 C 
ATOM      3  O   UNL     1       4.527  -0.653   4.532  0.00  0.00    -0.251 OA
ATOM      4  N   UNL     1       6.160   0.550   3.627  0.00  0.00    -0.218 N 
ATOM      5  H   UNL     1       4.426   0.791   1.803  0.00  0.00    +0.150 HD
ATOM      6  H   UNL     1       6.740   0.388   4.388  0.00  0.00    +0.174 HD
ENDROOT
BRANCH   4   7
ATOM      7  N   UNL     1       6.612   1.331   2.556  0.00  0.00    -0.233 N 
ATOM      8  C   UNL     1       7.853   1.857   2.581  0.00  0.00    +0.229 C 
ATOM      9  O   UNL     1       8.578   1.654   3.532  0.00  0.00    -0.274 OA
ATOM     10  H   UNL     1       6.032   1.494   1.795  0.00  0.00    +0.173 HD
BRANCH   8  11
ATOM     11  C   UNL     1       8.339   2.697   1.428  0.00  0.00    +0.097 C 
BRANCH  11  12
ATOM     12  C   UNL     1       9.768   3.167   1.706  0.00  0.00    +0.013 C 
BRANCH  12  13
ATOM     13  C   UNL     1      10.262   4.019   0.536  0.00  0.00    -0.011 C 
ATOM     14  C   UNL     1      10.358   3.153  -0.721  0.00  0.00    +0.003 C 
ATOM     15  C   UNL     1      10.852   4.005  -1.892  0.00  0.00    +0.000 C 
ATOM     16  C   UNL     1      12.231   4.577  -1.560  0.00  0.00    +0.000 C 
ATOM     17  C   UNL     1      12.135   5.444  -0.303  0.00  0.00    +0.000 C 
ATOM     18  C   UNL     1      11.641   4.591   0.868  0.00  0.00    +0.003 C 
ENDBRANCH  12  13
ENDBRANCH  11  12
ENDBRANCH   8  11
ENDBRANCH   4   7
BRANCH   1  19
ATOM     19  C   UNL     1       2.764  -0.321   2.518  0.00  0.00    +0.087 C 
BRANCH  19  20
ATOM     20  C   UNL     1       2.066   0.083   1.218  0.00  0.00    -0.059 C 
BRANCH  20  27
ATOM     21  C   UNL     1      -0.019   1.526   0.010  0.00  0.00    -0.013 C 
ATOM     22  C   UNL     1       0.002  -0.004   0.002  0.00  0.00    -0.072 C 
ATOM     23  C   UNL     1      -1.434  -0.533   0.011  0.00  0.00    -0.016 C 
ATOM     24  C   UNL     1      -1.408  -2.064   0.003  0.00  0.00    -0.003 C 
ATOM     25  C   UNL     1      -0.600  -2.558   1.206  0.00  0.00    -0.019 C 
ATOM     26  C   UNL     1       0.805  -1.954   1.152  0.00  0.00    -0.078 C 
ATOM     27  N   UNL     1       0.713  -0.490   1.191  0.00  0.00    +0.382 N 
ATOM     28  H   UNL     1       0.213  -0.206   2.020  0.00  0.00    -0.081 HD
ENDBRANCH  20  27
ENDBRANCH  19  20
ENDBRANCH   1  19
TORSDOF 7
