REMARK  Name = ZINC66203495
REMARK  13 active torsions:
REMARK  status: ('A' for Active; 'I' for Inactive)
REMARK    1  A    between atoms: C_1  and  C_2
REMARK    2  A    between atoms: C_2  and  C_3
REMARK    3  A    between atoms: C_3  and  C_5
REMARK    4  A    between atoms: C_3  and  N_6
REMARK    5  A    between atoms: N_6  and  C_7
REMARK    6  A    between atoms: N_6  and  C_8
REMARK    7  A    between atoms: C_8  and  C_9
REMARK    8  A    between atoms: C_9  and  N_10
REMARK    9  A    between atoms: N_13  and  N_14
REMARK   10  A    between atoms: C_15  and  C_17
REMARK   11  A    between atoms: C_17  and  O_18
REMARK   12  A    between atoms: O_18  and  C_19
REMARK   13  A    between atoms: C_24  and  C_25
REMARK                            x       y       z     vdW  Elec       q    Type
REMARK                         _______ _______ _______ _____ _____    ______ ____
ROOT
ATOM      1  N   UNL     1      -1.085   2.954  -4.259  0.00  0.00    -0.300 N 
ATOM      2  C   UNL     1      -1.798   3.446  -5.292  0.00  0.00    +0.316 C 
ATOM      3  O   UNL     1      -2.408   2.691  -6.024  0.00  0.00    -0.251 OA
ATOM      4  N   UNL     1      -1.835   4.775  -5.512  0.00  0.00    -0.218 N 
ATOM      5  H   UNL     1      -0.599   3.556  -3.675  0.00  0.00    +0.150 HD
ATOM      6  H   UNL     1      -2.349   5.129  -6.255  0.00  0.00    +0.174 HD
ENDROOT
BRANCH   4   7
ATOM      7  N   UNL     1      -1.133   5.645  -4.668  0.00  0.00    -0.230 N 
ATOM      8  C   UNL     1      -1.171   6.974  -4.888  0.00  0.00    +0.267 C 
ATOM      9  O   UNL     1      -1.812   7.417  -5.817  0.00  0.00    -0.271 OA
ATOM     10  H   UNL     1      -0.620   5.290  -3.925  0.00  0.00    +0.173 HD
BRANCH   8  11
ATOM     11  C   UNL     1      -0.415   7.910  -3.980  0.00  0.00    +0.326 C 
BRANCH  11  12
ATOM     12  O   UNL     1      -0.609   9.257  -4.416  0.00  0.00    -0.481 OA
BRANCH  12  13
ATOM     13  C   UNL     1       0.008  10.231  -3.701  0.00  0.00    +0.138 A 
ATOM     14  C   UNL     1       0.790   9.900  -2.605  0.00  0.00    +0.047 A 
ATOM     15  C   UNL     1       1.417  10.893  -1.878  0.00  0.00    +0.004 A 
ATOM     16  C   UNL     1       1.272  12.223  -2.236  0.00  0.00    +0.001 A 
ATOM     17  C   UNL     1       0.498  12.569  -3.323  0.00  0.00    +0.022 A 
ATOM     18  C   UNL     1      -0.138  11.575  -4.071  0.00  0.00    +0.093 A 
BRANCH  18  19
ATOM     19  C   UNL     1      -0.938  11.928  -5.204  0.00  0.00    +0.103 C 
ATOM     20  N   UNL     1      -1.573  12.207  -6.104  0.00  0.00    -0.191 NA
ENDBRANCH  18  19
ENDBRANCH  12  13
ENDBRANCH  11  12
ENDBRANCH   8  11
ENDBRANCH   4   7
BRANCH   1  21
ATOM     21  C   UNL     1      -1.045   1.509  -4.019  0.00  0.00    +0.087 C 
BRANCH  21  22
ATOM     22  C   UNL     1      -0.173   1.219  -2.796  0.00  0.00    -0.060 C 
BRANCH  22  23
ATOM     23  N   UNL     1      -0.132  -0.230  -2.556  0.00  0.00    +0.381 N 
ATOM     24  C   UNL     1       0.528  -0.895  -3.687  0.00  0.00    -0.096 C 
ATOM     25  H   UNL     1      -1.073  -0.582  -2.461  0.00  0.00    -0.082 HD
BRANCH  23  26
ATOM     26  C   UNL     1       0.618  -0.501  -1.323  0.00  0.00    -0.072 C 
ATOM     27  C   UNL     1       2.081  -0.095  -1.516  0.00  0.00    -0.013 C 
BRANCH  26  29
ATOM     28  C   UNL     1      -0.913  -2.382  -0.725  0.00  0.00    +0.002 C 
ATOM     29  C   UNL     1       0.541  -1.994  -0.997  0.00  0.00    -0.019 C 
ENDBRANCH  26  29
ENDBRANCH  23  26
ENDBRANCH  22  23
ENDBRANCH  21  22
ENDBRANCH   1  21
TORSDOF 10
