REMARK  Name = ZINC40947306
REMARK  9 active torsions:
REMARK  status: ('A' for Active; 'I' for Inactive)
REMARK    1  A    between atoms: C_1  and  C_2
REMARK    2  A    between atoms: C_5  and  C_8
REMARK    3  A    between atoms: C_8  and  O_9
REMARK    4  A    between atoms: O_9  and  C_10
REMARK    5  A    between atoms: C_15  and  C_16
REMARK    6  A    between atoms: N_17  and  N_18
REMARK    7  A    between atoms: C_19  and  C_21
REMARK    8  A    between atoms: C_21  and  S_22
REMARK    9  A    between atoms: S_22  and  C_23
REMARK                            x       y       z     vdW  Elec       q    Type
REMARK                         _______ _______ _______ _____ _____    ______ ____
ROOT
ATOM      1  C   UNL     1       1.608  -6.078  -0.040  0.00  0.00    +0.130 A 
ATOM      2  C   UNL     1       0.522  -6.939  -0.044  0.00  0.00    +0.047 A 
ATOM      3  C   UNL     1       0.722  -8.306  -0.053  0.00  0.00    +0.019 A 
ATOM      4  C   UNL     1       2.005  -8.827  -0.057  0.00  0.00    +0.019 A 
ATOM      5  C   UNL     1       3.098  -7.984  -0.053  0.00  0.00    +0.028 A 
ATOM      6  C   UNL     1       2.909  -6.600  -0.050  0.00  0.00    +0.037 A 
ATOM      7 BR   UNL     1       2.261 -10.700  -0.068  0.00  0.00    -0.050 Br
ENDROOT
BRANCH   6   8
ATOM      8  C   UNL     1       4.071  -5.694  -0.052  0.00  0.00    +0.142 C 
ATOM      9  N   UNL     1       3.891  -4.408  -0.044  0.00  0.00    -0.188 NA
BRANCH   9  10
ATOM     10  N   UNL     1       4.996  -3.546  -0.046  0.00  0.00    -0.206 N 
ATOM     11  C   UNL     1       4.809  -2.212  -0.039  0.00  0.00    +0.242 C 
ATOM     12  O   UNL     1       3.685  -1.756  -0.030  0.00  0.00    -0.273 OA
ATOM     13  H   UNL     1       5.895  -3.910  -0.053  0.00  0.00    +0.177 HD
BRANCH  11  14
ATOM     14  C   UNL     1       5.997  -1.285  -0.041  0.00  0.00    +0.173 C 
BRANCH  14  15
ATOM     15  S   UNL     1       5.422   0.436  -0.029  0.00  0.00    -0.088 S 
BRANCH  15  16
ATOM     16  C   UNL     1       6.909   1.382  -0.032  0.00  0.00    +0.160 A 
ATOM     17  N   UNL     1       8.162   0.970  -0.047  0.00  0.00    -0.133 NA
ATOM     18  N   UNL     1       9.184   1.890  -0.048  0.00  0.00    -0.125 NA
ATOM     19  C   UNL     1       8.908   3.179  -0.033  0.00  0.00    +0.180 A 
ATOM     20  S   UNL     1       7.121   3.155  -0.025  0.00  0.00    -0.025 S 
ATOM     21  N   UNL     1       9.774   4.266  -0.030  0.00  0.00    -0.336 N 
ATOM     22  H   UNL     1      10.733   4.122  -0.041  0.00  0.00    +0.144 HD
ATOM     23  H   UNL     1       9.419   5.169  -0.018  0.00  0.00    +0.144 HD
ENDBRANCH  15  16
ENDBRANCH  14  15
ENDBRANCH  11  14
ENDBRANCH   9  10
ENDBRANCH   6   8
BRANCH   1  24
ATOM     24  O   UNL     1       1.413  -4.734  -0.032  0.00  0.00    -0.487 OA
BRANCH  24  25
ATOM     25  C   UNL     1       0.059  -4.275  -0.021  0.00  0.00    +0.264 C 
BRANCH  25  30
ATOM     26  C   UNL     1      -0.018   1.503   0.010  0.00  0.00    +0.044 C 
ATOM     27  C   UNL     1       0.002  -0.004   0.002  0.00  0.00    -0.050 A 
ATOM     28  C   UNL     1       0.006  -0.689  -1.199  0.00  0.00    +0.004 A 
ATOM     29  C   UNL     1       0.025  -2.071  -1.206  0.00  0.00    +0.007 A 
ATOM     30  C   UNL     1       0.040  -2.768  -0.013  0.00  0.00    -0.010 A 
ATOM     31  C   UNL     1       0.037  -2.084   1.188  0.00  0.00    +0.007 A 
ATOM     32  C   UNL     1       0.023  -0.702   1.195  0.00  0.00    +0.004 A 
ENDBRANCH  25  30
ENDBRANCH  24  25
ENDBRANCH   1  24
TORSDOF 8
