REMARK  Name = ZINC02292475
REMARK  10 active torsions:
REMARK  status: ('A' for Active; 'I' for Inactive)
REMARK    1  A    between atoms: C_1  and  C_2
REMARK    2  A    between atoms: C_2  and  O_3
REMARK    3  A    between atoms: O_3  and  C_4
REMARK    4  A    between atoms: C_4  and  C_6
REMARK    5  A    between atoms: N_17  and  C_20
REMARK    6  A    between atoms: C_18  and  N_19
REMARK    7  A    between atoms: C_22  and  C_28
REMARK    8  A    between atoms: C_22  and  C_29
REMARK    9  A    between atoms: C_24  and  C_26
REMARK   10  A    between atoms: C_24  and  C_27
REMARK                            x       y       z     vdW  Elec       q    Type
REMARK                         _______ _______ _______ _____ _____    ______ ____
ROOT
ATOM      1  C   UNL     1      -3.272  -2.676   0.074  0.00  0.00    +0.126 A 
ATOM      2  C   UNL     1      -4.174  -3.088  -1.015  0.00  0.00    +0.124 A 
ATOM      3  C   UNL     1      -5.372  -3.607  -0.350  0.00  0.00    +0.162 A 
ATOM      4  N   UNL     1      -6.372  -4.057  -1.078  0.00  0.00    -0.226 NA
ATOM      5  C   UNL     1      -6.286  -4.037  -2.414  0.00  0.00    +0.092 A 
ATOM      6  C   UNL     1      -7.351  -4.516  -3.201  0.00  0.00    +0.030 A 
ATOM      7  C   UNL     1      -7.255  -4.491  -4.558  0.00  0.00    +0.002 A 
ATOM      8  C   UNL     1      -6.114  -3.996  -5.187  0.00  0.00    +0.002 A 
ATOM      9  C   UNL     1      -5.064  -3.525  -4.461  0.00  0.00    +0.030 A 
ATOM     10  C   UNL     1      -5.126  -3.534  -3.055  0.00  0.00    +0.090 A 
ATOM     11  N   UNL     1      -4.099  -3.073  -2.330  0.00  0.00    -0.241 NA
ATOM     12  N   UNL     1      -5.160  -3.495   1.009  0.00  0.00    -0.309 N 
ATOM     13  C   UNL     1      -3.937  -2.959   1.264  0.00  0.00    +0.114 A 
ENDROOT
BRANCH  12  14
ATOM     14  C   UNL     1      -6.122  -3.905   2.039  0.00  0.00    +0.088 C 
ATOM     15  C   UNL     1      -5.470  -4.948   2.949  0.00  0.00    +0.012 C 
ATOM     16  C   UNL     1      -6.456  -5.377   4.035  0.00  0.00    -0.071 C 
ATOM     17  N   UNL     1      -6.982  -4.240   4.777  0.00  0.00    +0.386 N 
ATOM     18  C   UNL     1      -7.446  -3.092   4.015  0.00  0.00    -0.071 C 
ATOM     19  C   UNL     1      -6.496  -2.693   2.891  0.00  0.00    +0.012 C 
ATOM     20  C   UNL     1      -7.534  -1.893   4.989  0.00  0.00    -0.010 C 
ATOM     21  C   UNL     1      -8.853  -3.316   3.454  0.00  0.00    -0.010 C 
ATOM     22  C   UNL     1      -5.680  -6.267   5.033  0.00  0.00    -0.010 C 
ATOM     23  C   UNL     1      -7.567  -6.235   3.432  0.00  0.00    -0.010 C 
ATOM     24  H   UNL     1      -7.752  -4.569   5.365  0.00  0.00    -0.084 HD
ATOM     25  H   UNL     1      -6.262  -3.923   5.431  0.00  0.00    -0.084 HD
ENDBRANCH  12  14
BRANCH  13  26
ATOM     26  N   UNL     1      -3.430  -2.727   2.515  0.00  0.00    -0.344 N 
ATOM     27  H   UNL     1      -2.548  -2.338   2.617  0.00  0.00    +0.144 HD
ATOM     28  H   UNL     1      -3.955  -2.952   3.300  0.00  0.00    +0.144 HD
ENDBRANCH  13  26
BRANCH   1  29
ATOM     29  C   UNL     1      -1.982  -2.109  -0.063  0.00  0.00    +0.345 C 
ATOM     30  O   UNL     1      -1.003  -2.830  -0.114  0.00  0.00    -0.245 OA
BRANCH  29  31
ATOM     31  O   UNL     1      -1.838  -0.769  -0.136  0.00  0.00    -0.461 OA
BRANCH  31  33
ATOM     32  C   UNL     1      -0.544   1.262  -0.340  0.00  0.00    +0.048 C 
ATOM     33  C   UNL     1      -0.507  -0.266  -0.274  0.00  0.00    +0.229 C 
ENDBRANCH  31  33
ENDBRANCH  29  31
ENDBRANCH   1  29
TORSDOF 5
