REMARK  Name = ZINC12884343
REMARK  7 active torsions:
REMARK  status: ('A' for Active; 'I' for Inactive)
REMARK    1  A    between atoms: C_1  and  C_2
REMARK    2  A    between atoms: C_2  and  O_3
REMARK    3  A    between atoms: O_3  and  C_4
REMARK    4  A    between atoms: C_4  and  C_6
REMARK    5  A    between atoms: C_9  and  N_12
REMARK    6  A    between atoms: C_15  and  C_22
REMARK    7  A    between atoms: C_16  and  O_21
REMARK                            x       y       z     vdW  Elec       q    Type
REMARK                         _______ _______ _______ _____ _____    ______ ____
ROOT
ATOM      1  N   UNL     1      -1.234   2.963   0.029  0.00  0.00    -0.229 N 
ATOM      2  C   UNL     1      -0.189   3.496   0.693  0.00  0.00    +0.267 A 
ATOM      3  O   UNL     1      -0.321   4.542   1.305  0.00  0.00    -0.267 OA
ATOM      4  C   UNL     1       1.052   2.837   0.675  0.00  0.00    +0.069 A 
ATOM      5  C   UNL     1       1.173   1.669  -0.017  0.00  0.00    +0.201 A 
ATOM      6  N   UNL     1       0.084   1.161  -0.679  0.00  0.00    -0.278 N 
ATOM      7  H   UNL     1       0.164   0.330  -1.173  0.00  0.00    +0.173 HD
ATOM      8  C   UNL     1      -1.094   1.811  -0.652  0.00  0.00    +0.336 A 
ATOM      9  O   UNL     1      -2.047   1.349  -1.249  0.00  0.00    -0.246 OA
ENDROOT
BRANCH   4  10
ATOM     10  C   UNL     1       2.234   3.415   1.411  0.00  0.00    +0.018 C 
ATOM     11  C   UNL     1       2.622   4.736   0.790  0.00  0.00    +0.011 A 
ATOM     12  C   UNL     1       2.933   5.831   1.521  0.00  0.00    -0.022 A 
ATOM     13  C   UNL     1       3.247   6.891   0.590  0.00  0.00    +0.003 A 
ATOM     14  C   UNL     1       3.631   8.225   0.761  0.00  0.00    +0.010 A 
ATOM     15  C   UNL     1       3.854   8.959  -0.377  0.00  0.00    +0.001 A 
ATOM     16  C   UNL     1       3.710   8.415  -1.643  0.00  0.00    +0.002 A 
ATOM     17  C   UNL     1       3.331   7.099  -1.843  0.00  0.00    +0.026 A 
ATOM     18  C   UNL     1       3.097   6.330  -0.705  0.00  0.00    +0.047 A 
ATOM     19  N   UNL     1       2.719   5.028  -0.543  0.00  0.00    -0.359 N 
ATOM     20  H   UNL     1       2.545   4.403  -1.265  0.00  0.00    +0.166 HD
ATOM     21  C   UNL     1       2.932   5.852   3.029  0.00  0.00    +0.018 C 
ATOM     22  C   UNL     1       2.922   4.399   3.523  0.00  0.00    -0.076 C 
ATOM     23  N   UNL     1       1.864   3.640   2.825  0.00  0.00    +0.388 N 
ATOM     24  H   UNL     1       1.737   2.733   3.290  0.00  0.00    -0.084 HD
ATOM     25  H   UNL     1       0.986   4.170   2.865  0.00  0.00    -0.084 HD
ENDBRANCH   4  10
BRANCH   1  29
ATOM     26  C   UNL     1      -4.921   4.906   0.071  0.00  0.00    +0.059 A 
ATOM     27  C   UNL     1      -4.616   3.961   1.055  0.00  0.00    +0.017 A 
ATOM     28  C   UNL     1      -3.397   3.321   1.038  0.00  0.00    +0.027 A 
ATOM     29  C   UNL     1      -2.470   3.614   0.043  0.00  0.00    +0.054 A 
ATOM     30  C   UNL     1      -2.768   4.558  -0.934  0.00  0.00    +0.027 A 
ATOM     31  C   UNL     1      -3.987   5.198  -0.926  0.00  0.00    +0.017 A 
BRANCH  26  32
ATOM     32  C   UNL     1      -6.227   5.593   0.086  0.00  0.00    +0.339 C 
ATOM     33  O   UNL     1      -7.038   5.337   0.954  0.00  0.00    -0.245 OA
BRANCH  32  34
ATOM     34  O   UNL     1      -6.519   6.503  -0.863  0.00  0.00    -0.461 OA
BRANCH  34  36
ATOM     35  C   UNL     1      -7.972   8.135  -1.938  0.00  0.00    +0.048 C 
ATOM     36  C   UNL     1      -7.822   7.140  -0.786  0.00  0.00    +0.229 C 
ENDBRANCH  34  36
ENDBRANCH  32  34
ENDBRANCH  26  32
ENDBRANCH   1  29
BRANCH   5  37
ATOM     37  O   UNL     1       2.354   1.016  -0.049  0.00  0.00    -0.493 OA
ATOM     38  H   UNL     1       2.337   0.198  -0.565  0.00  0.00    +0.294 HD
ENDBRANCH   5  37
TORSDOF 6
