REMARK  Name = ZINC61328138
REMARK  5 active torsions:
REMARK  status: ('A' for Active; 'I' for Inactive)
REMARK    1  A    between atoms: C_3  and  C_11
REMARK    2  A    between atoms: C_5  and  S_7
REMARK    3  A    between atoms: S_7  and  N_10
REMARK    4  A    between atoms: C_11  and  N_12
REMARK    5  A    between atoms: N_12  and  C_13
REMARK                            x       y       z     vdW  Elec       q    Type
REMARK                         _______ _______ _______ _____ _____    ______ ____
ROOT
ATOM      1  C   UNL     1       3.612   2.304  -0.018  0.00  0.00    -0.046 C 
ENDROOT
BRANCH   1   4
ATOM      2  C   UNL     1      -0.158   2.129   0.075  0.00  0.00    +0.002 A 
ATOM      3  C   UNL     1       1.132   2.627   0.061  0.00  0.00    +0.002 A 
ATOM      4  C   UNL     1       2.207   1.761  -0.002  0.00  0.00    -0.063 A 
ATOM      5  C   UNL     1       1.992   0.396  -0.050  0.00  0.00    +0.030 A 
ATOM      6  C   UNL     1       0.703  -0.102  -0.035  0.00  0.00    +0.105 A 
ATOM      7  C   UNL     1      -0.372   0.764   0.027  0.00  0.00    +0.028 A 
BRANCH   6   8
ATOM      8  S   UNL     1       0.430  -1.842  -0.097  0.00  0.00    +0.056 S 
ATOM      9  O   UNL     1      -0.878  -2.029  -0.621  0.00  0.00    -0.153 OA
ATOM     10  O   UNL     1       1.582  -2.413  -0.703  0.00  0.00    -0.153 OA
BRANCH   8  11
ATOM     11  N   UNL     1       0.397  -2.389   1.466  0.00  0.00    -0.204 NA
ATOM     12  H   UNL     1      -0.141  -3.162   1.698  0.00  0.00    +0.144 HD
ATOM     13  H   UNL     1       0.916  -1.936   2.149  0.00  0.00    +0.144 HD
ENDBRANCH   8  11
ENDBRANCH   6   8
ENDBRANCH   1   4
BRANCH   1  14
ATOM     14  N   UNL     1       4.106   2.426   1.360  0.00  0.00    +0.386 N 
ATOM     15  H   UNL     1       3.462   2.984   1.899  0.00  0.00    -0.085 HD
ATOM     16  H   UNL     1       4.183   1.508   1.772  0.00  0.00    -0.085 HD
BRANCH  14  17
ATOM     17  C   UNL     1       5.426   3.071   1.351  0.00  0.00    -0.040 C 
ATOM     18  C   UNL     1       6.440   2.155   0.666  0.00  0.00    -0.011 C 
ATOM     19  C   UNL     1       7.851   2.733   0.812  0.00  0.00    +0.004 C 
ATOM     20  C   UNL     1       8.287   2.603   2.280  0.00  0.00    +0.042 C 
ATOM     21  C   UNL     1       7.173   3.095   3.146  0.00  0.00    -0.009 A 
ATOM     22  C   UNL     1       5.880   3.326   2.786  0.00  0.00    -0.051 A 
ATOM     23  C   UNL     1       5.026   3.794   3.785  0.00  0.00    +0.010 A 
ATOM     24  C   UNL     1       5.495   3.996   5.037  0.00  0.00    +0.045 A 
ATOM     25  S   UNL     1       7.214   3.519   4.867  0.00  0.00    -0.101 S 
ENDBRANCH  14  17
ENDBRANCH   1  14
TORSDOF 5
