REMARK  Name = ZINC39695746
REMARK  9 active torsions:
REMARK  status: ('A' for Active; 'I' for Inactive)
REMARK    1  A    between atoms: C_1  and  C_2
REMARK    2  A    between atoms: C_2  and  C_3
REMARK    3  A    between atoms: C_3  and  C_5
REMARK    4  A    between atoms: C_3  and  C_6
REMARK    5  A    between atoms: C_10  and  C_19
REMARK    6  A    between atoms: N_21  and  C_22
REMARK    7  A    between atoms: C_22  and  C_24
REMARK    8  A    between atoms: C_22  and  C_25
REMARK    9  A    between atoms: C_31  and  C_35
REMARK                            x       y       z     vdW  Elec       q    Type
REMARK                         _______ _______ _______ _____ _____    ______ ____
ROOT
ATOM      1  C   UNL     1      -1.575  -2.276   0.303  0.00  0.00    +0.218 C 
ATOM      2  O   UNL     1      -0.582  -2.937   0.520  0.00  0.00    -0.275 OA
ATOM      3  N   UNL     1      -2.764  -2.885   0.123  0.00  0.00    -0.300 N 
ATOM      4  C   UNL     1      -4.055  -2.263  -0.256  0.00  0.00    +0.121 C 
ATOM      5  C   UNL     1      -4.699  -3.268  -1.237  0.00  0.00    +0.100 C 
ATOM      6  C   UNL     1      -4.054  -4.621  -0.892  0.00  0.00    -0.004 C 
ATOM      7  C   UNL     1      -3.075  -4.328   0.254  0.00  0.00    +0.115 C 
ATOM      8  C   UNL     1      -3.297  -5.168  -2.098  0.00  0.00    -0.010 C 
ATOM      9  C   UNL     1      -2.713  -6.540  -1.748  0.00  0.00    -0.082 C 
ATOM     10  N   UNL     1      -3.798  -7.454  -1.370  0.00  0.00    +0.379 N 
ATOM     11  C   UNL     1      -4.462  -6.968  -0.155  0.00  0.00    -0.082 C 
ATOM     12  C   UNL     1      -5.120  -5.614  -0.437  0.00  0.00    -0.010 C 
ATOM     13  H   UNL     1      -4.470  -7.505  -2.121  0.00  0.00    -0.086 HD
ATOM     14  H   UNL     1      -3.418  -8.373  -1.199  0.00  0.00    -0.086 HD
ENDROOT
BRANCH   5  15
ATOM     15  C   UNL     1      -6.190  -3.325  -1.025  0.00  0.00    +0.219 C 
ATOM     16  O   UNL     1      -6.656  -3.100   0.072  0.00  0.00    -0.275 OA
ATOM     17  N   UNL     1      -7.005  -3.627  -2.055  0.00  0.00    -0.305 N 
ATOM     18  H   UNL     1      -6.633  -3.807  -2.932  0.00  0.00    +0.149 HD
BRANCH  17  19
ATOM     19  C   UNL     1      -8.455  -3.683  -1.849  0.00  0.00    +0.136 C 
ATOM     20  C   UNL     1      -9.044  -2.277  -1.986  0.00  0.00    +0.036 C 
BRANCH  19  21
ATOM     21  C   UNL     1      -9.074  -4.589  -2.882  0.00  0.00    +0.128 A 
ATOM     22  H   UNL     1     -10.828  -5.231  -1.950  0.00  0.00    +0.167 HD
ATOM     23  N   UNL     1      -8.559  -4.853  -4.047  0.00  0.00    -0.231 NA
ATOM     24  C   UNL     1      -9.373  -5.702  -4.725  0.00  0.00    +0.089 A 
ATOM     25  C   UNL     1      -9.309  -6.297  -5.987  0.00  0.00    +0.030 A 
ATOM     26  C   UNL     1     -10.311  -7.131  -6.398  0.00  0.00    +0.005 A 
ATOM     27  C   UNL     1     -11.395  -7.395  -5.574  0.00  0.00    -0.048 A 
ATOM     28  C   UNL     1     -11.479  -6.819  -4.324  0.00  0.00    +0.031 A 
ATOM     29  C   UNL     1     -10.472  -5.970  -3.889  0.00  0.00    +0.067 A 
ATOM     30  N   UNL     1     -10.250  -5.256  -2.729  0.00  0.00    -0.340 N 
ATOM     31  C   UNL     1     -12.488  -8.318  -6.048  0.00  0.00    +0.044 C 
ENDBRANCH  19  21
ENDBRANCH  17  19
ENDBRANCH   5  15
BRANCH   1  32
ATOM     32  C   UNL     1      -1.480  -0.773   0.235  0.00  0.00    +0.072 C 
ATOM     33  C   UNL     1      -1.173  -0.346  -1.202  0.00  0.00    +0.017 C 
BRANCH  32  35
ATOM     34  C   UNL     1      -0.346   1.239   1.187  0.00  0.00    +0.004 C 
ATOM     35  C   UNL     1      -0.361  -0.291   1.161  0.00  0.00    +0.009 C 
ENDBRANCH  32  35
ENDBRANCH   1  32
TORSDOF 5
