REMARK  Name = ZINC45764428
REMARK  8 active torsions:
REMARK  status: ('A' for Active; 'I' for Inactive)
REMARK    1  A    between atoms: C_1  and  N_2
REMARK    2  A    between atoms: N_5  and  C_8
REMARK    3  A    between atoms: C_8  and  C_9
REMARK    4  A    between atoms: C_12  and  C_15
REMARK    5  A    between atoms: C_15  and  N_16
REMARK    6  A    between atoms: N_19  and  C_20
REMARK    7  A    between atoms: C_25  and  C_26
REMARK    8  A    between atoms: C_26  and  C_27
REMARK                            x       y       z     vdW  Elec       q    Type
REMARK                         _______ _______ _______ _____ _____    ______ ____
ROOT
ATOM      1  N   UNL     1       1.766  -4.648   7.115  0.00  0.00    -0.295 N 
ATOM      2  C   UNL     1       2.282  -4.827   8.347  0.00  0.00    +0.304 C 
ATOM      3  O   UNL     1       2.453  -5.952   8.777  0.00  0.00    -0.252 OA
ATOM      4  N   UNL     1       2.609  -3.761   9.103  0.00  0.00    -0.269 N 
ATOM      5  H   UNL     1       1.630  -3.750   6.773  0.00  0.00    +0.151 HD
ATOM      6  H   UNL     1       2.550  -2.866   8.732  0.00  0.00    +0.156 HD
ENDROOT
BRANCH   4   7
ATOM      7  C   UNL     1       3.033  -3.943  10.424  0.00  0.00    +0.038 A 
ATOM      8  C   UNL     1       2.653  -5.079  11.127  0.00  0.00    +0.023 A 
ATOM      9  C   UNL     1       3.074  -5.256  12.430  0.00  0.00    +0.002 A 
ATOM     10  C   UNL     1       3.873  -4.303  13.036  0.00  0.00    +0.000 A 
ATOM     11  C   UNL     1       4.253  -3.171  12.339  0.00  0.00    +0.006 A 
ATOM     12  C   UNL     1       3.841  -2.991  11.033  0.00  0.00    -0.017 A 
BRANCH  12  13
ATOM     13  C   UNL     1       4.261  -1.760  10.272  0.00  0.00    +0.132 C 
BRANCH  13  14
ATOM     14  C   UNL     1       3.187  -0.710  10.384  0.00  0.00    +0.215 C 
ATOM     15  O   UNL     1       2.179  -0.938  11.019  0.00  0.00    -0.276 OA
ATOM     16  N   UNL     1       3.345   0.484   9.778  0.00  0.00    -0.329 N 
ATOM     17  H   UNL     1       4.152   0.666   9.270  0.00  0.00    +0.145 HD
ATOM     18  H   UNL     1       2.654   1.160   9.850  0.00  0.00    +0.145 HD
ENDBRANCH  13  14
ENDBRANCH  12  13
ENDBRANCH   4   7
BRANCH   1  19
ATOM     19  C   UNL     1       1.411  -5.807   6.293  0.00  0.00    +0.141 C 
BRANCH  19  23
ATOM     20  C   UNL     1      -0.151  -4.476   2.547  0.00  0.00    -0.033 A 
ATOM     21  C   UNL     1       1.205  -4.699   2.690  0.00  0.00    +0.005 A 
ATOM     22  C   UNL     1       1.711  -5.130   3.902  0.00  0.00    +0.005 A 
ATOM     23  C   UNL     1       0.860  -5.337   4.972  0.00  0.00    -0.030 A 
ATOM     24  C   UNL     1      -0.496  -5.112   4.830  0.00  0.00    +0.005 A 
ATOM     25  C   UNL     1      -1.002  -4.677   3.619  0.00  0.00    +0.005 A 
BRANCH  20  26
ATOM     26  C   UNL     1      -0.703  -4.006   1.226  0.00  0.00    +0.119 C 
BRANCH  26  31
ATOM     27  C   UNL     1      -0.116   1.472   0.043  0.00  0.00    -0.096 C 
ATOM     28  N   UNL     1      -0.091   0.003   0.032  0.00  0.00    +0.379 N 
ATOM     29  C   UNL     1      -1.468  -0.509   0.052  0.00  0.00    -0.064 C 
ATOM     30  C   UNL     1      -1.444  -2.039   0.022  0.00  0.00    +0.066 C 
ATOM     31  N   UNL     1      -0.700  -2.538   1.188  0.00  0.00    -0.302 NA
ATOM     32  C   UNL     1       0.673  -2.013   1.194  0.00  0.00    +0.066 C 
ATOM     33  C   UNL     1       0.631  -0.483   1.215  0.00  0.00    -0.064 C 
ATOM     34  H   UNL     1       0.375  -0.320  -0.803  0.00  0.00    -0.082 HD
ENDBRANCH  26  31
ENDBRANCH  20  26
ENDBRANCH  19  23
ENDBRANCH   1  19
TORSDOF 7
