REMARK  Name = ZINC40315599
REMARK  6 active torsions:
REMARK  status: ('A' for Active; 'I' for Inactive)
REMARK    1  A    between atoms: C_3  and  N_22
REMARK    2  A    between atoms: C_4  and  S_8
REMARK    3  A    between atoms: S_8  and  N_11
REMARK    4  A    between atoms: N_11  and  C_12
REMARK    5  A    between atoms: C_12  and  C_13
REMARK    6  A    between atoms: N_17  and  C_19
REMARK                            x       y       z     vdW  Elec       q    Type
REMARK                         _______ _______ _______ _____ _____    ______ ____
ROOT
ATOM      1  S   UNL     1       3.892  -0.767  -0.018  0.00  0.00    +0.060 S 
ATOM      2  O   UNL     1       4.623  -0.278   1.098  0.00  0.00    -0.153 OA
ATOM      3  O   UNL     1       3.454  -2.116  -0.110  0.00  0.00    -0.153 OA
ENDROOT
BRANCH   1   7
ATOM      4  C   UNL     1       0.192   1.824  -0.382  0.00  0.00    +0.022 A 
ATOM      5  C   UNL     1       0.422   0.823  -1.305  0.00  0.00    +0.026 A 
ATOM      6  C   UNL     1       1.555   0.027  -1.197  0.00  0.00    +0.051 A 
ATOM      7  C   UNL     1       2.454   0.240  -0.160  0.00  0.00    +0.127 A 
ATOM      8  C   UNL     1       2.219   1.243   0.761  0.00  0.00    +0.050 A 
ATOM      9  C   UNL     1       1.089   2.035   0.650  0.00  0.00    +0.043 A 
ATOM     10 CL   UNL     1       0.797   3.294   1.809  0.00  0.00    -0.083 Cl
BRANCH   6  11
ATOM     11  N   UNL     1       1.790  -0.987  -2.130  0.00  0.00    -0.356 N 
ATOM     12  H   UNL     1       1.119  -1.196  -2.798  0.00  0.00    +0.142 HD
ATOM     13  H   UNL     1       2.624  -1.482  -2.108  0.00  0.00    +0.142 HD
ENDBRANCH   6  11
ENDBRANCH   1   7
BRANCH   1  14
ATOM     14  N   UNL     1       4.825  -0.481  -1.357  0.00  0.00    -0.190 NA
ATOM     15  H   UNL     1       4.984  -1.191  -1.997  0.00  0.00    +0.148 HD
BRANCH  14  16
ATOM     16  C   UNL     1       5.408   0.845  -1.573  0.00  0.00    +0.107 C 
BRANCH  16  17
ATOM     17  C   UNL     1       6.505   0.753  -2.635  0.00  0.00    -0.014 C 
ATOM     18  C   UNL     1       5.897   0.452  -4.024  0.00  0.00    -0.016 C 
ATOM     19  C   UNL     1       6.704   1.316  -5.012  0.00  0.00    -0.078 C 
ATOM     20  N   UNL     1       7.727   2.035  -4.223  0.00  0.00    +0.382 N 
ATOM     21  C   UNL     1       7.186   2.130  -2.841  0.00  0.00    -0.074 C 
ATOM     22  H   UNL     1       8.592   1.517  -4.221  0.00  0.00    -0.081 HD
BRANCH  20  23
ATOM     23  C   UNL     1       7.941   3.379  -4.777  0.00  0.00    -0.069 C 
ATOM     24  C   UNL     1       9.298   3.670  -5.421  0.00  0.00    -0.017 C 
ATOM     25  C   UNL     1       8.947   4.285  -4.065  0.00  0.00    -0.017 C 
ENDBRANCH  20  23
ENDBRANCH  16  17
ENDBRANCH  14  16
ENDBRANCH   1  14
TORSDOF 6
