REMARK  Name = ZINC23240320
REMARK  4 active torsions:
REMARK  status: ('A' for Active; 'I' for Inactive)
REMARK    1  A    between atoms: C_4  and  N_7
REMARK    2  A    between atoms: C_8  and  C_22
REMARK    3  A    between atoms: C_10  and  C_12
REMARK    4  A    between atoms: N_14  and  C_15
REMARK                            x       y       z     vdW  Elec       q    Type
REMARK                         _______ _______ _______ _____ _____    ______ ____
ROOT
ATOM      1  N   UNL     1       3.622  -0.651  -0.036  0.00  0.00    -0.211 N 
ATOM      2  C   UNL     1       3.906  -1.838   0.577  0.00  0.00    +0.171 A 
ATOM      3  N   UNL     1       5.163  -2.135   0.318  0.00  0.00    -0.202 NA
ATOM      4  C   UNL     1       5.707  -1.178  -0.445  0.00  0.00    +0.238 A 
ATOM      5  N   UNL     1       4.800  -0.254  -0.691  0.00  0.00    -0.139 NA
ENDROOT
BRANCH   1   9
ATOM      6  C   UNL     1      -0.017   1.379   0.010  0.00  0.00    +0.000 A 
ATOM      7  C   UNL     1       1.170   2.089   0.002  0.00  0.00    +0.002 A 
ATOM      8  C   UNL     1       2.377   1.420  -0.013  0.00  0.00    +0.028 A 
ATOM      9  C   UNL     1       2.400   0.031  -0.021  0.00  0.00    +0.068 A 
ATOM     10  C   UNL     1       1.206  -0.680  -0.013  0.00  0.00    +0.028 A 
ATOM     11  C   UNL     1       0.002  -0.004   0.002  0.00  0.00    +0.002 A 
ENDBRANCH   1   9
BRANCH   2  12
ATOM     12  C   UNL     1       2.974  -2.642   1.384  0.00  0.00    +0.056 A 
ATOM     13  C   UNL     1       3.091  -3.946   1.797  0.00  0.00    +0.019 A 
ATOM     14  C   UNL     1       2.080  -4.492   2.553  0.00  0.00    +0.008 A 
ATOM     15  C   UNL     1       1.001  -3.727   2.869  0.00  0.00    +0.046 A 
ATOM     16  S   UNL     1       1.402  -2.173   2.087  0.00  0.00    -0.094 S 
ENDBRANCH   2  12
BRANCH   4  17
ATOM     17  C   UNL     1       7.100  -1.163  -0.939  0.00  0.00    +0.288 C 
ATOM     18  O   UNL     1       7.491  -0.241  -1.627  0.00  0.00    -0.266 OA
ATOM     19  N   UNL     1       7.937  -2.172  -0.625  0.00  0.00    -0.261 N 
ATOM     20  H   UNL     1       7.625  -2.907  -0.075  0.00  0.00    +0.157 HD
BRANCH  19  21
ATOM     21  C   UNL     1       9.252  -2.158  -1.090  0.00  0.00    +0.173 A 
ATOM     22  C   UNL     1      10.113  -3.204  -0.761  0.00  0.00    +0.219 A 
ATOM     23  C   UNL     1      11.418  -3.175  -1.233  0.00  0.00    +0.056 A 
ATOM     24  C   UNL     1      11.815  -2.100  -2.015  0.00  0.00    +0.024 A 
ATOM     25  C   UNL     1      10.907  -1.099  -2.300  0.00  0.00    +0.113 A 
ATOM     26  N   UNL     1       9.670  -1.154  -1.843  0.00  0.00    -0.236 NA
ATOM     27  O   UNL     1       9.680  -4.238   0.009  0.00  0.00    -0.284 OA
ENDBRANCH  19  21
ENDBRANCH   4  17
TORSDOF 4
