REMARK  Name = ZINC09331328
REMARK  8 active torsions:
REMARK  status: ('A' for Active; 'I' for Inactive)
REMARK    1  A    between atoms: C_1  and  O_2
REMARK    2  A    between atoms: O_2  and  C_3
REMARK    3  A    between atoms: C_6  and  N_9
REMARK    4  A    between atoms: C_12  and  C_18
REMARK    5  A    between atoms: C_13  and  O_17
REMARK    6  A    between atoms: C_15  and  O_16
REMARK    7  A    between atoms: C_24  and  O_30
REMARK    8  A    between atoms: O_30  and  C_31
REMARK                            x       y       z     vdW  Elec       q    Type
REMARK                         _______ _______ _______ _____ _____    ______ ____
ROOT
ATOM      1  N   UNL     1       2.368   0.080  -0.020  0.00  0.00    -0.231 N 
ATOM      2  C   UNL     1       1.283  -0.560  -0.505  0.00  0.00    +0.267 A 
ATOM      3  O   UNL     1       1.380  -1.689  -0.959  0.00  0.00    -0.267 OA
ATOM      4  C   UNL     1       0.045   0.093  -0.478  0.00  0.00    +0.071 A 
ATOM      5  C   UNL     1      -0.020   1.373   0.046  0.00  0.00    +0.224 A 
ATOM      6  N   UNL     1       1.089   1.957   0.512  0.00  0.00    -0.161 NA
ATOM      7  C   UNL     1       2.248   1.338   0.483  0.00  0.00    +0.306 A 
ENDROOT
BRANCH   4   8
ATOM      8  C   UNL     1      -1.192  -0.583  -1.009  0.00  0.00    +0.018 C 
ATOM      9  C   UNL     1      -1.046  -0.816  -2.494  0.00  0.00    +0.011 A 
ATOM     10  C   UNL     1      -1.396  -1.975  -3.096  0.00  0.00    -0.022 A 
ATOM     11  C   UNL     1      -1.114  -1.827  -4.507  0.00  0.00    +0.006 A 
ATOM     12  C   UNL     1      -1.268  -2.684  -5.602  0.00  0.00    +0.056 A 
ATOM     13  C   UNL     1      -0.883  -2.191  -6.840  0.00  0.00    +0.121 A 
ATOM     14  C   UNL     1      -0.368  -0.909  -6.990  0.00  0.00    +0.047 A 
ATOM     15  C   UNL     1      -0.208  -0.049  -5.919  0.00  0.00    +0.030 A 
ATOM     16  C   UNL     1      -0.587  -0.519  -4.664  0.00  0.00    +0.047 A 
ATOM     17  N   UNL     1      -0.561   0.061  -3.425  0.00  0.00    -0.359 N 
ATOM     18  H   UNL     1      -0.247   0.959  -3.236  0.00  0.00    +0.166 HD
ATOM     19  C   UNL     1      -1.973  -3.156  -2.356  0.00  0.00    +0.018 C 
ATOM     20  C   UNL     1      -2.438  -2.670  -0.977  0.00  0.00    -0.076 C 
ATOM     21  N   UNL     1      -1.361  -1.888  -0.333  0.00  0.00    +0.388 N 
ATOM     22  H   UNL     1      -1.602  -1.730   0.652  0.00  0.00    -0.084 HD
ATOM     23  H   UNL     1      -0.482  -2.415  -0.390  0.00  0.00    -0.084 HD
BRANCH  13  24
ATOM     24  O   UNL     1      -1.013  -2.985  -7.936  0.00  0.00    -0.495 OA
ATOM     25  C   UNL     1      -0.603  -2.433  -9.189  0.00  0.00    +0.277 C 
ENDBRANCH  13  24
ENDBRANCH   4   8
BRANCH   1  29
ATOM     26  C   UNL     1       6.091  -1.799  -0.067  0.00  0.00    +0.120 A 
ATOM     27  C   UNL     1       5.691  -1.027  -1.148  0.00  0.00    +0.047 A 
ATOM     28  C   UNL     1       4.458  -0.405  -1.133  0.00  0.00    +0.030 A 
ATOM     29  C   UNL     1       3.620  -0.552  -0.036  0.00  0.00    +0.055 A 
ATOM     30  C   UNL     1       4.024  -1.320   1.048  0.00  0.00    +0.030 A 
ATOM     31  C   UNL     1       5.254  -1.946   1.030  0.00  0.00    +0.047 A 
BRANCH  26  33
ATOM     32  C   UNL     1       7.653  -3.189   1.065  0.00  0.00    +0.277 C 
ATOM     33  O   UNL     1       7.305  -2.411  -0.082  0.00  0.00    -0.495 OA
ENDBRANCH  26  33
ENDBRANCH   1  29
BRANCH   7  34
ATOM     34  O   UNL     1       3.343   1.964   0.964  0.00  0.00    -0.479 OA
ATOM     35  H   UNL     1       3.220   2.857   1.314  0.00  0.00    +0.295 HD
ENDBRANCH   7  34
BRANCH   5  36
ATOM     36  O   UNL     1      -1.201   2.033   0.081  0.00  0.00    -0.492 OA
ATOM     37  H   UNL     1      -1.145   2.919   0.464  0.00  0.00    +0.294 HD
ENDBRANCH   5  36
TORSDOF 6
