REMARK  Name = ZINC06505242
REMARK  1 active torsions:
REMARK  status: ('A' for Active; 'I' for Inactive)
REMARK    1  A    between atoms: C_2  and  C_16
REMARK                            x       y       z     vdW  Elec       q    Type
REMARK                         _______ _______ _______ _____ _____    ______ ____
ROOT
ATOM      1  C   UNL     1      -1.233   0.958   2.171  0.00  0.00    +0.037 A 
ATOM      2  C   UNL     1      -0.722   1.881   1.250  0.00  0.00    +0.073 A 
ATOM      3  C   UNL     1      -0.857   3.208   1.475  0.00  0.00    +0.107 A 
ATOM      4  N   UNL     1      -1.496   3.663   2.586  0.00  0.00    -0.283 N 
ATOM      5  C   UNL     1      -2.005   2.794   3.503  0.00  0.00    +0.158 A 
ATOM      6  C   UNL     1      -1.870   1.407   3.291  0.00  0.00    +0.084 A 
ATOM      7 CL   UNL     1      -2.510   0.279   4.445  0.00  0.00    -0.080 Cl
ATOM      8  N   UNL     1      -2.631   3.217   4.604  0.00  0.00    -0.235 NA
ATOM      9  C   UNL     1      -2.780   4.510   4.844  0.00  0.00    +0.132 A 
ATOM     10  C   UNL     1      -2.286   5.428   3.952  0.00  0.00    +0.078 A 
ATOM     11  S   UNL     1      -2.243   7.200   3.844  0.00  0.00    -0.022 S 
ATOM     12  C   UNL     1      -1.365   7.301   2.289  0.00  0.00    +0.312 A 
ATOM     13  O   UNL     1      -1.021   8.292   1.662  0.00  0.00    -0.258 OA
ATOM     14  N   UNL     1      -1.184   6.015   1.991  0.00  0.00    -0.184 NA
ATOM     15  C   UNL     1      -1.616   5.037   2.773  0.00  0.00    +0.159 A 
ENDROOT
BRANCH   2  16
ATOM     16  C   UNL     1      -0.017   1.395   0.010  0.00  0.00    +0.419 C 
ATOM     17  F   UNL     1       0.002  -0.004   0.002  0.00  0.00    -0.166 F 
ATOM     18  F   UNL     1       1.296   1.879  -0.000  0.00  0.00    -0.166 F 
ATOM     19  F   UNL     1      -0.694   1.858  -1.124  0.00  0.00    -0.166 F 
ENDBRANCH   2  16
TORSDOF 1
