REMARK  Name = ZINC61702111
REMARK  5 active torsions:
REMARK  status: ('A' for Active; 'I' for Inactive)
REMARK    1  A    between atoms: C_1  and  C_2
REMARK    2  A    between atoms: C_5  and  S_9
REMARK    3  A    between atoms: C_7  and  N_8
REMARK    4  A    between atoms: S_9  and  C_10
REMARK    5  A    between atoms: C_16  and  N_18
REMARK                            x       y       z     vdW  Elec       q    Type
REMARK                         _______ _______ _______ _____ _____    ______ ____
ROOT
ATOM      1  S   UNL     1       0.062  -4.537  -0.031  0.00  0.00    -0.052 S 
ENDROOT
BRANCH   1   2
ATOM      2  C   UNL     1       1.770  -4.940  -0.192  0.00  0.00    +0.175 A 
ATOM      3  N   UNL     1       2.136  -6.243  -0.346  0.00  0.00    -0.302 N 
ATOM      4  H   UNL     1       1.459  -6.937  -0.366  0.00  0.00    +0.171 HD
ATOM      5  C   UNL     1       3.440  -6.570  -0.471  0.00  0.00    +0.254 A 
ATOM      6  O   UNL     1       3.777  -7.735  -0.610  0.00  0.00    -0.268 OA
ATOM      7  C   UNL     1       4.397  -5.551  -0.439  0.00  0.00    +0.113 A 
ATOM      8  C   UNL     1       3.972  -4.240  -0.280  0.00  0.00    +0.124 A 
ATOM      9  N   UNL     1       2.665  -3.975  -0.166  0.00  0.00    -0.209 NA
BRANCH   8  10
ATOM     10  N   UNL     1       4.893  -3.212  -0.244  0.00  0.00    -0.343 N 
ATOM     11  H   UNL     1       5.839  -3.406  -0.330  0.00  0.00    +0.144 HD
ATOM     12  H   UNL     1       4.593  -2.296  -0.133  0.00  0.00    +0.144 HD
ENDBRANCH   8  10
ENDBRANCH   1   2
BRANCH   1  17
ATOM     13  C   UNL     1      -0.020   1.503  -0.004  0.00  0.00    +0.045 C 
ATOM     14  C   UNL     1       0.001  -0.004  -0.008  0.00  0.00    -0.030 A 
ATOM     15  C   UNL     1       0.002  -0.690  -1.208  0.00  0.00    +0.006 A 
ATOM     16  C   UNL     1       0.021  -2.071  -1.217  0.00  0.00    +0.015 A 
ATOM     17  C   UNL     1       0.039  -2.776  -0.018  0.00  0.00    +0.017 A 
ATOM     18  C   UNL     1       0.038  -2.089   1.188  0.00  0.00    +0.038 A 
ATOM     19  C   UNL     1       0.025  -0.702   1.193  0.00  0.00    +0.029 A 
BRANCH  19  20
ATOM     20  N   UNL     1       0.030  -0.007   2.405  0.00  0.00    -0.358 N 
ATOM     21  H   UNL     1       0.017   0.963   2.408  0.00  0.00    +0.142 HD
ATOM     22  H   UNL     1       0.047  -0.494   3.243  0.00  0.00    +0.142 HD
ENDBRANCH  19  20
ENDBRANCH   1  17
TORSDOF 4
