REMARK  Name = ZINC09307061
REMARK  9 active torsions:
REMARK  status: ('A' for Active; 'I' for Inactive)
REMARK    1  A    between atoms: C_1  and  C_2
REMARK    2  A    between atoms: C_6  and  N_8
REMARK    3  A    between atoms: C_12  and  C_14
REMARK    4  A    between atoms: C_15  and  C_16
REMARK    5  A    between atoms: C_15  and  N_59
REMARK    6  A    between atoms: N_18  and  C_19
REMARK    7  A    between atoms: C_29  and  C_30
REMARK    8  A    between atoms: C_30  and  O_32
REMARK    9  A    between atoms: O_32  and  C_33
REMARK                            x       y       z     vdW  Elec       q    Type
REMARK                         _______ _______ _______ _____ _____    ______ ____
ROOT
ATOM      1  C   UNL     1      -6.165  -1.323   0.480  0.00  0.00    +0.201 C 
ATOM      2  O   UNL     1      -5.972  -0.258  -0.067  0.00  0.00    -0.278 OA
ATOM      3  N   UNL     1      -7.307  -1.533   1.163  0.00  0.00    -0.285 N 
ATOM      4  H   UNL     1      -7.429  -2.355   1.664  0.00  0.00    +0.155 HD
ENDROOT
BRANCH   3   5
ATOM      5  C   UNL     1      -8.312  -0.571   1.151  0.00  0.00    +0.075 A 
ATOM      6  C   UNL     1      -8.152   0.865   1.396  0.00  0.00    +0.040 A 
ATOM      7  C   UNL     1      -9.432   1.438   1.278  0.00  0.00    +0.050 A 
ATOM      8  C   UNL     1      -9.584   2.810   1.460  0.00  0.00    +0.026 A 
ATOM      9  C   UNL     1      -8.488   3.593   1.746  0.00  0.00    +0.003 A 
ATOM     10  C   UNL     1      -7.224   3.030   1.857  0.00  0.00    +0.021 A 
ATOM     11  C   UNL     1      -7.048   1.675   1.683  0.00  0.00    +0.052 A 
ATOM     12 CL   UNL     1      -5.465   0.976   1.824  0.00  0.00    -0.083 Cl
ATOM     13  N   UNL     1     -10.323   0.430   0.990  0.00  0.00    -0.347 N 
ATOM     14  H   UNL     1     -11.277   0.550   0.861  0.00  0.00    +0.166 HD
ATOM     15  C   UNL     1      -9.654  -0.783   0.912  0.00  0.00    +0.147 A 
BRANCH  15  16
ATOM     16  C   UNL     1     -10.253  -2.038   0.633  0.00  0.00    +0.357 C 
ATOM     17  O   UNL     1      -9.588  -3.055   0.689  0.00  0.00    -0.243 OA
BRANCH  16  18
ATOM     18  O   UNL     1     -11.560  -2.103   0.304  0.00  0.00    -0.463 OA
ATOM     19  C   UNL     1     -12.097  -3.400   0.035  0.00  0.00    +0.280 C 
ENDBRANCH  16  18
ENDBRANCH  15  16
ENDBRANCH   3   5
BRANCH   1  20
ATOM     20  C   UNL     1      -5.126  -2.412   0.396  0.00  0.00    +0.019 C 
BRANCH  20  27
ATOM     21  N   UNL     1      -2.314  -2.338  -2.756  0.00  0.00    -0.331 N 
ATOM     22  C   UNL     1      -1.804  -2.415  -1.379  0.00  0.00    +0.087 C 
ATOM     23  C   UNL     1      -2.916  -2.917  -0.454  0.00  0.00    -0.059 C 
ATOM     24  C   UNL     1      -4.575  -1.928  -1.913  0.00  0.00    -0.056 C 
ATOM     25  C   UNL     1      -3.464  -1.427  -2.838  0.00  0.00    +0.054 C 
ATOM     26  C   UNL     1      -3.979  -1.383  -4.278  0.00  0.00    +0.026 C 
ATOM     27  N   UNL     1      -4.057  -1.980  -0.529  0.00  0.00    +0.388 N 
ATOM     28  H   UNL     1      -3.738  -1.043  -0.257  0.00  0.00    -0.081 HD
BRANCH  21  34
ATOM     29  C   UNL     1       0.806  -3.489  -6.375  0.00  0.00    +0.044 C 
ATOM     30  C   UNL     1       0.226  -2.489  -5.407  0.00  0.00    -0.049 A 
ATOM     31  C   UNL     1       0.693  -1.187  -5.396  0.00  0.00    +0.003 A 
ATOM     32  C   UNL     1       0.164  -0.267  -4.510  0.00  0.00    +0.002 A 
ATOM     33  C   UNL     1      -0.834  -0.645  -3.633  0.00  0.00    +0.023 A 
ATOM     34  C   UNL     1      -1.305  -1.952  -3.642  0.00  0.00    +0.030 A 
ATOM     35  C   UNL     1      -0.771  -2.874  -4.533  0.00  0.00    +0.026 A 
ENDBRANCH  21  34
ENDBRANCH  20  27
ENDBRANCH   1  20
TORSDOF 6
