REMARK  Name = ZINC10751150
REMARK  6 active torsions:
REMARK  status: ('A' for Active; 'I' for Inactive)
REMARK    1  A    between atoms: C_1  and  N_54
REMARK    2  A    between atoms: C_7  and  N_12
REMARK    3  A    between atoms: C_8  and  C_9
REMARK    4  A    between atoms: C_13  and  C_15
REMARK    5  A    between atoms: N_20  and  S_22
REMARK    6  A    between atoms: S_22  and  C_25
REMARK                            x       y       z     vdW  Elec       q    Type
REMARK                         _______ _______ _______ _____ _____    ______ ____
ROOT
ATOM      1  N   UNL     1       0.585  -0.664  -1.018  0.00  0.00    -0.279 N 
ATOM      2  C   UNL     1       0.002  -0.004   0.002  0.00  0.00    +0.222 C 
ATOM      3  O   UNL     1      -0.506  -0.622   0.913  0.00  0.00    -0.275 OA
ATOM      4  H   UNL     1       0.992  -0.170  -1.747  0.00  0.00    +0.155 HD
ENDROOT
BRANCH   1  11
ATOM      5  C   UNL     1       0.290  -8.396  -0.805  0.00  0.00    -0.096 C 
ATOM      6  C   UNL     1       1.653  -6.719  -1.899  0.00  0.00    -0.074 C 
ATOM      7  C   UNL     1       1.576  -5.404  -2.680  0.00  0.00    +0.018 C 
ATOM      8  C   UNL     1       1.035  -4.328  -1.745  0.00  0.00    -0.027 A 
ATOM      9  C   UNL     1       0.395  -4.678  -0.607  0.00  0.00    -0.021 A 
ATOM     10  S   UNL     1      -0.050  -3.143   0.151  0.00  0.00    -0.079 S 
ATOM     11  C   UNL     1       0.604  -2.051  -1.026  0.00  0.00    +0.084 A 
ATOM     12  C   UNL     1       1.146  -2.901  -1.981  0.00  0.00    +0.068 A 
ATOM     13  C   UNL     1       0.135  -6.071  -0.126  0.00  0.00    -0.036 C 
ATOM     14  N   UNL     1       0.345  -6.993  -1.269  0.00  0.00    +0.381 N 
ATOM     15  H   UNL     1      -0.398  -6.841  -1.962  0.00  0.00    -0.082 HD
BRANCH  12  16
ATOM     16  C   UNL     1       1.808  -2.376  -3.179  0.00  0.00    +0.244 C 
ATOM     17  O   UNL     1       3.004  -2.149  -3.163  0.00  0.00    -0.270 OA
ATOM     18  N   UNL     1       1.093  -2.146  -4.298  0.00  0.00    -0.325 N 
ATOM     19  H   UNL     1       0.141  -2.327  -4.311  0.00  0.00    +0.145 HD
ATOM     20  H   UNL     1       1.532  -1.798  -5.090  0.00  0.00    +0.145 HD
ENDBRANCH  12  16
ENDBRANCH   1  11
BRANCH   2  21
ATOM     21  C   UNL     1      -0.018   1.503   0.010  0.00  0.00    +0.091 C 
ATOM     22  C   UNL     1      -0.760   2.010  -1.228  0.00  0.00    +0.015 C 
ATOM     23  C   UNL     1      -0.753   3.541  -1.238  0.00  0.00    +0.018 C 
ATOM     24  C   UNL     1      -1.480   4.059   0.008  0.00  0.00    +0.109 C 
ATOM     25  N   UNL     1      -0.863   3.460   1.199  0.00  0.00    -0.175 NA
ATOM     26  C   UNL     1      -0.737   1.998   1.270  0.00  0.00    +0.122 C 
BRANCH  25  27
ATOM     27  S   UNL     1      -0.319   4.414   2.438  0.00  0.00    +0.067 S 
ATOM     28  O   UNL     1      -1.046   5.633   2.361  0.00  0.00    -0.152 OA
ATOM     29  O   UNL     1      -0.313   3.603   3.604  0.00  0.00    -0.152 OA
BRANCH  27  30
ATOM     30  C   UNL     1       1.363   4.809   2.091  0.00  0.00    +0.143 A 
ATOM     31  C   UNL     1       1.868   5.859   1.398  0.00  0.00    +0.036 A 
ATOM     32  C   UNL     1       3.238   5.968   1.250  0.00  0.00    +0.010 A 
ATOM     33  C   UNL     1       4.037   5.022   1.804  0.00  0.00    +0.047 A 
ATOM     34  S   UNL     1       2.845   3.935   2.569  0.00  0.00    -0.077 S 
ENDBRANCH  27  30
ENDBRANCH  25  27
ENDBRANCH   2  21
TORSDOF 5
