REMARK  Name = ZINC19540246
REMARK  9 active torsions:
REMARK  status: ('A' for Active; 'I' for Inactive)
REMARK    1  A    between atoms: C_1  and  C_2
REMARK    2  A    between atoms: C_2  and  C_4
REMARK    3  A    between atoms: C_2  and  N_17
REMARK    4  A    between atoms: C_4  and  C_6
REMARK    5  A    between atoms: C_7  and  N_16
REMARK    6  A    between atoms: N_8  and  C_15
REMARK    7  A    between atoms: N_11  and  C_14
REMARK    8  A    between atoms: N_20  and  C_23
REMARK    9  A    between atoms: C_23  and  C_24
REMARK                            x       y       z     vdW  Elec       q    Type
REMARK                         _______ _______ _______ _____ _____    ______ ____
ROOT
ATOM      1  C   UNL     1      -0.031   1.613  -0.014  0.00  0.00    +0.032 C 
ATOM      2  C   UNL     1      -0.055   0.084  -0.048  0.00  0.00    +0.125 C 
ENDROOT
BRANCH   2   3
ATOM      3  N   UNL     1       0.582  -0.388  -1.285  0.00  0.00    -0.296 NA
ATOM      4  C   UNL     1       0.011   0.284  -2.461  0.00  0.00    +0.066 C 
ATOM      5  C   UNL     1       0.740  -0.190  -3.720  0.00  0.00    -0.063 C 
ATOM      6  N   UNL     1       0.597  -1.646  -3.850  0.00  0.00    +0.384 N 
ATOM      7  C   UNL     1       1.194  -2.304  -2.680  0.00  0.00    -0.063 C 
ATOM      8  C   UNL     1       0.468  -1.848  -1.412  0.00  0.00    +0.066 C 
ATOM      9  H   UNL     1      -0.382  -1.883  -3.907  0.00  0.00    -0.081 HD
BRANCH   6  10
ATOM     10  C   UNL     1       1.282  -2.098  -5.068  0.00  0.00    -0.036 C 
BRANCH  10  11
ATOM     11  C   UNL     1       1.033  -3.571  -5.267  0.00  0.00    -0.027 A 
ATOM     12  C   UNL     1       0.035  -4.183  -5.950  0.00  0.00    +0.009 A 
ATOM     13  C   UNL     1       0.005  -5.564  -6.001  0.00  0.00    +0.008 A 
ATOM     14  C   UNL     1       0.975  -6.265  -5.365  0.00  0.00    +0.045 A 
ATOM     15  S   UNL     1       1.979  -4.962  -4.671  0.00  0.00    -0.103 S 
ENDBRANCH  10  11
ENDBRANCH   6  10
ENDBRANCH   2   3
BRANCH   2  16
ATOM     16  C   UNL     1       0.696  -0.457   1.141  0.00  0.00    +0.188 C 
ATOM     17  O   UNL     1       1.811  -0.918   0.998  0.00  0.00    -0.290 OA
BRANCH  16  18
ATOM     18  C   UNL     1       0.104  -0.428   2.422  0.00  0.00    +0.121 A 
ATOM     19  C   UNL     1       0.829  -0.809   3.565  0.00  0.00    +0.116 A 
ATOM     20  N   UNL     1       0.213  -0.764   4.783  0.00  0.00    -0.284 N 
ATOM     21  C   UNL     1      -1.063  -0.365   4.905  0.00  0.00    +0.333 A 
ATOM     22  O   UNL     1      -1.566  -0.343   6.012  0.00  0.00    -0.246 OA
ATOM     23  N   UNL     1      -1.804   0.009   3.850  0.00  0.00    -0.263 N 
ATOM     24  C   UNL     1      -1.287   0.006   2.604  0.00  0.00    +0.269 A 
ATOM     25  O   UNL     1      -1.960   0.351   1.651  0.00  0.00    -0.267 OA
ATOM     26  C   UNL     1      -3.192   0.433   4.056  0.00  0.00    +0.157 C 
ATOM     27  C   UNL     1       0.960  -1.158   5.980  0.00  0.00    +0.155 C 
BRANCH  19  28
ATOM     28  N   UNL     1       2.123  -1.216   3.459  0.00  0.00    -0.344 N 
ATOM     29  H   UNL     1       2.528  -1.322   2.584  0.00  0.00    +0.144 HD
ATOM     30  H   UNL     1       2.640  -1.400   4.258  0.00  0.00    +0.144 HD
ENDBRANCH  19  28
ENDBRANCH  16  18
ENDBRANCH   2  16
TORSDOF 6
