REMARK  Name = ZINC59170651
REMARK  8 active torsions:
REMARK  status: ('A' for Active; 'I' for Inactive)
REMARK    1  A    between atoms: C_1  and  C_2
REMARK    2  A    between atoms: C_2  and  C_3
REMARK    3  A    between atoms: C_8  and  N_9
REMARK    4  A    between atoms: C_10  and  C_12
REMARK    5  A    between atoms: C_16  and  N_33
REMARK    6  A    between atoms: N_22  and  C_23
REMARK    7  A    between atoms: C_26  and  S_29
REMARK    8  A    between atoms: S_29  and  N_32
REMARK                            x       y       z     vdW  Elec       q    Type
REMARK                         _______ _______ _______ _____ _____    ______ ____
ROOT
ATOM      1  C   UNL     1      -3.428  -0.413   3.663  0.00  0.00    +0.098 A 
ATOM      2  C   UNL     1      -4.116  -0.545   4.862  0.00  0.00    +0.030 A 
ATOM      3  C   UNL     1      -5.548  -0.239   4.854  0.00  0.00    +0.020 A 
ATOM      4  C   UNL     1      -6.256  -0.087   6.052  0.00  0.00    +0.044 A 
ATOM      5  C   UNL     1      -7.591   0.202   6.019  0.00  0.00    +0.127 A 
ATOM      6  C   UNL     1      -8.251   0.347   4.807  0.00  0.00    +0.036 A 
ATOM      7  C   UNL     1      -7.572   0.200   3.614  0.00  0.00    +0.049 A 
ATOM      8  C   UNL     1      -6.217  -0.096   3.624  0.00  0.00    +0.138 A 
ATOM      9  O   UNL     1      -5.535  -0.251   2.463  0.00  0.00    -0.439 OA
ATOM     10  C   UNL     1      -4.205   0.031   2.488  0.00  0.00    +0.212 A 
ATOM     11  N   UNL     1      -3.627   0.675   1.497  0.00  0.00    -0.325 N 
ATOM     12  H   UNL     1      -2.706   0.968   1.581  0.00  0.00    +0.169 HD
ENDROOT
BRANCH  11  13
ATOM     13  C   UNL     1      -4.323   0.930   0.348  0.00  0.00    +0.042 A 
ATOM     14  C   UNL     1      -5.104  -0.071  -0.236  0.00  0.00    +0.027 A 
ATOM     15  C   UNL     1      -5.804   0.194  -1.394  0.00  0.00    +0.030 A 
ATOM     16  C   UNL     1      -5.735   1.447  -1.978  0.00  0.00    +0.105 A 
ATOM     17  C   UNL     1      -4.963   2.442  -1.405  0.00  0.00    +0.030 A 
ATOM     18  C   UNL     1      -4.262   2.194  -0.243  0.00  0.00    +0.027 A 
BRANCH  16  19
ATOM     19  S   UNL     1      -6.632   1.775  -3.458  0.00  0.00    +0.056 S 
ATOM     20  O   UNL     1      -5.970   2.854  -4.104  0.00  0.00    -0.153 OA
ATOM     21  O   UNL     1      -6.842   0.521  -4.093  0.00  0.00    -0.153 OA
BRANCH  19  22
ATOM     22  N   UNL     1      -8.125   2.335  -3.012  0.00  0.00    -0.204 NA
ATOM     23  H   UNL     1      -8.600   2.959  -3.583  0.00  0.00    +0.144 HD
ATOM     24  H   UNL     1      -8.525   2.040  -2.179  0.00  0.00    +0.144 HD
ENDBRANCH  19  22
ENDBRANCH  16  19
ENDBRANCH  11  13
BRANCH   1  26
ATOM     25  N   UNL     1      -1.371  -0.665   2.370  0.00  0.00    -0.281 N 
ATOM     26  C   UNL     1      -1.987  -0.697   3.568  0.00  0.00    +0.253 C 
ATOM     27  O   UNL     1      -1.352  -0.961   4.571  0.00  0.00    -0.270 OA
ATOM     28  H   UNL     1      -1.867  -0.408   1.576  0.00  0.00    +0.155 HD
BRANCH  25  34
ATOM     29  C   UNL     1       0.513  -1.398   1.049  0.00  0.00    -0.026 A 
ATOM     30  C   UNL     1       1.852  -1.724   0.953  0.00  0.00    +0.005 A 
ATOM     31  C   UNL     1       2.663  -1.662   2.071  0.00  0.00    +0.000 A 
ATOM     32  C   UNL     1       2.136  -1.273   3.290  0.00  0.00    +0.002 A 
ATOM     33  C   UNL     1       0.798  -0.946   3.393  0.00  0.00    +0.023 A 
ATOM     34  C   UNL     1      -0.017  -1.001   2.270  0.00  0.00    +0.037 A 
BRANCH  29  36
ATOM     35  C   UNL     1      -0.449  -0.084  -0.821  0.00  0.00    +0.009 C 
ATOM     36  C   UNL     1      -0.369  -1.466  -0.170  0.00  0.00    +0.033 C 
ENDBRANCH  29  36
ENDBRANCH  25  34
ENDBRANCH   1  26
BRANCH   5  37
ATOM     37  N   UNL     1      -8.339   0.362   7.286  0.00  0.00    +0.056 N 
ATOM     38  O   UNL     1      -7.769   0.237   8.345  0.00  0.00    -0.126 OA
ATOM     39  O   UNL     1      -9.521   0.617   7.262  0.00  0.00    -0.126 OA
ENDBRANCH   5  37
TORSDOF 7
