REMARK  Name = ZINC40757641
REMARK  7 active torsions:
REMARK  status: ('A' for Active; 'I' for Inactive)
REMARK    1  A    between atoms: C_4  and  N_7
REMARK    2  A    between atoms: N_7  and  N_8
REMARK    3  A    between atoms: C_10  and  N_29
REMARK    4  A    between atoms: C_11  and  N_15
REMARK    5  A    between atoms: N_15  and  C_16
REMARK    6  A    between atoms: C_19  and  O_22
REMARK    7  A    between atoms: O_22  and  C_23
REMARK                            x       y       z     vdW  Elec       q    Type
REMARK                         _______ _______ _______ _____ _____    ______ ____
ROOT
ATOM      1  N   UNL     1       2.743  -3.934   2.068  0.00  0.00    -0.249 N 
ATOM      2  C   UNL     1       4.026  -4.307   1.686  0.00  0.00    +0.161 A 
ATOM      3  C   UNL     1       4.282  -5.603   1.233  0.00  0.00    +0.105 A 
ATOM      4  C   UNL     1       5.588  -5.926   0.861  0.00  0.00    +0.126 A 
ATOM      5  N   UNL     1       6.533  -4.992   0.952  0.00  0.00    -0.333 N 
ATOM      6  C   UNL     1       6.249  -3.781   1.385  0.00  0.00    +0.200 A 
ATOM      7  N   UNL     1       5.029  -3.434   1.741  0.00  0.00    -0.219 NA
ATOM      8  H   UNL     1       2.018  -4.576   2.025  0.00  0.00    +0.172 HD
ATOM      9  H   UNL     1       7.443  -5.208   0.695  0.00  0.00    +0.168 HD
ENDROOT
BRANCH   3  10
ATOM     10  N   UNL     1       3.253  -6.556   1.154  0.00  0.00    -0.353 N 
ATOM     11  H   UNL     1       2.350  -6.317   1.416  0.00  0.00    +0.143 HD
ATOM     12  H   UNL     1       3.445  -7.452   0.837  0.00  0.00    +0.143 HD
ENDBRANCH   3  10
BRANCH   1  13
ATOM     13  N   UNL     1       2.498  -2.629   2.516  0.00  0.00    -0.265 N 
ATOM     14  H   UNL     1       3.223  -1.987   2.559  0.00  0.00    +0.170 HD
BRANCH  13  18
ATOM     15  C   UNL     1      -1.346  -1.509   3.661  0.00  0.00    +0.000 A 
ATOM     16  C   UNL     1      -0.313  -0.592   3.723  0.00  0.00    +0.002 A 
ATOM     17  C   UNL     1       0.963  -0.960   3.344  0.00  0.00    +0.024 A 
ATOM     18  C   UNL     1       1.208  -2.254   2.900  0.00  0.00    +0.044 A 
ATOM     19  C   UNL     1       0.168  -3.172   2.839  0.00  0.00    +0.024 A 
ATOM     20  C   UNL     1      -1.105  -2.798   3.219  0.00  0.00    +0.002 A 
ENDBRANCH  13  18
ENDBRANCH   1  13
BRANCH   4  21
ATOM     21  N   UNL     1       5.897  -7.201   0.403  0.00  0.00    -0.299 N 
ATOM     22  H   UNL     1       5.189  -7.849   0.257  0.00  0.00    +0.154 HD
BRANCH  21  23
ATOM     23  C   UNL     1       7.229  -7.552   0.153  0.00  0.00    +0.033 A 
ATOM     24  C   UNL     1       7.548  -8.321  -0.958  0.00  0.00    +0.027 A 
ATOM     25  C   UNL     1       8.862  -8.666  -1.204  0.00  0.00    +0.048 A 
ATOM     26  C   UNL     1       9.864  -8.245  -0.341  0.00  0.00    +0.129 A 
ATOM     27  C   UNL     1       9.545  -7.476   0.769  0.00  0.00    +0.048 A 
ATOM     28  C   UNL     1       8.232  -7.125   1.013  0.00  0.00    +0.027 A 
BRANCH  26  29
ATOM     29  O   UNL     1      11.157  -8.585  -0.583  0.00  0.00    -0.456 OA
BRANCH  29  30
ATOM     30  C   UNL     1      11.441  -9.227  -1.747  0.00  0.00    +0.128 A 
ATOM     31  C   UNL     1      11.552  -8.508  -2.928  0.00  0.00    +0.046 A 
ATOM     32  C   UNL     1      11.840  -9.162  -4.110  0.00  0.00    +0.004 A 
ATOM     33  C   UNL     1      12.018 -10.534  -4.116  0.00  0.00    +0.000 A 
ATOM     34  C   UNL     1      11.908 -11.253  -2.941  0.00  0.00    +0.004 A 
ATOM     35  C   UNL     1      11.626 -10.602  -1.755  0.00  0.00    +0.046 A 
ENDBRANCH  29  30
ENDBRANCH  26  29
ENDBRANCH  21  23
ENDBRANCH   4  21
TORSDOF 7
