REMARK  Name = ZINC63795266
REMARK  5 active torsions:
REMARK  status: ('A' for Active; 'I' for Inactive)
REMARK    1  A    between atoms: C_1  and  C_2
REMARK    2  A    between atoms: C_7  and  C_9
REMARK    3  A    between atoms: C_9  and  C_10
REMARK    4  A    between atoms: C_10  and  C_16
REMARK    5  A    between atoms: C_16  and  N_17
REMARK                            x       y       z     vdW  Elec       q    Type
REMARK                         _______ _______ _______ _____ _____    ______ ____
ROOT
ATOM      1  C   UNL     1       0.181  -7.535  -0.642  0.00  0.00    -0.007 C 
ATOM      2  C   UNL     1      -1.230  -7.306  -1.186  0.00  0.00    +0.009 C 
ATOM      3  C   UNL     1      -2.257  -7.753  -0.143  0.00  0.00    +0.001 C 
ATOM      4  C   UNL     1      -2.061  -9.240   0.161  0.00  0.00    +0.000 C 
ATOM      5  C   UNL     1      -0.649  -9.468   0.704  0.00  0.00    +0.001 C 
ATOM      6  C   UNL     1       0.377  -9.021  -0.339  0.00  0.00    +0.009 C 
ENDROOT
BRANCH   1   7
ATOM      7  C   UNL     1       0.371  -6.723   0.641  0.00  0.00    +0.104 C 
BRANCH   7  14
ATOM      8  C   UNL     1      -0.730   1.022   1.144  0.00  0.00    +0.075 C 
ATOM      9  C   UNL     1      -0.530  -0.461   0.963  0.00  0.00    +0.101 A 
ATOM     10  N   UNL     1      -0.561  -1.190  -0.135  0.00  0.00    -0.145 NA
ATOM     11  N   UNL     1      -0.363  -2.435  -0.052  0.00  0.00    -0.126 NA
ATOM     12  C   UNL     1      -0.126  -3.027   1.102  0.00  0.00    +0.188 A 
ATOM     13  N   UNL     1       0.110  -4.372   1.365  0.00  0.00    -0.263 N 
ATOM     14  C   UNL     1       0.115  -5.265   0.356  0.00  0.00    +0.219 C 
ATOM     15  O   UNL     1      -0.087  -4.896  -0.782  0.00  0.00    -0.275 OA
ATOM     16  S   UNL     1      -0.176  -1.727   2.174  0.00  0.00    -0.036 S 
ATOM     17  H   UNL     1       0.272  -4.667   2.275  0.00  0.00    +0.157 HD
ENDBRANCH   7  14
ENDBRANCH   1   7
BRANCH   1  18
ATOM     18  C   UNL     1       1.208  -7.088  -1.685  0.00  0.00    +0.109 C 
BRANCH  18  19
ATOM     19  N   UNL     1       1.041  -7.883  -2.909  0.00  0.00    -0.242 NA
ATOM     20  C   UNL     1       2.202  -7.716  -3.813  0.00  0.00    +0.168 C 
ATOM     21  N   UNL     1       1.602  -7.741  -5.173  0.00  0.00    -0.335 NA
ATOM     22  N   UNL     1       0.331  -7.026  -4.982  0.00  0.00    +0.408 N 
ATOM     23  N   UNL     1      -0.136  -7.449  -3.659  0.00  0.00    -0.281 NA
ATOM     24  H   UNL     1       2.191  -7.261  -5.837  0.00  0.00    +0.105 HD
ATOM     25  H   UNL     1       0.483  -6.028  -4.998  0.00  0.00    -0.032 HD
ATOM     26  H   UNL     1      -0.610  -6.695  -3.185  0.00  0.00    +0.121 HD
ATOM     27  H   UNL     1      -0.334  -7.293  -5.692  0.00  0.00    -0.032 HD
ENDBRANCH  18  19
ENDBRANCH   1  18
TORSDOF 4
