REMARK  Name = ZINC06244762
REMARK  11 active torsions:
REMARK  status: ('A' for Active; 'I' for Inactive)
REMARK    1  A    between atoms: C_1  and  C_2
REMARK    2  A    between atoms: C_5  and  C_38
REMARK    3  A    between atoms: C_9  and  C_14
REMARK    4  A    between atoms: C_14  and  C_16
REMARK    5  A    between atoms: C_14  and  N_71
REMARK    6  A    between atoms: N_20  and  C_21
REMARK    7  A    between atoms: C_21  and  C_22
REMARK    8  A    between atoms: C_21  and  C_23
REMARK    9  A    between atoms: C_21  and  C_24
REMARK   10  A    between atoms: N_27  and  C_30
REMARK   11  A    between atoms: C_35  and  C_36
REMARK                            x       y       z     vdW  Elec       q    Type
REMARK                         _______ _______ _______ _____ _____    ______ ____
ROOT
ATOM      1  C   UNL     1       3.709   1.648   3.794  0.00  0.00    +0.039 C 
ENDROOT
BRANCH   1  10
ATOM      2  C   UNL     1       0.621   5.770   4.567  0.00  0.00    +0.044 C 
ATOM      3  C   UNL     1      -0.268   4.559   4.452  0.00  0.00    -0.041 A 
ATOM      4  C   UNL     1      -1.624   4.691   4.559  0.00  0.00    +0.004 A 
ATOM      5  C   UNL     1      -2.453   3.583   4.450  0.00  0.00    +0.005 A 
ATOM      6  C   UNL     1      -1.924   2.327   4.240  0.00  0.00    -0.026 A 
ATOM      7  C   UNL     1      -0.547   2.167   4.132  0.00  0.00    +0.052 A 
ATOM      8  C   UNL     1       0.290   3.295   4.239  0.00  0.00    +0.002 A 
ATOM      9  C   UNL     1       1.739   3.116   4.124  0.00  0.00    +0.018 A 
ATOM     10  C   UNL     1       2.223   1.867   3.918  0.00  0.00    +0.011 A 
ATOM     11  C   UNL     1       1.341   0.770   3.818  0.00  0.00    +0.251 A 
ATOM     12  O   UNL     1       1.797  -0.345   3.632  0.00  0.00    -0.268 OA
ATOM     13  N   UNL     1       0.009   0.923   3.922  0.00  0.00    -0.322 N 
ATOM     14  H   UNL     1      -0.569   0.148   3.848  0.00  0.00    +0.169 HD
ATOM     15  C   UNL     1      -2.835   1.132   4.129  0.00  0.00    +0.046 C 
ENDBRANCH   1  10
BRANCH   1  21
ATOM     16  C   UNL     1       3.766   1.230   6.179  0.00  0.00    -0.058 C 
ATOM     17  C   UNL     1       4.183   0.214   7.245  0.00  0.00    +0.086 C 
ATOM     18  N   UNL     1       5.635   0.002   7.174  0.00  0.00    -0.333 N 
ATOM     19  C   UNL     1       6.029  -0.494   5.848  0.00  0.00    +0.086 C 
ATOM     20  C   UNL     1       5.612   0.523   4.782  0.00  0.00    -0.058 C 
ATOM     21  N   UNL     1       4.147   0.710   4.849  0.00  0.00    +0.391 N 
ATOM     22  H   UNL     1       3.688  -0.197   4.701  0.00  0.00    -0.080 HD
BRANCH  18  23
ATOM     23  C   UNL     1       6.064  -0.867   8.181  0.00  0.00    +0.034 A 
ATOM     24  C   UNL     1       5.619  -2.183   8.200  0.00  0.00    +0.043 A 
ATOM     25  C   UNL     1       6.048  -3.041   9.195  0.00  0.00    +0.043 A 
ATOM     26  C   UNL     1       6.912  -2.587  10.176  0.00  0.00    +0.020 A 
ATOM     27  C   UNL     1       7.353  -1.276  10.162  0.00  0.00    +0.006 A 
ATOM     28  C   UNL     1       6.931  -0.415   9.167  0.00  0.00    -0.029 A 
ATOM     29  C   UNL     1       7.412   1.013   9.153  0.00  0.00    +0.045 C 
ATOM     30 CL   UNL     1       5.497  -4.687   9.218  0.00  0.00    -0.083 Cl
ENDBRANCH  18  23
ENDBRANCH   1  21
BRANCH   1  31
ATOM     31  C   UNL     1       4.424   2.968   3.932  0.00  0.00    +0.143 A 
ATOM     32  N   UNL     1       4.572   3.667   5.031  0.00  0.00    -0.115 NA
ATOM     33  N   UNL     1       5.239   4.730   4.740  0.00  0.00    -0.023 NA
ATOM     34  N   UNL     1       5.520   4.728   3.483  0.00  0.00    -0.043 NA
ATOM     35  N   UNL     1       5.039   3.655   2.952  0.00  0.00    -0.225 N 
BRANCH  35  36
ATOM     36  C   UNL     1       5.141   3.260   1.544  0.00  0.00    +0.059 C 
ATOM     37  C   UNL     1       3.739   3.042   0.973  0.00  0.00    +0.036 C 
ATOM     38  C   UNL     1       5.847   4.364   0.755  0.00  0.00    +0.036 C 
ATOM     39  C   UNL     1       5.944   1.962   1.435  0.00  0.00    +0.036 C 
ENDBRANCH  35  36
ENDBRANCH   1  31
TORSDOF 5
