REMARK  Name = ZINC43328477
REMARK  6 active torsions:
REMARK  status: ('A' for Active; 'I' for Inactive)
REMARK    1  A    between atoms: C_1  and  C_2
REMARK    2  A    between atoms: C_5  and  N_9
REMARK    3  A    between atoms: N_12  and  C_13
REMARK    4  A    between atoms: C_13  and  C_14
REMARK    5  A    between atoms: C_14  and  C_16
REMARK    6  A    between atoms: C_14  and  N_21
REMARK                            x       y       z     vdW  Elec       q    Type
REMARK                         _______ _______ _______ _____ _____    ______ ____
ROOT
ATOM      1  N   UNL     1      -2.491  -4.974  -4.235  0.00  0.00    -0.268 N 
ATOM      2  C   UNL     1      -1.325  -5.305  -3.645  0.00  0.00    +0.304 C 
ATOM      3  O   UNL     1      -0.528  -4.437  -3.346  0.00  0.00    -0.253 OA
ATOM      4  N   UNL     1      -1.043  -6.597  -3.388  0.00  0.00    -0.300 N 
ATOM      5  H   UNL     1      -3.164  -5.654  -4.395  0.00  0.00    +0.156 HD
ATOM      6  H   UNL     1      -1.679  -7.290  -3.627  0.00  0.00    +0.150 HD
ENDROOT
BRANCH   1  11
ATOM      7  C   UNL     1      -3.464   0.398  -5.780  0.00  0.00    +0.044 C 
ATOM      8  C   UNL     1      -3.206  -1.029  -5.370  0.00  0.00    -0.049 A 
ATOM      9  C   UNL     1      -1.907  -1.488  -5.252  0.00  0.00    +0.005 A 
ATOM     10  C   UNL     1      -1.667  -2.796  -4.876  0.00  0.00    +0.025 A 
ATOM     11  C   UNL     1      -2.731  -3.649  -4.616  0.00  0.00    +0.049 A 
ATOM     12  C   UNL     1      -4.035  -3.184  -4.735  0.00  0.00    +0.039 A 
ATOM     13  C   UNL     1      -4.269  -1.873  -5.107  0.00  0.00    +0.020 A 
ATOM     14 BR   UNL     1      -5.489  -4.341  -4.383  0.00  0.00    -0.048 Br
ENDBRANCH   1  11
BRANCH   4  15
ATOM     15  C   UNL     1       0.224  -6.957  -2.747  0.00  0.00    +0.098 C 
BRANCH  15  16
ATOM     16  C   UNL     1       0.349  -8.481  -2.683  0.00  0.00    +0.016 C 
BRANCH  16  17
ATOM     17  N   UNL     1       1.608  -8.841  -2.018  0.00  0.00    +0.387 N 
ATOM     18  C   UNL     1       1.552  -8.472  -0.581  0.00  0.00    -0.078 C 
ATOM     19  C   UNL     1       2.629  -9.382   0.061  0.00  0.00    -0.020 C 
ATOM     20  C   UNL     1       2.480 -10.703  -0.727  0.00  0.00    -0.020 C 
ATOM     21  C   UNL     1       1.800 -10.307  -2.051  0.00  0.00    -0.078 C 
ATOM     22  H   UNL     1       2.384  -8.379  -2.467  0.00  0.00    -0.081 HD
ENDBRANCH  16  17
BRANCH  16  23
ATOM     23  C   UNL     1       0.340  -9.044  -4.081  0.00  0.00    +0.093 A 
ATOM     24  C   UNL     1      -0.720  -9.595  -4.700  0.00  0.00    +0.043 A 
ATOM     25  C   UNL     1      -0.284  -9.987  -5.987  0.00  0.00    +0.041 A 
ATOM     26  C   UNL     1       1.016  -9.653  -6.077  0.00  0.00    +0.195 A 
ATOM     27  O   UNL     1       1.387  -9.077  -4.922  0.00  0.00    -0.469 OA
ENDBRANCH  16  23
ENDBRANCH  15  16
ENDBRANCH   4  15
TORSDOF 5
