REMARK  Name = ZINC39943622
REMARK  6 active torsions:
REMARK  status: ('A' for Active; 'I' for Inactive)
REMARK    1  A    between atoms: C_6  and  N_10
REMARK    2  A    between atoms: N_11  and  C_12
REMARK    3  A    between atoms: C_14  and  P_24
REMARK    4  A    between atoms: C_16  and  O_23
REMARK    5  A    between atoms: C_18  and  C_21
REMARK    6  A    between atoms: C_21  and  O_22
REMARK                            x       y       z     vdW  Elec       q    Type
REMARK                         _______ _______ _______ _____ _____    ______ ____
ROOT
ATOM      1  C   UNL     1      -1.229  -0.683  -0.025  0.00  0.00    +0.226 C 
ATOM      2  C   UNL     1      -1.897  -0.811   1.362  0.00  0.00    +0.185 C 
ATOM      3  C   UNL     1      -3.134   0.111   1.270  0.00  0.00    +0.164 C 
ATOM      4  C   UNL     1      -3.066   0.687  -0.162  0.00  0.00    +0.175 C 
ATOM      5  O   UNL     1      -2.293  -0.278  -0.914  0.00  0.00    -0.350 OA
ENDROOT
BRANCH   1  15
ATOM      6  C   UNL     1      -0.340   1.778  -0.215  0.00  0.00    +0.253 C 
ATOM      7  N   UNL     1       0.992   2.377  -0.080  0.00  0.00    -0.256 NA
ATOM      8  C   UNL     1       1.842   1.445   0.185  0.00  0.00    +0.164 C 
ATOM      9  C   UNL     1       1.150   0.132   0.252  0.00  0.00    +0.158 C 
ATOM     10  N   UNL     1       1.872  -0.937   0.515  0.00  0.00    -0.198 NA
ATOM     11  C   UNL     1       3.188  -0.861   0.719  0.00  0.00    +0.226 C 
ATOM     12  N   UNL     1       3.889   0.257   0.681  0.00  0.00    -0.141 NA
ATOM     13  C   UNL     1       3.315   1.439   0.425  0.00  0.00    +0.291 C 
ATOM     14  O   UNL     1       3.968   2.467   0.391  0.00  0.00    -0.266 OA
ATOM     15  N   UNL     1      -0.176   0.335   0.008  0.00  0.00    -0.267 N 
BRANCH  11  16
ATOM     16  N   UNL     1       3.859  -2.026   0.988  0.00  0.00    -0.234 NA
ATOM     17  H   UNL     1       4.817  -2.009   1.142  0.00  0.00    +0.173 HD
ENDBRANCH  11  16
ENDBRANCH   1  15
BRANCH   2  18
ATOM     18  P   UNL     1      -0.765  -0.239   2.671  0.00  0.00    +0.396 P 
ATOM     19  O   UNL     1       0.548  -1.093   2.636  0.00  0.00    -0.253 OA
ATOM     20  O   UNL     1      -0.414   1.270   2.436  0.00  0.00    -0.138 OA
ATOM     21  O   UNL     1      -1.457  -0.402   4.068  0.00  0.00    -0.138 OA
ENDBRANCH   2  18
BRANCH   3  22
ATOM     22  O   UNL     1      -4.334  -0.642   1.453  0.00  0.00    -0.388 OA
ATOM     23  H   UNL     1      -5.142  -0.112   1.405  0.00  0.00    +0.210 HD
ENDBRANCH   3  22
BRANCH   4  24
ATOM     24  C   UNL     1      -4.473   0.819  -0.750  0.00  0.00    +0.190 C 
BRANCH  24  25
ATOM     25  O   UNL     1      -4.398   1.460  -2.025  0.00  0.00    -0.392 OA
ATOM     26  H   UNL     1      -5.255   1.577  -2.457  0.00  0.00    +0.210 HD
ENDBRANCH  24  25
ENDBRANCH   4  24
TORSDOF 6
