REMARK  Name = ZINC43284730
REMARK  8 active torsions:
REMARK  status: ('A' for Active; 'I' for Inactive)
REMARK    1  A    between atoms: C_1  and  C_2
REMARK    2  A    between atoms: C_2  and  C_4
REMARK    3  A    between atoms: C_2  and  N_22
REMARK    4  A    between atoms: C_4  and  C_6
REMARK    5  A    between atoms: C_4  and  N_12
REMARK    6  A    between atoms: C_17  and  C_19
REMARK    7  A    between atoms: C_19  and  C_20
REMARK    8  A    between atoms: C_20  and  O_21
REMARK                            x       y       z     vdW  Elec       q    Type
REMARK                         _______ _______ _______ _____ _____    ______ ____
ROOT
ATOM      1  C   UNL     1       0.666  -0.032   0.883  0.00  0.00    +0.079 C 
ENDROOT
BRANCH   1   2
ATOM      2  C   UNL     1       1.947   0.693   0.561  0.00  0.00    +0.006 A 
ATOM      3  C   UNL     1       2.998   0.277  -0.187  0.00  0.00    +0.028 A 
ATOM      4  C   UNL     1       4.081   1.122  -0.349  0.00  0.00    +0.025 A 
ATOM      5  C   UNL     1       4.059   2.340   0.246  0.00  0.00    +0.060 A 
ATOM      6  S   UNL     1       2.470   2.325   1.059  0.00  0.00    -0.099 S 
ATOM      7 BR   UNL     1       5.571   0.585  -1.383  0.00  0.00    -0.050 Br
ENDBRANCH   1   2
BRANCH   1   8
ATOM      8  N   UNL     1       0.241   0.305   2.248  0.00  0.00    -0.294 NA
ATOM      9  C   UNL     1      -1.197   0.069   2.425  0.00  0.00    +0.085 C 
ATOM     10  C   UNL     1      -1.630   0.567   3.807  0.00  0.00    +0.015 C 
ATOM     11  C   UNL     1      -0.835  -0.177   4.884  0.00  0.00    +0.003 C 
ATOM     12  C   UNL     1       0.661   0.046   4.647  0.00  0.00    +0.019 C 
ATOM     13  C   UNL     1       1.028  -0.436   3.242  0.00  0.00    +0.059 C 
BRANCH  13  14
ATOM     14  C   UNL     1       2.519  -0.197   2.994  0.00  0.00    +0.046 C 
BRANCH  14  15
ATOM     15  C   UNL     1       3.338  -0.979   4.022  0.00  0.00    +0.157 C 
BRANCH  15  16
ATOM     16  O   UNL     1       4.725  -0.674   3.857  0.00  0.00    -0.395 OA
ATOM     17  H   UNL     1       5.312  -1.192   4.425  0.00  0.00    +0.209 HD
ENDBRANCH  15  16
ENDBRANCH  14  15
ENDBRANCH  13  14
ENDBRANCH   1   8
BRANCH   1  19
ATOM     18  C   UNL     1      -0.683   1.890   0.030  0.00  0.00    -0.012 C 
ATOM     19  C   UNL     1      -0.422   0.389  -0.108  0.00  0.00    -0.056 C 
BRANCH  19  20
ATOM     20  N   UNL     1       0.022   0.093  -1.477  0.00  0.00    +0.381 N 
ATOM     21  H   UNL     1       0.871   0.602  -1.673  0.00  0.00    -0.090 HD
ATOM     22  H   UNL     1       0.195  -0.897  -1.568  0.00  0.00    -0.090 HD
ATOM     23  H   UNL     1      -0.695   0.370  -2.130  0.00  0.00    -0.090 HD
ENDBRANCH  19  20
ENDBRANCH   1  19
TORSDOF 7
