REMARK  Name = ZINC37822340
REMARK  10 active torsions:
REMARK  status: ('A' for Active; 'I' for Inactive)
REMARK    1  A    between atoms: C_1  and  C_2
REMARK    2  A    between atoms: C_2  and  C_3
REMARK    3  A    between atoms: C_3  and  C_4
REMARK    4  A    between atoms: C_4  and  C_5
REMARK    5  A    between atoms: C_5  and  C_7
REMARK    6  A    between atoms: C_5  and  N_22
REMARK    7  A    between atoms: N_9  and  C_10
REMARK    8  A    between atoms: N_9  and  C_18
REMARK    9  A    between atoms: C_10  and  C_11
REMARK   10  A    between atoms: C_18  and  C_19
REMARK                            x       y       z     vdW  Elec       q    Type
REMARK                         _______ _______ _______ _____ _____    ______ ____
ROOT
ATOM      1  C   UNL     1       1.369  -4.024  -2.595  0.00  0.00    +0.202 C 
ATOM      2  O   UNL     1       2.312  -4.702  -2.247  0.00  0.00    -0.277 OA
ATOM      3  N   UNL     1       0.243  -4.613  -3.045  0.00  0.00    -0.290 N 
ENDROOT
BRANCH   1   4
ATOM      4  C   UNL     1       1.455  -2.521  -2.524  0.00  0.00    +0.013 C 
BRANCH   4   5
ATOM      5  N   UNL     1       2.866  -2.113  -2.476  0.00  0.00    +0.386 N 
ATOM      6  H   UNL     1       3.338  -2.439  -3.307  0.00  0.00    -0.089 HD
ATOM      7  H   UNL     1       2.924  -1.107  -2.429  0.00  0.00    -0.089 HD
ATOM      8  H   UNL     1       3.304  -2.514  -1.661  0.00  0.00    -0.089 HD
ENDBRANCH   4   5
BRANCH   4   9
ATOM      9  C   UNL     1       0.739  -2.027  -1.265  0.00  0.00    -0.007 C 
BRANCH   9  10
ATOM     10  C   UNL     1       0.718  -0.497  -1.257  0.00  0.00    -0.001 C 
BRANCH  10  12
ATOM     11  C   UNL     1      -0.019   1.526   0.010  0.00  0.00    +0.004 C 
ATOM     12  C   UNL     1       0.002  -0.004   0.002  0.00  0.00    -0.003 C 
ENDBRANCH  10  12
ENDBRANCH   9  10
ENDBRANCH   4   9
ENDBRANCH   1   4
BRANCH   3  13
ATOM     13  C   UNL     1       0.159  -6.074  -3.113  0.00  0.00    +0.143 C 
BRANCH  13  14
ATOM     14  C   UNL     1      -0.382  -6.608  -1.812  0.00  0.00    -0.030 A 
ATOM     15  C   UNL     1       0.484  -6.932  -0.784  0.00  0.00    +0.006 A 
ATOM     16  C   UNL     1      -0.012  -7.421   0.409  0.00  0.00    +0.015 A 
ATOM     17  C   UNL     1      -1.375  -7.587   0.576  0.00  0.00    +0.018 A 
ATOM     18  C   UNL     1      -2.241  -7.263  -0.453  0.00  0.00    +0.015 A 
ATOM     19  C   UNL     1      -1.745  -6.769  -1.644  0.00  0.00    +0.006 A 
ATOM     20 BR   UNL     1      -2.054  -8.256   2.209  0.00  0.00    -0.050 Br
ENDBRANCH  13  14
ENDBRANCH   3  13
BRANCH   3  21
ATOM     21  C   UNL     1      -0.896  -3.793  -3.465  0.00  0.00    +0.203 C 
BRANCH  21  22
ATOM     22  C   UNL     1      -0.774  -3.479  -4.934  0.00  0.00    +0.228 C 
ATOM     23  O   UNL     1       0.171  -3.899  -5.567  0.00  0.00    -0.274 OA
ATOM     24  N   UNL     1      -1.716  -2.732  -5.543  0.00  0.00    -0.328 N 
ATOM     25  H   UNL     1      -2.471  -2.396  -5.037  0.00  0.00    +0.145 HD
ATOM     26  H   UNL     1      -1.637  -2.530  -6.489  0.00  0.00    +0.145 HD
ENDBRANCH  21  22
ENDBRANCH   3  21
TORSDOF 9
