REMARK  Name = ZINC27902987
REMARK  20 active torsions:
REMARK  status: ('A' for Active; 'I' for Inactive)
REMARK    1  A    between atoms: C_1  and  C_2
REMARK    2  A    between atoms: C_2  and  C_26
REMARK    3  A    between atoms: C_3  and  C_4
REMARK    4  A    between atoms: C_4  and  O_6
REMARK    5  A    between atoms: O_6  and  C_7
REMARK    6  A    between atoms: C_7  and  C_8
REMARK    7  A    between atoms: C_8  and  O_9
REMARK    8  A    between atoms: O_9  and  C_10
REMARK    9  A    between atoms: C_10  and  C_12
REMARK   10  A    between atoms: C_13  and  C_14
REMARK   11  A    between atoms: C_13  and  N_15
REMARK   12  A    between atoms: N_15  and  C_16
REMARK   13  A    between atoms: C_18  and  C_24
REMARK   14  A    between atoms: C_18  and  C_25
REMARK   15  A    between atoms: C_20  and  C_22
REMARK   16  A    between atoms: C_20  and  C_23
REMARK   17  A    between atoms: C_28  and  C_34
REMARK   18  A    between atoms: C_28  and  C_35
REMARK   19  A    between atoms: C_30  and  C_32
REMARK   20  A    between atoms: C_30  and  C_33
REMARK                            x       y       z     vdW  Elec       q    Type
REMARK                         _______ _______ _______ _____ _____    ______ ____
ROOT
ATOM      1  C   UNL     1      -2.868   0.632  -0.549  0.00  0.00    +0.273 C 
ENDROOT
BRANCH   1   2
ATOM      2  C   UNL     1      -4.145  -0.184  -0.342  0.00  0.00    +0.273 C 
BRANCH   2   3
ATOM      3  O   UNL     1      -4.336  -0.432   1.076  0.00  0.00    -0.458 OA
BRANCH   3   4
ATOM      4  C   UNL     1      -5.424  -1.145   1.432  0.00  0.00    +0.332 C 
ATOM      5  O   UNL     1      -6.192  -1.547   0.580  0.00  0.00    -0.246 OA
BRANCH   4   8
ATOM      6  C   UNL     1      -7.914  -2.233   2.199  0.00  0.00    +0.039 C 
ATOM      7  C   UNL     1      -6.820  -2.019   3.213  0.00  0.00    -0.063 C 
ATOM      8  C   UNL     1      -5.681  -1.434   2.849  0.00  0.00    +0.091 C 
BRANCH   7   9
ATOM      9  C   UNL     1      -7.016  -2.469   4.641  0.00  0.00    +0.012 C 
ATOM     10  C   UNL     1      -7.293  -3.971   4.663  0.00  0.00    -0.005 C 
ATOM     11  C   UNL     1      -7.518  -4.450   6.095  0.00  0.00    -0.073 C 
ATOM     12  N   UNL     1      -8.469  -3.635   6.822  0.00  0.00    +0.386 N 
ATOM     13  C   UNL     1      -8.456  -2.195   6.676  0.00  0.00    -0.073 C 
ATOM     14  C   UNL     1      -8.222  -1.744   5.237  0.00  0.00    -0.005 C 
ATOM     15  C   UNL     1      -7.405  -1.554   7.591  0.00  0.00    -0.010 C 
ATOM     16  C   UNL     1      -9.835  -1.654   7.115  0.00  0.00    -0.010 C 
ATOM     17  C   UNL     1      -6.173  -4.520   6.829  0.00  0.00    -0.010 C 
ATOM     18  C   UNL     1      -8.073  -5.890   6.022  0.00  0.00    -0.010 C 
ATOM     19  H   UNL     1      -9.491  -3.920   6.533  0.00  0.00    -0.084 HD
ATOM     20  H   UNL     1      -8.335  -3.792   7.902  0.00  0.00    -0.084 HD
ENDBRANCH   7   9
ENDBRANCH   4   8
ENDBRANCH   3   4
ENDBRANCH   2   3
ENDBRANCH   1   2
BRANCH   1  21
ATOM     21  O   UNL     1      -1.737  -0.142  -0.145  0.00  0.00    -0.458 OA
BRANCH  21  22
ATOM     22  C   UNL     1      -0.524   0.438  -0.265  0.00  0.00    +0.333 C 
ATOM     23  O   UNL     1      -0.430   1.570  -0.701  0.00  0.00    -0.246 OA
BRANCH  22  24
ATOM     24  C   UNL     1       0.637  -0.270   0.115  0.00  0.00    +0.109 C 
ATOM     25  C   UNL     1       1.840   0.344   0.095  0.00  0.00    +0.008 C 
ATOM     26  C   UNL     1       1.962   1.742  -0.455  0.00  0.00    +0.060 C 
BRANCH  25  27
ATOM     27  N   UNL     1       2.944  -0.301   0.573  0.00  0.00    -0.344 N 
ATOM     28  H   UNL     1       2.854  -1.321   0.975  0.00  0.00    +0.146 HD
BRANCH  27  29
ATOM     29  C   UNL     1       4.252   0.367   0.551  0.00  0.00    +0.067 C 
ATOM     30  C   UNL     1       4.915   0.130  -0.805  0.00  0.00    +0.009 C 
ATOM     31  C   UNL     1       6.288   0.797  -0.848  0.00  0.00    -0.072 C 
ATOM     32  N   UNL     1       7.107   0.480   0.303  0.00  0.00    +0.386 N 
ATOM     33  C   UNL     1       6.518   0.428   1.625  0.00  0.00    -0.072 C 
ATOM     34  C   UNL     1       5.142  -0.233   1.639  0.00  0.00    +0.009 C 
ATOM     35  C   UNL     1       6.421   1.827   2.244  0.00  0.00    -0.010 C 
ATOM     36  C   UNL     1       7.446  -0.410   2.533  0.00  0.00    -0.010 C 
ATOM     37  C   UNL     1       6.116   2.313  -1.006  0.00  0.00    -0.010 C 
ATOM     38  C   UNL     1       7.014   0.285  -2.112  0.00  0.00    -0.010 C 
ATOM     39  H   UNL     1       7.551  -0.517   0.173  0.00  0.00    -0.084 HD
ATOM     40  H   UNL     1       7.907   1.229   0.401  0.00  0.00    -0.084 HD
ENDBRANCH  27  29
ENDBRANCH  25  27
ENDBRANCH  22  24
ENDBRANCH  21  22
ENDBRANCH   1  21
TORSDOF 10
