REMARK  Name = ZINC63131506
REMARK  8 active torsions:
REMARK  status: ('A' for Active; 'I' for Inactive)
REMARK    1  A    between atoms: C_1  and  C_2
REMARK    2  A    between atoms: C_2  and  C_3
REMARK    3  A    between atoms: C_7  and  C_23
REMARK    4  A    between atoms: C_9  and  S_12
REMARK    5  A    between atoms: S_12  and  C_13
REMARK    6  A    between atoms: C_16  and  S_19
REMARK    7  A    between atoms: S_19  and  C_22
REMARK    8  A    between atoms: C_23  and  N_24
REMARK                            x       y       z     vdW  Elec       q    Type
REMARK                         _______ _______ _______ _____ _____    ______ ____
ROOT
ATOM      1  C   UNL     1       0.664  -0.799  -2.020  0.00  0.00    -0.010 C 
ATOM      2  C   UNL     1       2.119  -0.327  -2.006  0.00  0.00    +0.004 C 
ATOM      3  C   UNL     1       2.751  -0.662  -0.654  0.00  0.00    +0.003 C 
ATOM      4  C   UNL     1       2.703  -2.175  -0.429  0.00  0.00    -0.015 C 
ATOM      5  C   UNL     1       1.248  -2.647  -0.443  0.00  0.00    +0.053 C 
ATOM      6  C   UNL     1       0.616  -2.311  -1.795  0.00  0.00    +0.018 C 
ENDROOT
BRANCH   1   8
ATOM      7  C   UNL     1      -0.170   1.408  -1.196  0.00  0.00    +0.004 C 
ATOM      8  C   UNL     1      -0.112  -0.093  -0.905  0.00  0.00    +0.000 C 
ENDBRANCH   1   8
BRANCH   5   9
ATOM      9  S   UNL     1       1.191  -4.440  -0.177  0.00  0.00    -0.122 S 
BRANCH   9  10
ATOM     10  C   UNL     1      -0.520  -4.781   0.069  0.00  0.00    +0.008 A 
ATOM     11  C   UNL     1      -1.432  -3.736   0.158  0.00  0.00    +0.016 A 
ATOM     12  C   UNL     1      -2.772  -4.007   0.351  0.00  0.00    +0.028 A 
ATOM     13  C   UNL     1      -3.207  -5.315   0.457  0.00  0.00    +0.088 A 
ATOM     14  C   UNL     1      -2.302  -6.357   0.370  0.00  0.00    +0.028 A 
ATOM     15  C   UNL     1      -0.961  -6.095   0.171  0.00  0.00    +0.016 A 
BRANCH  13  16
ATOM     16  S   UNL     1      -4.918  -5.656   0.704  0.00  0.00    -0.006 S 
ATOM     17  O   UNL     1      -4.946  -6.915   1.361  0.00  0.00    -0.170 OA
ATOM     18  O   UNL     1      -5.431  -4.494   1.342  0.00  0.00    -0.170 OA
ATOM     19  C   UNL     1      -5.609  -5.807  -0.967  0.00  0.00    +0.200 C 
ENDBRANCH  13  16
ENDBRANCH   9  10
ENDBRANCH   5   9
BRANCH   4  20
ATOM     20  C   UNL     1       3.335  -2.510   0.923  0.00  0.00    -0.082 C 
BRANCH  20  21
ATOM     21  N   UNL     1       4.763  -2.166   0.895  0.00  0.00    +0.378 N 
ATOM     22  H   UNL     1       5.222  -2.696   0.169  0.00  0.00    -0.090 HD
ATOM     23  H   UNL     1       4.868  -1.180   0.710  0.00  0.00    -0.090 HD
ATOM     24  H   UNL     1       5.180  -2.388   1.787  0.00  0.00    -0.090 HD
ENDBRANCH  20  21
ENDBRANCH   4  20
TORSDOF 6
