REMARK  Name = ZINC10645027
REMARK  10 active torsions:
REMARK  status: ('A' for Active; 'I' for Inactive)
REMARK    1  A    between atoms: C_1  and  C_2
REMARK    2  A    between atoms: C_4  and  C_28
REMARK    3  A    between atoms: C_8  and  N_27
REMARK    4  A    between atoms: C_9  and  C_11
REMARK    5  A    between atoms: C_11  and  O_13
REMARK    6  A    between atoms: O_13  and  C_14
REMARK    7  A    between atoms: C_14  and  C_15
REMARK    8  A    between atoms: N_17  and  C_18
REMARK    9  A    between atoms: C_23  and  C_24
REMARK   10  A    between atoms: C_24  and  C_26
REMARK                            x       y       z     vdW  Elec       q    Type
REMARK                         _______ _______ _______ _____ _____    ______ ____
ROOT
ATOM      1  C   UNL     1       1.303  -0.754   4.794  0.00  0.00    +0.348 C 
ATOM      2  O   UNL     1       1.571   0.404   5.052  0.00  0.00    -0.244 OA
ENDROOT
BRANCH   1  11
ATOM      3  C   UNL     1      -2.495   1.467   1.440  0.00  0.00    +0.044 C 
ATOM      4  C   UNL     1      -2.457  -0.039   1.450  0.00  0.00    -0.037 A 
ATOM      5  C   UNL     1      -3.318  -0.765   0.662  0.00  0.00    +0.025 A 
ATOM      6  C   UNL     1      -3.281  -2.151   0.674  0.00  0.00    +0.014 A 
ATOM      7  N   UNL     1      -2.418  -2.790   1.441  0.00  0.00    -0.353 N 
ATOM      8  C   UNL     1      -1.573  -2.140   2.212  0.00  0.00    +0.088 A 
ATOM      9  C   UNL     1      -1.528  -0.729   2.268  0.00  0.00    +0.030 A 
ATOM     10  C   UNL     1      -0.527  -0.178   3.170  0.00  0.00    +0.055 A 
ATOM     11  C   UNL     1       0.274  -1.054   3.871  0.00  0.00    +0.119 A 
ATOM     12  S   UNL     1      -0.306  -2.655   3.345  0.00  0.00    -0.062 S 
ATOM     13  C   UNL     1      -4.232  -2.933  -0.195  0.00  0.00    +0.063 C 
ATOM     14  H   UNL     1      -2.407  -3.760   1.436  0.00  0.00    +0.166 HD
BRANCH  10  15
ATOM     15  N   UNL     1      -0.383   1.193   3.320  0.00  0.00    -0.356 N 
ATOM     16  H   UNL     1      -0.655   1.790   2.606  0.00  0.00    +0.142 HD
ATOM     17  H   UNL     1      -0.011   1.554   4.139  0.00  0.00    +0.142 HD
ENDBRANCH  10  15
ENDBRANCH   1  11
BRANCH   1  18
ATOM     18  O   UNL     1       1.988  -1.754   5.389  0.00  0.00    -0.451 OA
BRANCH  18  19
ATOM     19  C   UNL     1       3.014  -1.378   6.311  0.00  0.00    +0.328 C 
BRANCH  19  20
ATOM     20  C   UNL     1       3.664  -2.617   6.871  0.00  0.00    +0.255 C 
ATOM     21  O   UNL     1       3.286  -3.714   6.516  0.00  0.00    -0.272 OA
ATOM     22  N   UNL     1       4.665  -2.507   7.766  0.00  0.00    -0.282 N 
ATOM     23  H   UNL     1       4.960  -1.630   8.057  0.00  0.00    +0.155 HD
BRANCH  22  24
ATOM     24  C   UNL     1       5.275  -3.650   8.273  0.00  0.00    +0.044 A 
ATOM     25  C   UNL     1       5.579  -4.711   7.430  0.00  0.00    +0.024 A 
ATOM     26  C   UNL     1       6.183  -5.845   7.935  0.00  0.00    +0.002 A 
ATOM     27  C   UNL     1       6.492  -5.936   9.283  0.00  0.00    +0.001 A 
ATOM     28  C   UNL     1       6.199  -4.895  10.136  0.00  0.00    +0.013 A 
ATOM     29  C   UNL     1       5.591  -3.736   9.640  0.00  0.00    +0.038 A 
BRANCH  29  30
ATOM     30  C   UNL     1       5.281  -2.620  10.541  0.00  0.00    +0.162 C 
ATOM     31  O   UNL     1       4.634  -1.677  10.138  0.00  0.00    -0.292 OA
ATOM     32  C   UNL     1       5.768  -2.646  11.967  0.00  0.00    +0.091 C 
ENDBRANCH  29  30
ENDBRANCH  22  24
ENDBRANCH  19  20
ENDBRANCH  18  19
ENDBRANCH   1  18
TORSDOF 7
