REMARK  Name = ZINC43975798
REMARK  9 active torsions:
REMARK  status: ('A' for Active; 'I' for Inactive)
REMARK    1  A    between atoms: C_1  and  N_2
REMARK    2  A    between atoms: N_2  and  C_3
REMARK    3  A    between atoms: N_2  and  C_4
REMARK    4  A    between atoms: C_4  and  C_6
REMARK    5  A    between atoms: C_4  and  C_25
REMARK    6  A    between atoms: C_6  and  N_7
REMARK    7  A    between atoms: N_10  and  C_11
REMARK    8  A    between atoms: C_14  and  N_17
REMARK    9  A    between atoms: C_18  and  C_20
REMARK                            x       y       z     vdW  Elec       q    Type
REMARK                         _______ _______ _______ _____ _____    ______ ____
ROOT
ATOM      1  N   UNL     1      -1.786   1.547  -1.144  0.00  0.00    -0.300 N 
ATOM      2  C   UNL     1      -2.276   2.274  -2.167  0.00  0.00    +0.304 C 
ATOM      3  O   UNL     1      -2.965   1.742  -3.016  0.00  0.00    -0.253 OA
ATOM      4  N   UNL     1      -2.003   3.591  -2.249  0.00  0.00    -0.269 N 
ATOM      5  H   UNL     1      -1.236   1.972  -0.466  0.00  0.00    +0.150 HD
ATOM      6  H   UNL     1      -1.392   4.000  -1.617  0.00  0.00    +0.156 HD
ENDROOT
BRANCH   4   7
ATOM      7  C   UNL     1      -2.601   4.370  -3.249  0.00  0.00    +0.035 A 
ATOM      8  C   UNL     1      -1.899   5.420  -3.825  0.00  0.00    +0.025 A 
ATOM      9  C   UNL     1      -2.488   6.187  -4.810  0.00  0.00    +0.025 A 
ATOM     10  C   UNL     1      -3.784   5.909  -5.224  0.00  0.00    +0.034 A 
ATOM     11  C   UNL     1      -4.487   4.859  -4.648  0.00  0.00    +0.025 A 
ATOM     12  C   UNL     1      -3.895   4.088  -3.667  0.00  0.00    +0.025 A 
BRANCH  10  13
ATOM     13  N   UNL     1      -4.383   6.687  -6.222  0.00  0.00    -0.279 N 
ATOM     14  C   UNL     1      -3.635   7.184  -7.228  0.00  0.00    +0.284 C 
ATOM     15  O   UNL     1      -2.460   6.881  -7.320  0.00  0.00    -0.266 OA
ATOM     16  H   UNL     1      -5.335   6.869  -6.190  0.00  0.00    +0.155 HD
BRANCH  14  17
ATOM     17  C   UNL     1      -4.238   8.090  -8.211  0.00  0.00    +0.189 A 
ATOM     18  C   UNL     1      -3.599   8.658  -9.276  0.00  0.00    +0.054 A 
ATOM     19  C   UNL     1      -4.550   9.446  -9.943  0.00  0.00    +0.042 A 
ATOM     20  C   UNL     1      -5.713   9.326  -9.264  0.00  0.00    +0.196 A 
ATOM     21  O   UNL     1      -5.522   8.504  -8.224  0.00  0.00    -0.458 OA
ENDBRANCH  14  17
ENDBRANCH  10  13
ENDBRANCH   4   7
BRANCH   1  22
ATOM     22  C   UNL     1      -2.083   0.115  -1.054  0.00  0.00    +0.095 C 
BRANCH  22  23
ATOM     23  C   UNL     1      -1.313  -0.493   0.119  0.00  0.00    -0.020 C 
BRANCH  23  24
ATOM     24  C   UNL     1      -1.823   0.092   1.411  0.00  0.00    -0.052 A 
ATOM     25  C   UNL     1      -1.133   1.111   2.040  0.00  0.00    +0.009 A 
ATOM     26  C   UNL     1      -1.619   1.615   3.201  0.00  0.00    +0.045 A 
ATOM     27  S   UNL     1      -3.094   0.639   3.439  0.00  0.00    -0.105 S 
ATOM     28  C   UNL     1      -2.967  -0.371   1.972  0.00  0.00    +0.047 A 
ENDBRANCH  23  24
BRANCH  23  30
ATOM     29  C   UNL     1      -0.919  -2.531  -1.083  0.00  0.00    -0.096 C 
ATOM     30  N   UNL     1      -1.507  -1.949   0.131  0.00  0.00    +0.382 N 
ATOM     31  C   UNL     1      -0.853  -2.521   1.315  0.00  0.00    -0.096 C 
ATOM     32  H   UNL     1      -2.494  -2.156   0.159  0.00  0.00    -0.082 HD
ENDBRANCH  23  30
ENDBRANCH  22  23
ENDBRANCH   1  22
TORSDOF 7
