REMARK  Name = ZINC08723698
REMARK  10 active torsions:
REMARK  status: ('A' for Active; 'I' for Inactive)
REMARK    1  A    between atoms: C_1  and  C_2
REMARK    2  A    between atoms: C_2  and  C_4
REMARK    3  A    between atoms: C_2  and  N_60
REMARK    4  A    between atoms: N_6  and  C_7
REMARK    5  A    between atoms: C_8  and  C_15
REMARK    6  A    between atoms: C_21  and  C_23
REMARK    7  A    between atoms: C_26  and  O_31
REMARK    8  A    between atoms: C_28  and  O_29
REMARK    9  A    between atoms: O_29  and  C_30
REMARK   10  A    between atoms: O_31  and  C_32
REMARK                            x       y       z     vdW  Elec       q    Type
REMARK                         _______ _______ _______ _____ _____    ______ ____
ROOT
ATOM      1  C   UNL     1       2.374   3.109  -2.758  0.00  0.00    -0.004 C 
ATOM      2  C   UNL     1       3.685   3.415  -2.031  0.00  0.00    +0.017 C 
ENDROOT
BRANCH   2   7
ATOM      3  C   UNL     1       4.786   3.381   0.131  0.00  0.00    -0.077 C 
ATOM      4  C   UNL     1       4.457   4.390   1.250  0.00  0.00    -0.020 C 
ATOM      5  C   UNL     1       2.929   4.207   1.449  0.00  0.00    -0.012 C 
ATOM      6  C   UNL     1       2.456   3.932  -0.000  0.00  0.00    -0.033 C 
ATOM      7  N   UNL     1       3.530   3.104  -0.586  0.00  0.00    +0.392 N 
ATOM      8  H   UNL     1       3.290   2.112  -0.480  0.00  0.00    -0.080 HD
BRANCH   6   9
ATOM      9  C   UNL     1       1.159   3.164   0.008  0.00  0.00    -0.019 A 
ATOM     10  C   UNL     1       1.175   1.782   0.000  0.00  0.00    +0.009 A 
ATOM     11  C   UNL     1      -0.013   1.076   0.008  0.00  0.00    +0.046 A 
ATOM     12  C   UNL     1      -1.224   1.753   0.017  0.00  0.00    +0.124 A 
ATOM     13  C   UNL     1      -1.242   3.139   0.031  0.00  0.00    +0.091 A 
ATOM     14  C   UNL     1      -0.049   3.845   0.024  0.00  0.00    +0.125 A 
BRANCH  14  15
ATOM     15  O   UNL     1      -0.064   5.204   0.032  0.00  0.00    -0.495 OA
ATOM     16  C   UNL     1      -1.344   5.839   0.048  0.00  0.00    +0.277 C 
ENDBRANCH  14  15
BRANCH  12  17
ATOM     17  O   UNL     1      -2.392   1.057   0.019  0.00  0.00    -0.495 OA
ATOM     18  C   UNL     1      -2.298  -0.368   0.010  0.00  0.00    +0.277 C 
ENDBRANCH  12  17
ENDBRANCH   6   9
ENDBRANCH   2   7
BRANCH   2  19
ATOM     19  C   UNL     1       4.789   2.567  -2.607  0.00  0.00    +0.204 C 
ATOM     20  O   UNL     1       5.390   1.789  -1.896  0.00  0.00    -0.277 OA
ATOM     21  N   UNL     1       5.109   2.672  -3.912  0.00  0.00    -0.281 N 
ATOM     22  H   UNL     1       4.628   3.293  -4.481  0.00  0.00    +0.155 HD
BRANCH  21  23
ATOM     23  C   UNL     1       6.125   1.891  -4.442  0.00  0.00    +0.084 A 
ATOM     24  C   UNL     1       6.589   1.853  -5.746  0.00  0.00    +0.068 A 
ATOM     25  C   UNL     1       7.687   0.935  -6.047  0.00  0.00    -0.023 A 
ATOM     26  C   UNL     1       8.124   0.205  -5.004  0.00  0.00    -0.004 A 
ATOM     27  S   UNL     1       7.115   0.722  -3.637  0.00  0.00    -0.077 S 
ATOM     28  C   UNL     1       9.244  -0.721  -5.393  0.00  0.00    +0.043 C 
ATOM     29  C   UNL     1       9.173  -0.791  -6.935  0.00  0.00    +0.010 C 
ATOM     30  C   UNL     1       8.508   0.556  -7.280  0.00  0.00    +0.037 C 
BRANCH  24  31
ATOM     31  C   UNL     1       6.005   2.705  -6.786  0.00  0.00    +0.244 C 
ATOM     32  O   UNL     1       6.461   3.814  -6.991  0.00  0.00    -0.270 OA
ATOM     33  N   UNL     1       4.962   2.260  -7.515  0.00  0.00    -0.325 N 
ATOM     34  H   UNL     1       4.599   1.375  -7.351  0.00  0.00    +0.145 HD
ATOM     35  H   UNL     1       4.576   2.823  -8.203  0.00  0.00    +0.145 HD
ENDBRANCH  24  31
ENDBRANCH  21  23
ENDBRANCH   2  19
TORSDOF 7
