REMARK  Name = ZINC39660294
REMARK  9 active torsions:
REMARK  status: ('A' for Active; 'I' for Inactive)
REMARK    1  A    between atoms: C_1  and  C_2
REMARK    2  A    between atoms: C_2  and  C_3
REMARK    3  A    between atoms: C_3  and  C_4
REMARK    4  A    between atoms: C_4  and  C_5
REMARK    5  A    between atoms: C_5  and  C_6
REMARK    6  A    between atoms: C_6  and  N_7
REMARK    7  A    between atoms: C_8  and  C_10
REMARK    8  A    between atoms: C_21  and  C_23
REMARK    9  A    between atoms: C_25  and  C_30
REMARK                            x       y       z     vdW  Elec       q    Type
REMARK                         _______ _______ _______ _____ _____    ______ ____
ROOT
ATOM      1  C   UNL     1      -6.522  -6.458   0.048  0.00  0.00    +0.100 C 
ATOM      2  C   UNL     1      -6.981  -5.859  -1.301  0.00  0.00    +0.121 C 
ATOM      3  N   UNL     1      -6.782  -6.952  -2.282  0.00  0.00    -0.296 N 
ATOM      4  C   UNL     1      -7.199  -8.177  -1.559  0.00  0.00    +0.115 C 
ATOM      5  C   UNL     1      -6.671  -7.979  -0.125  0.00  0.00    -0.004 C 
ATOM      6  C   UNL     1      -5.317  -8.664   0.037  0.00  0.00    -0.010 C 
ATOM      7  C   UNL     1      -5.499 -10.180  -0.082  0.00  0.00    -0.082 C 
ATOM      8  N   UNL     1      -6.432 -10.645   0.951  0.00  0.00    +0.379 N 
ATOM      9  C   UNL     1      -7.757 -10.052   0.734  0.00  0.00    -0.082 C 
ATOM     10  C   UNL     1      -7.670  -8.531   0.887  0.00  0.00    -0.010 C 
ATOM     11  C   UNL     1      -6.326  -6.854  -3.547  0.00  0.00    +0.247 C 
ATOM     12  O   UNL     1      -5.902  -5.792  -3.959  0.00  0.00    -0.270 OA
ATOM     13  H   UNL     1      -6.504 -11.650   0.910  0.00  0.00    -0.086 HD
ATOM     14  H   UNL     1      -6.088 -10.372   1.860  0.00  0.00    -0.086 HD
ENDROOT
BRANCH  11  15
ATOM     15  C   UNL     1      -6.340  -8.038  -4.432  0.00  0.00    +0.040 A 
ATOM     16  C   UNL     1      -5.500  -8.091  -5.545  0.00  0.00    +0.025 A 
ATOM     17  C   UNL     1      -5.516  -9.198  -6.368  0.00  0.00    +0.058 A 
ATOM     18  C   UNL     1      -6.363 -10.257  -6.091  0.00  0.00    +0.050 A 
ATOM     19  C   UNL     1      -7.200 -10.212  -4.988  0.00  0.00    +0.125 A 
ATOM     20  C   UNL     1      -7.188  -9.111  -4.153  0.00  0.00    +0.051 A 
ATOM     21  F   UNL     1      -8.024 -11.249  -4.724  0.00  0.00    -0.205 F 
BRANCH  17  22
ATOM     22  C   UNL     1      -4.611  -9.255  -7.571  0.00  0.00    +0.418 C 
ATOM     23  F   UNL     1      -3.389  -9.832  -7.208  0.00  0.00    -0.166 F 
ATOM     24  F   UNL     1      -5.212 -10.026  -8.571  0.00  0.00    -0.166 F 
ATOM     25  F   UNL     1      -4.390  -7.959  -8.050  0.00  0.00    -0.166 F 
ENDBRANCH  17  22
ENDBRANCH  11  15
BRANCH   1  27
ATOM     26  N   UNL     1      -4.622  -6.084   1.586  0.00  0.00    -0.315 N 
ATOM     27  C   UNL     1      -5.085  -6.099   0.320  0.00  0.00    +0.218 C 
ATOM     28  O   UNL     1      -4.344  -5.823  -0.600  0.00  0.00    -0.275 OA
ATOM     29  H   UNL     1      -5.214  -6.304   2.322  0.00  0.00    +0.149 HD
BRANCH  26  30
ATOM     30  C   UNL     1      -3.224  -5.734   1.851  0.00  0.00    +0.104 C 
BRANCH  30  31
ATOM     31  C   UNL     1      -2.960  -5.792   3.357  0.00  0.00    +0.019 C 
BRANCH  31  32
ATOM     32  C   UNL     1      -1.500  -5.428   3.633  0.00  0.00    +0.002 C 
BRANCH  32  33
ATOM     33  C   UNL     1      -1.237  -5.486   5.139  0.00  0.00    -0.000 C 
BRANCH  33  35
ATOM     34  C   UNL     1       0.487  -5.179   6.922  0.00  0.00    +0.004 C 
ATOM     35  C   UNL     1       0.223  -5.121   5.416  0.00  0.00    -0.003 C 
ENDBRANCH  33  35
ENDBRANCH  32  33
ENDBRANCH  31  32
ENDBRANCH  30  31
ENDBRANCH  26  30
ENDBRANCH   1  27
TORSDOF 8
