REMARK  Name = ZINC22752910
REMARK  7 active torsions:
REMARK  status: ('A' for Active; 'I' for Inactive)
REMARK    1  A    between atoms: C_1  and  C_2
REMARK    2  A    between atoms: C_6  and  C_13
REMARK    3  A    between atoms: C_13  and  N_14
REMARK    4  A    between atoms: N_17  and  C_20
REMARK    5  A    between atoms: C_20  and  C_21
REMARK    6  A    between atoms: N_23  and  C_24
REMARK    7  A    between atoms: C_26  and  C_31
REMARK                            x       y       z     vdW  Elec       q    Type
REMARK                         _______ _______ _______ _____ _____    ______ ____
ROOT
ATOM      1  N   UNL     1      -1.315  -5.154  -1.802  0.00  0.00    -0.302 NA
ATOM      2  C   UNL     1      -1.902  -3.864  -2.191  0.00  0.00    +0.066 C 
ATOM      3  C   UNL     1      -3.356  -4.077  -2.621  0.00  0.00    -0.063 C 
ATOM      4  N   UNL     1      -3.400  -5.016  -3.750  0.00  0.00    +0.387 N 
ATOM      5  C   UNL     1      -2.833  -6.307  -3.338  0.00  0.00    -0.063 C 
ATOM      6  C   UNL     1      -1.375  -6.112  -2.914  0.00  0.00    +0.066 C 
ATOM      7  H   UNL     1      -2.863  -4.643  -4.518  0.00  0.00    -0.081 HD
ENDROOT
BRANCH   1   8
ATOM      8  C   UNL     1       0.065  -4.982  -1.328  0.00  0.00    +0.120 C 
BRANCH   8  14
ATOM      9  C   UNL     1      -0.012   1.543  -0.050  0.00  0.00    +0.044 C 
ATOM     10  C   UNL     1       0.007   0.036  -0.046  0.00  0.00    -0.047 A 
ATOM     11  C   UNL     1       0.010  -0.654  -1.250  0.00  0.00    +0.004 A 
ATOM     12  C   UNL     1       0.027  -2.020  -1.266  0.00  0.00    +0.012 A 
ATOM     13  C   UNL     1       0.042  -2.728  -0.060  0.00  0.00    +0.022 A 
ATOM     14  C   UNL     1       0.061  -4.194  -0.044  0.00  0.00    -0.016 A 
ATOM     15  C   UNL     1       0.074  -4.821   1.159  0.00  0.00    +0.097 A 
ATOM     16  C   UNL     1       0.070  -4.059   2.348  0.00  0.00    +0.338 A 
ATOM     17  O   UNL     1       0.083  -4.633   3.421  0.00  0.00    -0.245 OA
ATOM     18  O   UNL     1       0.053  -2.717   2.325  0.00  0.00    -0.422 OA
ATOM     19  C   UNL     1       0.038  -2.032   1.161  0.00  0.00    +0.140 A 
ATOM     20  C   UNL     1       0.026  -0.643   1.154  0.00  0.00    +0.050 A 
ENDBRANCH   8  14
ENDBRANCH   1   8
BRANCH   4  21
ATOM     21  C   UNL     1      -4.793  -5.207  -4.173  0.00  0.00    +0.019 C 
BRANCH  21  22
ATOM     22  C   UNL     1      -4.830  -6.072  -5.407  0.00  0.00    +0.201 C 
ATOM     23  O   UNL     1      -3.796  -6.489  -5.886  0.00  0.00    -0.278 OA
ATOM     24  N   UNL     1      -6.010  -6.383  -5.978  0.00  0.00    -0.286 N 
ATOM     25  H   UNL     1      -6.840  -6.117  -5.551  0.00  0.00    +0.155 HD
BRANCH  24  26
ATOM     26  C   UNL     1      -6.039  -7.088  -7.186  0.00  0.00    +0.052 A 
ATOM     27  C   UNL     1      -4.955  -7.030  -8.052  0.00  0.00    +0.037 A 
ATOM     28  C   UNL     1      -4.986  -7.727  -9.244  0.00  0.00    +0.057 A 
ATOM     29  C   UNL     1      -6.096  -8.483  -9.576  0.00  0.00    +0.014 A 
ATOM     30  C   UNL     1      -7.178  -8.543  -8.717  0.00  0.00    +0.022 A 
ATOM     31  C   UNL     1      -7.151  -7.852  -7.520  0.00  0.00    +0.062 A 
ATOM     32 CL   UNL     1      -8.506  -7.934  -6.439  0.00  0.00    -0.082 Cl
BRANCH  28  33
ATOM     33  C   UNL     1      -3.810  -7.665 -10.183  0.00  0.00    +0.417 C 
ATOM     34  F   UNL     1      -2.912  -8.692  -9.876  0.00  0.00    -0.166 F 
ATOM     35  F   UNL     1      -4.256  -7.815 -11.501  0.00  0.00    -0.166 F 
ATOM     36  F   UNL     1      -3.169  -6.428 -10.046  0.00  0.00    -0.166 F 
ENDBRANCH  28  33
ENDBRANCH  24  26
ENDBRANCH  21  22
ENDBRANCH   4  21
TORSDOF 6
