REMARK  Name = ZINC40593933
REMARK  14 active torsions:
REMARK  status: ('A' for Active; 'I' for Inactive)
REMARK    1  A    between atoms: C_1  and  C_2
REMARK    2  A    between atoms: C_2  and  C_35
REMARK    3  A    between atoms: C_4  and  N_10
REMARK    4  A    between atoms: C_6  and  C_8
REMARK    5  A    between atoms: C_6  and  C_9
REMARK    6  A    between atoms: C_12  and  N_32
REMARK    7  A    between atoms: C_13  and  N_17
REMARK    8  A    between atoms: N_17  and  C_18
REMARK    9  A    between atoms: C_20  and  C_28
REMARK   10  A    between atoms: C_22  and  C_24
REMARK   11  A    between atoms: C_24  and  O_26
REMARK   12  A    between atoms: O_26  and  C_27
REMARK   13  A    between atoms: C_28  and  O_30
REMARK   14  A    between atoms: O_30  and  C_31
REMARK                            x       y       z     vdW  Elec       q    Type
REMARK                         _______ _______ _______ _____ _____    ______ ____
ROOT
ATOM      1  N   UNL     1       2.835  -1.060  -2.432  0.00  0.00    -0.324 N 
ATOM      2  C   UNL     1       3.899  -0.426  -3.053  0.00  0.00    +0.155 A 
ATOM      3  C   UNL     1       4.424  -0.926  -4.241  0.00  0.00    +0.205 A 
ATOM      4  C   UNL     1       5.493  -0.253  -4.825  0.00  0.00    +0.159 A 
ATOM      5  N   UNL     1       5.971   0.839  -4.230  0.00  0.00    -0.218 NA
ATOM      6  C   UNL     1       5.447   1.281  -3.105  0.00  0.00    +0.225 A 
ATOM      7  N   UNL     1       4.431   0.675  -2.525  0.00  0.00    -0.218 NA
ATOM      8  H   UNL     1       2.453  -1.862  -2.823  0.00  0.00    +0.148 HD
ENDROOT
BRANCH   1  12
ATOM      9  C   UNL     1      -0.033   1.063   0.149  0.00  0.00    -0.010 C 
ATOM     10  C   UNL     1       0.242  -0.440   0.268  0.00  0.00    -0.072 C 
ATOM     11  C   UNL     1       0.829  -0.962  -1.039  0.00  0.00    +0.009 C 
ATOM     12  C   UNL     1       2.286  -0.520  -1.182  0.00  0.00    +0.069 C 
ATOM     13  C   UNL     1       3.073  -1.085   0.000  0.00  0.00    +0.009 C 
ATOM     14  C   UNL     1       2.503  -0.564   1.315  0.00  0.00    -0.072 C 
ATOM     15  N   UNL     1       1.065  -0.736   1.427  0.00  0.00    +0.386 N 
ATOM     16  C   UNL     1       2.905   0.901   1.512  0.00  0.00    -0.010 C 
ATOM     17  C   UNL     1       3.163  -1.372   2.457  0.00  0.00    -0.010 C 
ATOM     18  C   UNL     1      -1.124  -1.136   0.471  0.00  0.00    -0.010 C 
ATOM     19  H   UNL     1       0.733  -0.166   2.211  0.00  0.00    -0.084 HD
ATOM     20  H   UNL     1       0.879  -1.703   1.713  0.00  0.00    -0.084 HD
ENDBRANCH   1  12
BRANCH   3  21
ATOM     21  N   UNL     1       3.861  -2.143  -4.867  0.00  0.00    +0.063 N 
ATOM     22  O   UNL     1       2.960  -2.050  -5.668  0.00  0.00    -0.126 OA
ATOM     23  O   UNL     1       4.301  -3.231  -4.577  0.00  0.00    -0.126 OA
ENDBRANCH   3  21
BRANCH   4  24
ATOM     24  N   UNL     1       6.052  -0.711  -6.008  0.00  0.00    -0.297 N 
ATOM     25  H   UNL     1       5.648  -1.458  -6.478  0.00  0.00    +0.154 HD
BRANCH  24  26
ATOM     26  C   UNL     1       7.197  -0.097  -6.525  0.00  0.00    +0.034 A 
ATOM     27  C   UNL     1       8.180   0.370  -5.665  0.00  0.00    +0.038 A 
ATOM     28  C   UNL     1       9.325   0.984  -6.177  0.00  0.00    +0.062 A 
ATOM     29  C   UNL     1       9.479   1.127  -7.555  0.00  0.00    +0.030 A 
ATOM     30  C   UNL     1       8.490   0.656  -8.416  0.00  0.00    +0.062 A 
ATOM     31  C   UNL     1       7.350   0.039  -7.897  0.00  0.00    +0.038 A 
BRANCH  30  32
ATOM     32  C   UNL     1       8.650   0.806  -9.878  0.00  0.00    +0.339 C 
ATOM     33  O   UNL     1       7.787   0.396 -10.628  0.00  0.00    -0.245 OA
BRANCH  32  34
ATOM     34  O   UNL     1       9.752   1.397 -10.378  0.00  0.00    -0.464 OA
ATOM     35  C   UNL     1       9.840   1.508 -11.800  0.00  0.00    +0.280 C 
ENDBRANCH  32  34
ENDBRANCH  30  32
BRANCH  28  36
ATOM     36  C   UNL     1      10.371   1.481  -5.260  0.00  0.00    +0.339 C 
ATOM     37  O   UNL     1      10.235   1.356  -4.059  0.00  0.00    -0.245 OA
BRANCH  36  38
ATOM     38  O   UNL     1      11.475   2.073  -5.755  0.00  0.00    -0.464 OA
ATOM     39  C   UNL     1      12.445   2.530  -4.810  0.00  0.00    +0.280 C 
ENDBRANCH  36  38
ENDBRANCH  28  36
ENDBRANCH  24  26
ENDBRANCH   4  24
TORSDOF 8
