REMARK  Name = ZINC63836283
REMARK  5 active torsions:
REMARK  status: ('A' for Active; 'I' for Inactive)
REMARK    1  A    between atoms: C_7  and  C_10
REMARK    2  A    between atoms: C_10  and  C_12
REMARK    3  A    between atoms: C_10  and  C_25
REMARK    4  A    between atoms: C_12  and  N_13
REMARK    5  A    between atoms: N_16  and  C_17
REMARK                            x       y       z     vdW  Elec       q    Type
REMARK                         _______ _______ _______ _____ _____    ______ ____
ROOT
ATOM      1  C   UNL     1       0.669  -3.163  -0.002  0.00  0.00    +0.071 C 
ENDROOT
BRANCH   1   8
ATOM      2  C   UNL     1      -0.056   1.368   0.064  0.00  0.00    +0.001 A 
ATOM      3  C   UNL     1       1.123   2.126   0.059  0.00  0.00    +0.002 A 
ATOM      4  C   UNL     1       2.351   1.565   0.037  0.00  0.00    +0.026 A 
ATOM      5  C   UNL     1       2.494   0.150   0.018  0.00  0.00    +0.043 A 
ATOM      6  N   UNL     1       3.555  -0.620  -0.005  0.00  0.00    -0.380 N 
ATOM      7  C   UNL     1       3.117  -2.020  -0.018  0.00  0.00    +0.145 C 
ATOM      8  C   UNL     1       1.605  -1.982   0.002  0.00  0.00    -0.032 C 
ATOM      9  C   UNL     1       1.264  -0.673   0.023  0.00  0.00    -0.000 A 
ATOM     10  C   UNL     1      -0.032   0.015   0.047  0.00  0.00    +0.010 A 
ATOM     11  H   UNL     1       4.476  -0.315  -0.013  0.00  0.00    +0.160 HD
ENDBRANCH   1   8
BRANCH   1  12
ATOM     12  C   UNL     1       0.898  -3.982  -1.246  0.00  0.00    -0.002 A 
ATOM     13  C   UNL     1       0.030  -4.281  -2.243  0.00  0.00    +0.012 A 
ATOM     14  C   UNL     1       0.466  -5.057  -3.301  0.00  0.00    +0.008 A 
ATOM     15  C   UNL     1       1.748  -5.497  -3.309  0.00  0.00    +0.045 A 
ATOM     16  S   UNL     1       2.386  -4.803  -1.793  0.00  0.00    -0.101 S 
ENDBRANCH   1  12
BRANCH   1  17
ATOM     17  C   UNL     1       0.932  -4.027   1.233  0.00  0.00    +0.118 C 
BRANCH  17  18
ATOM     18  N   UNL     1      -0.055  -5.108   1.292  0.00  0.00    -0.298 N 
ATOM     19  C   UNL     1      -0.018  -5.999   2.302  0.00  0.00    +0.304 C 
ATOM     20  O   UNL     1       0.835  -5.907   3.164  0.00  0.00    -0.253 OA
ATOM     21  N   UNL     1      -0.926  -6.994   2.357  0.00  0.00    -0.267 N 
ATOM     22  H   UNL     1      -0.735  -5.181   0.605  0.00  0.00    +0.150 HD
ATOM     23  H   UNL     1      -1.645  -7.030   1.707  0.00  0.00    +0.156 HD
BRANCH  21  24
ATOM     24  C   UNL     1      -0.832  -7.975   3.354  0.00  0.00    +0.070 A 
ATOM     25  C   UNL     1      -0.368  -7.639   4.618  0.00  0.00    +0.029 A 
ATOM     26  C   UNL     1      -0.276  -8.608   5.599  0.00  0.00    +0.040 A 
ATOM     27  C   UNL     1      -0.645  -9.913   5.323  0.00  0.00    +0.126 A 
ATOM     28  C   UNL     1      -1.108 -10.252   4.062  0.00  0.00    +0.078 A 
ATOM     29  C   UNL     1      -1.207  -9.285   3.079  0.00  0.00    +0.147 A 
ATOM     30  F   UNL     1      -1.664  -9.614   1.851  0.00  0.00    -0.203 F 
ATOM     31  F   UNL     1      -0.554 -10.858   6.284  0.00  0.00    -0.205 F 
ENDBRANCH  21  24
ENDBRANCH  17  18
ENDBRANCH   1  17
TORSDOF 5
