REMARK  Name = ZINC20073246
REMARK  7 active torsions:
REMARK  status: ('A' for Active; 'I' for Inactive)
REMARK    1  A    between atoms: C_4  and  N_7
REMARK    2  A    between atoms: C_10  and  C_15
REMARK    3  A    between atoms: C_15  and  S_16
REMARK    4  A    between atoms: S_16  and  C_17
REMARK    5  A    between atoms: C_20  and  C_29
REMARK    6  A    between atoms: N_21  and  C_22
REMARK    7  A    between atoms: C_29  and  N_30
REMARK                            x       y       z     vdW  Elec       q    Type
REMARK                         _______ _______ _______ _____ _____    ______ ____
ROOT
ATOM      1  C   UNL     1       5.485  -2.060  -1.169  0.00  0.00    +0.196 A 
ATOM      2  N   UNL     1       6.108  -2.216  -0.024  0.00  0.00    -0.122 NA
ATOM      3  N   UNL     1       7.195  -2.877  -0.204  0.00  0.00    -0.135 NA
ATOM      4  C   UNL     1       7.337  -3.173  -1.466  0.00  0.00    +0.122 A 
ATOM      5  N   UNL     1       6.252  -2.663  -2.128  0.00  0.00    -0.276 N 
ENDROOT
BRANCH   5   6
ATOM      6  C   UNL     1       5.984  -2.742  -3.503  0.00  0.00    +0.050 A 
ATOM      7  C   UNL     1       5.752  -3.975  -4.096  0.00  0.00    +0.029 A 
ATOM      8  C   UNL     1       5.483  -4.051  -5.448  0.00  0.00    +0.040 A 
ATOM      9  C   UNL     1       5.455  -2.898  -6.215  0.00  0.00    +0.124 A 
ATOM     10  C   UNL     1       5.692  -1.667  -5.626  0.00  0.00    +0.040 A 
ATOM     11  C   UNL     1       5.956  -1.587  -4.273  0.00  0.00    +0.029 A 
ATOM     12  F   UNL     1       5.197  -2.974  -7.539  0.00  0.00    -0.205 F 
ENDBRANCH   5   6
BRANCH   1  13
ATOM     13  S   UNL     1       3.954  -1.225  -1.424  0.00  0.00    -0.078 S 
BRANCH  13  14
ATOM     14  C   UNL     1       3.583  -0.724   0.275  0.00  0.00    +0.153 C 
BRANCH  14  18
ATOM     15  N   UNL     1       1.114   3.382   0.009  0.00  0.00    -0.284 N 
ATOM     16  C   UNL     1       1.120   2.010   0.172  0.00  0.00    +0.224 A 
ATOM     17  N   UNL     1       2.271   1.341   0.148  0.00  0.00    -0.198 NA
ATOM     18  C   UNL     1       2.278   0.029   0.302  0.00  0.00    +0.146 A 
ATOM     19  N   UNL     1       1.143  -0.625   0.482  0.00  0.00    -0.199 NA
ATOM     20  C   UNL     1      -0.011   0.037   0.507  0.00  0.00    +0.217 A 
ATOM     21  N   UNL     1      -0.022   1.357   0.351  0.00  0.00    -0.181 NA
ATOM     22  N   UNL     1      -1.195  -0.646   0.694  0.00  0.00    -0.327 N 
ATOM     23  H   UNL     1       2.064   3.933  -0.049  0.00  0.00    +0.155 HD
ATOM     24  H   UNL     1      -2.149  -0.099   0.715  0.00  0.00    +0.145 HD
ATOM     25  H   UNL     1      -1.185  -1.739   0.823  0.00  0.00    +0.145 HD
BRANCH  15  29
ATOM     26  C   UNL     1      -2.502   5.431  -0.262  0.00  0.00    +0.000 A 
ATOM     27  C   UNL     1      -1.411   6.035   0.335  0.00  0.00    +0.002 A 
ATOM     28  C   UNL     1      -0.210   5.358   0.427  0.00  0.00    +0.023 A 
ATOM     29  C   UNL     1      -0.100   4.070  -0.082  0.00  0.00    +0.034 A 
ATOM     30  C   UNL     1      -1.197   3.469  -0.686  0.00  0.00    +0.023 A 
ATOM     31  C   UNL     1      -2.396   4.149  -0.770  0.00  0.00    +0.002 A 
ENDBRANCH  15  29
ENDBRANCH  14  18
ENDBRANCH  13  14
ENDBRANCH   1  13
BRANCH   4  32
ATOM     32  C   UNL     1       8.483  -3.934  -2.081  0.00  0.00    -0.001 C 
BRANCH  32  33
ATOM     33  N   UNL     1       9.537  -2.992  -2.483  0.00  0.00    +0.384 N 
ATOM     34  C   UNL     1       9.073  -2.113  -3.564  0.00  0.00    -0.078 C 
ATOM     35  C   UNL     1      10.140  -1.055  -3.856  0.00  0.00    -0.019 C 
ATOM     36  C   UNL     1      11.443  -1.750  -4.260  0.00  0.00    -0.004 C 
ATOM     37  C   UNL     1      11.878  -2.695  -3.138  0.00  0.00    -0.019 C 
ATOM     38  C   UNL     1      10.761  -3.706  -2.866  0.00  0.00    -0.078 C 
ATOM     39  H   UNL     1       9.775  -2.360  -1.615  0.00  0.00    -0.081 HD
ENDBRANCH  32  33
ENDBRANCH   4  32
TORSDOF 7
