REMARK  Name = ZINC00989360
REMARK  5 active torsions:
REMARK  status: ('A' for Active; 'I' for Inactive)
REMARK    1  A    between atoms: C_5  and  C_7
REMARK    2  A    between atoms: C_13  and  C_28
REMARK    3  A    between atoms: C_14  and  C_21
REMARK    4  A    between atoms: C_16  and  C_19
REMARK    5  A    between atoms: C_17  and  N_18
REMARK                            x       y       z     vdW  Elec       q    Type
REMARK                         _______ _______ _______ _____ _____    ______ ____
ROOT
ATOM      1  C   UNL     1       1.193  -2.204  -0.596  0.00  0.00    +0.031 C 
ATOM      2  C   UNL     1       0.053  -2.893  -0.336  0.00  0.00    +0.080 A 
ATOM      3  C   UNL     1      -1.317  -2.396  -0.162  0.00  0.00    +0.271 A 
ATOM      4  O   UNL     1      -1.563  -1.207  -0.245  0.00  0.00    -0.266 OA
ATOM      5  N   UNL     1      -2.295  -3.287   0.092  0.00  0.00    -0.257 N 
ATOM      6  C   UNL     1      -1.944  -4.619   0.173  0.00  0.00    +0.099 A 
ATOM      7  C   UNL     1      -2.818  -5.629   0.422  0.00  0.00    +0.057 C 
ATOM      8  C   UNL     1      -4.279  -5.281   0.627  0.00  0.00    +0.103 C 
ATOM      9  C   UNL     1      -4.624  -3.809   0.531  0.00  0.00    +0.079 C 
ATOM     10  C   UNL     1      -3.635  -2.924   0.276  0.00  0.00    +0.118 C 
ATOM     11  S   UNL     1      -0.187  -4.649  -0.122  0.00  0.00    -0.065 S 
ENDROOT
BRANCH   1  16
ATOM     12  C   UNL     1       0.434   1.327   0.407  0.00  0.00    +0.001 A 
ATOM     13  C   UNL     1       1.171   2.037  -0.526  0.00  0.00    +0.003 A 
ATOM     14  C   UNL     1       1.915   1.371  -1.483  0.00  0.00    +0.039 A 
ATOM     15  C   UNL     1       1.929  -0.011  -1.514  0.00  0.00    +0.131 A 
ATOM     16  C   UNL     1       1.186  -0.735  -0.572  0.00  0.00    +0.011 A 
ATOM     17  C   UNL     1       0.436  -0.051   0.392  0.00  0.00    +0.011 A 
ATOM     18  F   UNL     1       2.655  -0.661  -2.450  0.00  0.00    -0.205 F 
ENDBRANCH   1  16
BRANCH   8  19
ATOM     19  C   UNL     1      -5.089  -6.020  -0.407  0.00  0.00    +0.001 A 
ATOM     20  C   UNL     1      -4.856  -5.803  -1.752  0.00  0.00    +0.007 A 
ATOM     21  C   UNL     1      -5.599  -6.481  -2.700  0.00  0.00    +0.000 A 
ATOM     22  C   UNL     1      -6.576  -7.375  -2.305  0.00  0.00    +0.003 A 
ATOM     23  C   UNL     1      -6.811  -7.594  -0.961  0.00  0.00    +0.038 A 
ATOM     24  C   UNL     1      -6.063  -6.919  -0.010  0.00  0.00    +0.127 A 
ATOM     25  F   UNL     1      -6.289  -7.136   1.305  0.00  0.00    -0.205 F 
ENDBRANCH   8  19
BRANCH   7  26
ATOM     26  C   UNL     1      -2.379  -6.961   0.488  0.00  0.00    +0.241 C 
ATOM     27  O   UNL     1      -1.201  -7.224   0.321  0.00  0.00    -0.271 OA
ATOM     28  N   UNL     1      -3.261  -7.950   0.737  0.00  0.00    -0.326 N 
ATOM     29  H   UNL     1      -4.199  -7.741   0.870  0.00  0.00    +0.145 HD
ATOM     30  H   UNL     1      -2.958  -8.870   0.782  0.00  0.00    +0.145 HD
ENDBRANCH   7  26
BRANCH  10  31
ATOM     31  N   UNL     1      -3.962  -1.593   0.192  0.00  0.00    -0.343 N 
ATOM     32  H   UNL     1      -3.434  -0.997  -0.362  0.00  0.00    +0.144 HD
ATOM     33  H   UNL     1      -4.722  -1.248   0.687  0.00  0.00    +0.144 HD
ENDBRANCH  10  31
BRANCH   9  34
ATOM     34  C   UNL     1      -5.973  -3.363   0.707  0.00  0.00    +0.099 C 
ATOM     35  N   UNL     1      -7.044  -3.009   0.846  0.00  0.00    -0.191 NA
ENDBRANCH   9  34
TORSDOF 5
