REMARK  Name = ZINC62099603
REMARK  5 active torsions:
REMARK  status: ('A' for Active; 'I' for Inactive)
REMARK    1  A    between atoms: C_1  and  C_2
REMARK    2  A    between atoms: C_2  and  C_4
REMARK    3  A    between atoms: C_2  and  N_21
REMARK    4  A    between atoms: C_4  and  C_6
REMARK    5  A    between atoms: C_4  and  N_13
REMARK                            x       y       z     vdW  Elec       q    Type
REMARK                         _______ _______ _______ _____ _____    ______ ____
ROOT
ATOM      1  C   UNL     1       0.848  -0.509   1.173  0.00  0.00    +0.072 C 
ENDROOT
BRANCH   1   2
ATOM      2  N   UNL     1      -0.124  -0.153   2.216  0.00  0.00    -0.295 NA
ATOM      3  C   UNL     1       0.386   0.918   3.060  0.00  0.00    +0.094 C 
ATOM      4  C   UNL     1      -0.421   1.015   4.358  0.00  0.00    +0.111 C 
ATOM      5  C   UNL     1      -1.654   1.854   4.092  0.00  0.00    +0.214 C 
ATOM      6  O   UNL     1      -1.751   2.962   4.576  0.00  0.00    -0.276 OA
ATOM      7  N   UNL     1      -2.635   1.372   3.322  0.00  0.00    -0.314 N 
ATOM      8  C   UNL     1      -2.521   0.025   2.738  0.00  0.00    +0.119 C 
ATOM      9  C   UNL     1      -1.447   0.057   1.647  0.00  0.00    +0.103 C 
ATOM     10  H   UNL     1      -3.423   1.910   3.148  0.00  0.00    +0.149 HD
ENDBRANCH   1   2
BRANCH   1  11
ATOM     11  C   UNL     1       0.825  -2.000   0.953  0.00  0.00    -0.032 A 
ATOM     12  C   UNL     1      -0.335  -2.715   1.185  0.00  0.00    +0.006 A 
ATOM     13  C   UNL     1      -0.356  -4.082   0.983  0.00  0.00    +0.015 A 
ATOM     14  C   UNL     1       0.784  -4.735   0.549  0.00  0.00    +0.018 A 
ATOM     15  C   UNL     1       1.945  -4.019   0.317  0.00  0.00    +0.015 A 
ATOM     16  C   UNL     1       1.963  -2.651   0.514  0.00  0.00    +0.006 A 
ATOM     17 BR   UNL     1       0.756  -6.606   0.274  0.00  0.00    -0.050 Br
ENDBRANCH   1  11
BRANCH   1  19
ATOM     18  C   UNL     1       0.644   1.714   0.052  0.00  0.00    -0.012 C 
ATOM     19  C   UNL     1       0.481   0.204  -0.130  0.00  0.00    -0.056 C 
BRANCH  19  20
ATOM     20  N   UNL     1       1.366  -0.258  -1.207  0.00  0.00    +0.381 N 
ATOM     21  H   UNL     1       2.324  -0.050  -0.968  0.00  0.00    -0.090 HD
ATOM     22  H   UNL     1       1.259  -1.254  -1.327  0.00  0.00    -0.090 HD
ATOM     23  H   UNL     1       1.125   0.212  -2.067  0.00  0.00    -0.090 HD
ENDBRANCH  19  20
ENDBRANCH   1  19
TORSDOF 4
