REMARK  Name = ZINC10774832
REMARK  6 active torsions:
REMARK  status: ('A' for Active; 'I' for Inactive)
REMARK    1  A    between atoms: C_1  and  N_54
REMARK    2  A    between atoms: C_7  and  N_12
REMARK    3  A    between atoms: C_8  and  C_9
REMARK    4  A    between atoms: C_13  and  C_15
REMARK    5  A    between atoms: N_21  and  S_22
REMARK    6  A    between atoms: S_22  and  C_25
REMARK                            x       y       z     vdW  Elec       q    Type
REMARK                         _______ _______ _______ _____ _____    ______ ____
ROOT
ATOM      1  N   UNL     1      -2.294   1.168   3.807  0.00  0.00    -0.278 N 
ATOM      2  C   UNL     1      -2.808   1.420   2.586  0.00  0.00    +0.236 C 
ATOM      3  O   UNL     1      -3.837   2.053   2.480  0.00  0.00    -0.274 OA
ATOM      4  H   UNL     1      -1.471   0.661   3.891  0.00  0.00    +0.155 HD
ENDROOT
BRANCH   1  11
ATOM      5  C   UNL     1      -6.320   3.738   9.897  0.00  0.00    -0.096 C 
ATOM      6  C   UNL     1      -4.033   3.076   9.456  0.00  0.00    -0.074 C 
ATOM      7  C   UNL     1      -3.185   1.995   8.780  0.00  0.00    +0.018 C 
ATOM      8  C   UNL     1      -3.435   2.066   7.278  0.00  0.00    -0.027 A 
ATOM      9  C   UNL     1      -4.522   2.713   6.801  0.00  0.00    -0.021 A 
ATOM     10  S   UNL     1      -4.411   2.548   5.043  0.00  0.00    -0.079 S 
ATOM     11  C   UNL     1      -2.943   1.632   4.941  0.00  0.00    +0.084 A 
ATOM     12  C   UNL     1      -2.576   1.470   6.271  0.00  0.00    +0.068 A 
ATOM     13  C   UNL     1      -5.571   3.406   7.613  0.00  0.00    -0.036 C 
ATOM     14  N   UNL     1      -5.437   2.943   9.016  0.00  0.00    +0.381 N 
ATOM     15  H   UNL     1      -5.713   1.956   9.070  0.00  0.00    -0.082 HD
BRANCH  12  16
ATOM     16  C   UNL     1      -1.366   0.731   6.643  0.00  0.00    +0.244 C 
ATOM     17  O   UNL     1      -0.305   1.316   6.752  0.00  0.00    -0.270 OA
ATOM     18  N   UNL     1      -1.430  -0.597   6.864  0.00  0.00    -0.325 N 
ATOM     19  H   UNL     1      -2.276  -1.064   6.777  0.00  0.00    +0.145 HD
ATOM     20  H   UNL     1      -0.629  -1.087   7.110  0.00  0.00    +0.145 HD
ENDBRANCH  12  16
ENDBRANCH   1  11
BRANCH   2  21
ATOM     21  C   UNL     1      -2.103   0.915   1.353  0.00  0.00    +0.166 C 
ATOM     22  C   UNL     1      -1.652   2.103   0.498  0.00  0.00    +0.030 C 
ATOM     23  C   UNL     1      -1.062   1.585  -0.816  0.00  0.00    +0.003 C 
ATOM     24  C   UNL     1      -2.134   0.813  -1.589  0.00  0.00    +0.017 C 
ATOM     25  C   UNL     1      -2.591  -0.389  -0.757  0.00  0.00    +0.110 C 
ATOM     26  N   UNL     1      -3.025   0.087   0.564  0.00  0.00    -0.164 NA
BRANCH  26  27
ATOM     27  S   UNL     1      -4.523  -0.303   1.151  0.00  0.00    +0.068 S 
ATOM     28  O   UNL     1      -4.912  -1.507   0.505  0.00  0.00    -0.152 OA
ATOM     29  O   UNL     1      -4.447  -0.188   2.566  0.00  0.00    -0.152 OA
BRANCH  27  30
ATOM     30  C   UNL     1      -5.639   0.946   0.604  0.00  0.00    +0.143 A 
ATOM     31  C   UNL     1      -6.371   0.996  -0.536  0.00  0.00    +0.036 A 
ATOM     32  C   UNL     1      -7.192   2.086  -0.757  0.00  0.00    +0.010 A 
ATOM     33  C   UNL     1      -7.232   3.077   0.166  0.00  0.00    +0.047 A 
ATOM     34  S   UNL     1      -6.091   2.478   1.401  0.00  0.00    -0.077 S 
ENDBRANCH  27  30
ENDBRANCH  26  27
ENDBRANCH   2  21
TORSDOF 5
