REMARK  Name = ZINC35606525
REMARK  10 active torsions:
REMARK  status: ('A' for Active; 'I' for Inactive)
REMARK    1  A    between atoms: C_1  and  C_2
REMARK    2  A    between atoms: C_2  and  C_3
REMARK    3  A    between atoms: C_7  and  C_29
REMARK    4  A    between atoms: C_8  and  N_9
REMARK    5  A    between atoms: N_9  and  C_10
REMARK    6  A    between atoms: C_11  and  C_20
REMARK    7  A    between atoms: C_16  and  C_19
REMARK    8  A    between atoms: C_23  and  O_28
REMARK    9  A    between atoms: C_24  and  O_26
REMARK   10  A    between atoms: O_26  and  C_27
REMARK                            x       y       z     vdW  Elec       q    Type
REMARK                         _______ _______ _______ _____ _____    ______ ____
ROOT
ATOM      1  C   UNL     1      -1.944  -0.768  -3.573  0.00  0.00    +0.133 A 
ATOM      2  C   UNL     1      -1.439  -0.479  -4.823  0.00  0.00    +0.087 A 
ATOM      3  N   UNL     1      -2.302  -0.950  -5.741  0.00  0.00    -0.338 N 
ATOM      4  C   UNL     1      -3.325  -1.522  -5.126  0.00  0.00    +0.117 A 
ATOM      5  N   UNL     1      -3.127  -1.428  -3.767  0.00  0.00    -0.289 N 
ATOM      6  C   UNL     1      -4.045  -1.950  -2.897  0.00  0.00    +0.097 A 
ATOM      7  C   UNL     1      -5.153  -2.566  -3.356  0.00  0.00    -0.034 A 
ATOM      8  C   UNL     1      -5.381  -2.680  -4.739  0.00  0.00    +0.008 A 
ATOM      9  C   UNL     1      -4.483  -2.160  -5.617  0.00  0.00    +0.045 A 
ATOM     10  C   UNL     1      -6.152  -3.135  -2.382  0.00  0.00    +0.045 C 
ATOM     11  H   UNL     1      -2.192  -0.882  -6.702  0.00  0.00    +0.167 HD
ENDROOT
BRANCH   2  12
ATOM     12  C   UNL     1      -0.167   0.229  -5.106  0.00  0.00    +0.005 A 
ATOM     13  C   UNL     1       0.166   1.379  -4.392  0.00  0.00    +0.014 A 
ATOM     14  C   UNL     1       1.350   2.037  -4.656  0.00  0.00    +0.050 A 
ATOM     15  C   UNL     1       2.211   1.556  -5.630  0.00  0.00    +0.158 A 
ATOM     16  C   UNL     1       1.884   0.408  -6.347  0.00  0.00    +0.162 A 
ATOM     17  C   UNL     1       0.701  -0.259  -6.082  0.00  0.00    +0.059 A 
BRANCH  16  18
ATOM     18  O   UNL     1       2.730  -0.061  -7.303  0.00  0.00    -0.491 OA
ATOM     19  C   UNL     1       2.330  -1.244  -7.998  0.00  0.00    +0.277 C 
ENDBRANCH  16  18
BRANCH  15  20
ATOM     20  O   UNL     1       3.377   2.208  -5.888  0.00  0.00    -0.503 OA
ATOM     21  H   UNL     1       4.124   1.902  -5.356  0.00  0.00    +0.292 HD
ENDBRANCH  15  20
ENDBRANCH   2  12
BRANCH   1  22
ATOM     22  N   UNL     1      -1.359  -0.454  -2.346  0.00  0.00    -0.298 N 
ATOM     23  H   UNL     1      -0.478  -0.050  -2.318  0.00  0.00    +0.154 HD
BRANCH  22  29
ATOM     24  C   UNL     1      -2.024  -2.001  -0.617  0.00  0.00    -0.026 A 
ATOM     25  C   UNL     1      -2.695  -2.260   0.562  0.00  0.00    +0.005 A 
ATOM     26  C   UNL     1      -3.391  -1.250   1.200  0.00  0.00    +0.001 A 
ATOM     27  C   UNL     1      -3.416   0.024   0.661  0.00  0.00    +0.005 A 
ATOM     28  C   UNL     1      -2.747   0.290  -0.517  0.00  0.00    -0.029 A 
ATOM     29  C   UNL     1      -2.042  -0.721  -1.158  0.00  0.00    +0.039 A 
ATOM     30  C   UNL     1      -2.776   1.678  -1.103  0.00  0.00    +0.045 C 
BRANCH  24  32
ATOM     31  C   UNL     1       0.198  -3.072  -0.871  0.00  0.00    +0.009 C 
ATOM     32  C   UNL     1      -1.267  -3.103  -1.312  0.00  0.00    +0.033 C 
ENDBRANCH  24  32
ENDBRANCH  22  29
ENDBRANCH   1  22
TORSDOF 6
