REMARK  Name = ZINC43272573
REMARK  6 active torsions:
REMARK  status: ('A' for Active; 'I' for Inactive)
REMARK    1  A    between atoms: C_3  and  S_18
REMARK    2  A    between atoms: C_6  and  N_7
REMARK    3  A    between atoms: N_7  and  C_8
REMARK    4  A    between atoms: N_11  and  C_14
REMARK    5  A    between atoms: C_14  and  C_15
REMARK    6  A    between atoms: S_18  and  C_21
REMARK                            x       y       z     vdW  Elec       q    Type
REMARK                         _______ _______ _______ _____ _____    ______ ____
ROOT
ATOM      1  N   UNL     1      -1.197  -0.720   0.010  0.00  0.00    -0.341 N 
ATOM      2  H   UNL     1      -2.044  -0.248   0.021  0.00  0.00    +0.146 HD
ENDROOT
BRANCH   1   3
ATOM      3  C   UNL     1      -1.175  -2.185   0.002  0.00  0.00    +0.067 C 
ATOM      4  C   UNL     1      -1.066  -2.688  -1.440  0.00  0.00    +0.003 C 
ATOM      5  C   UNL     1      -1.124  -4.217  -1.448  0.00  0.00    -0.076 C 
ATOM      6  N   UNL     1      -2.395  -4.665  -0.867  0.00  0.00    +0.385 N 
ATOM      7  C   UNL     1      -2.475  -4.248   0.538  0.00  0.00    -0.076 C 
ATOM      8  C   UNL     1      -2.469  -2.720   0.622  0.00  0.00    +0.003 C 
ATOM      9  H   UNL     1      -3.161  -4.257  -1.382  0.00  0.00    -0.081 HD
BRANCH   6  10
ATOM     10  C   UNL     1      -2.480  -6.129  -0.947  0.00  0.00    +0.018 C 
BRANCH  10  11
ATOM     11  C   UNL     1      -3.834  -6.582  -0.465  0.00  0.00    +0.194 C 
ATOM     12  O   UNL     1      -4.648  -5.764  -0.090  0.00  0.00    -0.278 OA
ATOM     13  N   UNL     1      -4.139  -7.894  -0.449  0.00  0.00    -0.331 N 
ATOM     14  H   UNL     1      -3.488  -8.547  -0.748  0.00  0.00    +0.145 HD
ATOM     15  H   UNL     1      -5.011  -8.185  -0.138  0.00  0.00    +0.145 HD
ENDBRANCH  10  11
ENDBRANCH   6  10
ENDBRANCH   1   3
BRANCH   1  21
ATOM     16  C   UNL     1      -0.017   1.385   0.010  0.00  0.00    +0.025 A 
ATOM     17  C   UNL     1       1.171   2.090   0.002  0.00  0.00    +0.029 A 
ATOM     18  C   UNL     1       2.377   1.415  -0.013  0.00  0.00    +0.095 A 
ATOM     19  C   UNL     1       2.400   0.032  -0.021  0.00  0.00    +0.029 A 
ATOM     20  C   UNL     1       1.216  -0.679  -0.014  0.00  0.00    +0.025 A 
ATOM     21  C   UNL     1       0.002  -0.004   0.002  0.00  0.00    +0.027 A 
BRANCH  18  22
ATOM     22  S   UNL     1       3.890   2.319  -0.024  0.00  0.00    +0.058 S 
ATOM     23  O   UNL     1       4.828   1.448  -0.641  0.00  0.00    -0.164 OA
ATOM     24  O   UNL     1       3.562   3.567  -0.618  0.00  0.00    -0.164 OA
BRANCH  22  25
ATOM     25  C   UNL     1       4.308   2.549   1.726  0.00  0.00    +0.485 C 
ATOM     26  F   UNL     1       3.284   3.261   2.360  0.00  0.00    -0.183 F 
ATOM     27  F   UNL     1       4.456   1.300   2.338  0.00  0.00    -0.183 F 
ENDBRANCH  22  25
ENDBRANCH  18  22
ENDBRANCH   1  21
TORSDOF 6
