REMARK  Name = ZINC52067519
REMARK  11 active torsions:
REMARK  status: ('A' for Active; 'I' for Inactive)
REMARK    1  A    between atoms: C_1  and  C_2
REMARK    2  A    between atoms: C_2  and  N_3
REMARK    3  A    between atoms: N_3  and  C_4
REMARK    4  A    between atoms: C_4  and  C_6
REMARK    5  A    between atoms: C_4  and  C_7
REMARK    6  A    between atoms: C_12  and  O_13
REMARK    7  A    between atoms: O_13  and  C_14
REMARK    8  A    between atoms: C_14  and  C_16
REMARK    9  A    between atoms: C_14  and  C_17
REMARK   10  A    between atoms: N_19  and  C_20
REMARK   11  A    between atoms: C_20  and  C_21
REMARK                            x       y       z     vdW  Elec       q    Type
REMARK                         _______ _______ _______ _____ _____    ______ ____
ROOT
ATOM      1  C   UNL     1       1.399  -2.561   2.435  0.00  0.00    -0.019 A 
ATOM      2  C   UNL     1       1.562  -1.776   3.560  0.00  0.00    +0.020 A 
ATOM      3  C   UNL     1       2.493  -2.128   4.521  0.00  0.00    +0.018 A 
ATOM      4  C   UNL     1       3.262  -3.266   4.358  0.00  0.00    +0.019 A 
ATOM      5  C   UNL     1       3.102  -4.054   3.235  0.00  0.00    +0.047 A 
ATOM      6  C   UNL     1       2.165  -3.706   2.272  0.00  0.00    +0.123 A 
ATOM      7 BR   UNL     1       2.715  -1.051   6.060  0.00  0.00    -0.050 Br
ENDROOT
BRANCH   1   8
ATOM      8  C   UNL     1       0.385  -2.177   1.389  0.00  0.00    -0.040 C 
ATOM      9  C   UNL     1      -0.928  -2.917   1.655  0.00  0.00    -0.009 C 
BRANCH   8  10
ATOM     10  N   UNL     1       0.150  -0.728   1.442  0.00  0.00    +0.383 N 
ATOM     11  H   UNL     1       1.029  -0.242   1.348  0.00  0.00    -0.085 HD
ATOM     12  H   UNL     1      -0.274  -0.488   2.325  0.00  0.00    -0.085 HD
BRANCH  10  14
ATOM     13  C   UNL     1      -0.990   1.173   0.402  0.00  0.00    -0.017 C 
ATOM     14  C   UNL     1      -0.746  -0.337   0.346  0.00  0.00    -0.085 C 
ENDBRANCH  10  14
ENDBRANCH   8  10
ENDBRANCH   1   8
BRANCH   6  15
ATOM     15  O   UNL     1       2.002  -4.483   1.169  0.00  0.00    -0.480 OA
BRANCH  15  16
ATOM     16  C   UNL     1       2.740  -5.705   1.121  0.00  0.00    +0.255 C 
ATOM     17  C   UNL     1       4.144  -5.433   0.576  0.00  0.00    +0.062 C 
BRANCH  16  18
ATOM     18  C   UNL     1       2.033  -6.685   0.221  0.00  0.00    +0.254 C 
ATOM     19  O   UNL     1       1.048  -6.338  -0.397  0.00  0.00    -0.272 OA
ATOM     20  N   UNL     1       2.494  -7.946   0.102  0.00  0.00    -0.301 N 
ATOM     21  H   UNL     1       3.281  -8.223   0.597  0.00  0.00    +0.150 HD
BRANCH  20  22
ATOM     22  C   UNL     1       1.806  -8.898  -0.773  0.00  0.00    +0.193 C 
BRANCH  22  23
ATOM     23  C   UNL     1       2.500 -10.195  -0.729  0.00  0.00    -0.087 C 
ATOM     24  C   UNL     1       3.053 -11.230  -0.693  0.00  0.00    +0.005 C 
ENDBRANCH  22  23
ENDBRANCH  20  22
ENDBRANCH  16  18
ENDBRANCH  15  16
ENDBRANCH   6  15
TORSDOF 8
