REMARK  Name = ZINC33306539
REMARK  11 active torsions:
REMARK  status: ('A' for Active; 'I' for Inactive)
REMARK    1  A    between atoms: C_1  and  C_2
REMARK    2  A    between atoms: C_2  and  C_3
REMARK    3  A    between atoms: N_5  and  C_6
REMARK    4  A    between atoms: C_7  and  C_30
REMARK    5  A    between atoms: C_10  and  C_11
REMARK    6  A    between atoms: C_12  and  C_13
REMARK    7  A    between atoms: C_16  and  S_18
REMARK    8  A    between atoms: S_18  and  N_21
REMARK    9  A    between atoms: N_21  and  C_22
REMARK   10  A    between atoms: C_24  and  C_29
REMARK   11  A    between atoms: C_26  and  C_28
REMARK                            x       y       z     vdW  Elec       q    Type
REMARK                         _______ _______ _______ _____ _____    ______ ____
ROOT
ATOM      1  C   UNL     1      -5.187   4.731   1.039  0.00  0.00    +0.014 A 
ATOM      2  C   UNL     1      -6.474   5.196   1.261  0.00  0.00    +0.017 A 
ATOM      3  C   UNL     1      -6.654   6.543   1.471  0.00  0.00    +0.037 A 
ATOM      4  C   UNL     1      -5.577   7.371   1.443  0.00  0.00    +0.146 A 
ATOM      5  S   UNL     1      -4.235   6.239   1.118  0.00  0.00    -0.069 S 
ENDROOT
BRANCH   4   6
ATOM      6  S   UNL     1      -5.519   9.117   1.669  0.00  0.00    +0.079 S 
ATOM      7  O   UNL     1      -4.288   9.558   1.112  0.00  0.00    -0.149 OA
ATOM      8  O   UNL     1      -6.775   9.624   1.238  0.00  0.00    -0.149 OA
BRANCH   6   9
ATOM      9  N   UNL     1      -5.429   9.398   3.298  0.00  0.00    -0.216 N 
ATOM     10  H   UNL     1      -4.551   9.907   3.721  0.00  0.00    +0.174 HD
BRANCH   9  11
ATOM     11  C   UNL     1      -6.469   8.988   4.136  0.00  0.00    +0.049 A 
ATOM     12  C   UNL     1      -7.788   9.255   3.791  0.00  0.00    +0.028 A 
ATOM     13  C   UNL     1      -8.814   8.844   4.619  0.00  0.00    -0.048 A 
ATOM     14  C   UNL     1      -8.529   8.176   5.796  0.00  0.00    +0.006 A 
ATOM     15  C   UNL     1      -7.217   7.913   6.145  0.00  0.00    -0.048 A 
ATOM     16  C   UNL     1      -6.186   8.316   5.319  0.00  0.00    +0.028 A 
ATOM     17  C   UNL     1      -6.911   7.184   7.428  0.00  0.00    +0.044 C 
ATOM     18  C   UNL     1     -10.245   9.129   4.242  0.00  0.00    +0.044 C 
ENDBRANCH   9  11
ENDBRANCH   6   9
ENDBRANCH   4   6
BRANCH   1  20
ATOM     19  C   UNL     1      -3.415   3.115   0.594  0.00  0.00    +0.052 C 
ATOM     20  C   UNL     1      -4.729   3.363   0.797  0.00  0.00    +0.019 C 
BRANCH  19  25
ATOM     21  C   UNL     1      -1.653   1.348   0.130  0.00  0.00    +0.103 A 
ATOM     22  C   UNL     1      -1.662  -0.044  -0.060  0.00  0.00    +0.102 A 
ATOM     23  N   UNL     1      -2.892  -0.467   0.047  0.00  0.00    -0.081 NA
ATOM     24  O   UNL     1      -3.731   0.643   0.304  0.00  0.00    -0.353 OA
ATOM     25  C   UNL     1      -2.958   1.748   0.352  0.00  0.00    +0.182 A 
ATOM     26  C   UNL     1      -0.456  -0.904  -0.338  0.00  0.00    +0.071 C 
BRANCH  21  29
ATOM     27  C   UNL     1       0.676   1.706   0.481  0.00  0.00    +0.217 C 
ATOM     28  O   UNL     1       0.767   0.585   0.935  0.00  0.00    -0.275 OA
ATOM     29  N   UNL     1      -0.525   2.181   0.096  0.00  0.00    -0.281 N 
ATOM     30  H   UNL     1      -0.620   3.222  -0.245  0.00  0.00    +0.155 HD
BRANCH  27  32
ATOM     31  C   UNL     1       3.128   1.791   0.842  0.00  0.00    +0.013 C 
ATOM     32  C   UNL     1       1.906   2.565   0.343  0.00  0.00    +0.093 C 
ENDBRANCH  27  32
ENDBRANCH  21  29
ENDBRANCH  19  25
ENDBRANCH   1  20
TORSDOF 7
