REMARK  Name = ZINC59423213
REMARK  18 active torsions:
REMARK  status: ('A' for Active; 'I' for Inactive)
REMARK    1  A    between atoms: C_1  and  C_2
REMARK    2  A    between atoms: C_2  and  C_3
REMARK    3  A    between atoms: C_2  and  C_4
REMARK    4  A    between atoms: C_4  and  N_5
REMARK    5  A    between atoms: C_6  and  N_35
REMARK    6  A    between atoms: C_7  and  N_14
REMARK    7  A    between atoms: N_14  and  C_15
REMARK    8  A    between atoms: C_15  and  C_16
REMARK    9  A    between atoms: C_16  and  C_17
REMARK   10  A    between atoms: C_16  and  C_18
REMARK   11  A    between atoms: C_19  and  C_21
REMARK   12  A    between atoms: C_21  and  N_22
REMARK   13  A    between atoms: N_22  and  C_23
REMARK   14  A    between atoms: N_22  and  C_26
REMARK   15  A    between atoms: C_23  and  C_24
REMARK   16  A    between atoms: C_26  and  C_27
REMARK   17  A    between atoms: C_30  and  O_33
REMARK   18  A    between atoms: O_33  and  C_34
REMARK                            x       y       z     vdW  Elec       q    Type
REMARK                         _______ _______ _______ _____ _____    ______ ____
ROOT
ATOM      1  N   UNL     1      -4.049   2.865  -1.986  0.00  0.00    -0.266 N 
ATOM      2  C   UNL     1      -4.236   3.921  -1.167  0.00  0.00    +0.203 C 
ATOM      3  O   UNL     1      -3.691   3.952  -0.083  0.00  0.00    -0.277 OA
ENDROOT
BRANCH   1   6
ATOM      4  N   UNL     1      -1.162   0.593  -2.038  0.00  0.00    -0.280 N 
ATOM      5  C   UNL     1      -2.032   1.590  -2.412  0.00  0.00    +0.127 A 
ATOM      6  C   UNL     1      -3.138   1.848  -1.629  0.00  0.00    +0.140 A 
ATOM      7  C   UNL     1      -3.342   1.079  -0.468  0.00  0.00    +0.277 A 
ATOM      8  O   UNL     1      -4.312   1.286   0.242  0.00  0.00    -0.266 OA
ATOM      9  N   UNL     1      -2.460   0.114  -0.146  0.00  0.00    -0.273 N 
ATOM     10  H   UNL     1      -2.600  -0.417   0.654  0.00  0.00    +0.173 HD
ATOM     11  C   UNL     1      -1.390  -0.127  -0.925  0.00  0.00    +0.331 A 
ATOM     12  O   UNL     1      -0.611  -1.008  -0.614  0.00  0.00    -0.246 OA
BRANCH   5  13
ATOM     13  N   UNL     1      -1.801   2.322  -3.553  0.00  0.00    -0.343 N 
ATOM     14  H   UNL     1      -0.984   2.188  -4.058  0.00  0.00    +0.144 HD
ATOM     15  H   UNL     1      -2.456   2.972  -3.852  0.00  0.00    +0.144 HD
ENDBRANCH   5  13
BRANCH   4  16
ATOM     16  C   UNL     1       0.017   0.308  -2.860  0.00  0.00    +0.131 C 
BRANCH  16  18
ATOM     17  C   UNL     1      -1.375  -0.160  -4.882  0.00  0.00    +0.009 C 
ATOM     18  C   UNL     1      -0.339  -0.740  -3.917  0.00  0.00    +0.003 C 
ATOM     19  C   UNL     1       0.920  -1.128  -4.694  0.00  0.00    +0.009 C 
ENDBRANCH  16  18
ENDBRANCH   4  16
ENDBRANCH   1   6
BRANCH   1  20
ATOM     20  C   UNL     1      -4.791   2.775  -3.246  0.00  0.00    +0.117 C 
BRANCH  20  21
ATOM     21  C   UNL     1      -6.167   2.159  -2.985  0.00  0.00    +0.001 C 
ATOM     22  C   UNL     1      -6.999   2.207  -4.268  0.00  0.00    +0.009 C 
ATOM     23  C   UNL     1      -5.999   0.706  -2.539  0.00  0.00    +0.009 C 
ENDBRANCH  20  21
ENDBRANCH   1  20
BRANCH   2  24
ATOM     24  C   UNL     1      -5.122   5.061  -1.598  0.00  0.00    +0.020 C 
BRANCH  24  25
ATOM     25  N   UNL     1      -5.045   6.143  -0.607  0.00  0.00    +0.390 N 
ATOM     26  H   UNL     1      -5.240   5.772   0.311  0.00  0.00    -0.080 HD
BRANCH  25  27
ATOM     27  C   UNL     1      -6.032   7.180  -0.936  0.00  0.00    -0.051 C 
BRANCH  27  28
ATOM     28  C   UNL     1      -7.422   6.617  -0.786  0.00  0.00    -0.053 C 
ATOM     29  C   UNL     1      -8.290   7.214  -0.008  0.00  0.00    +0.002 C 
ENDBRANCH  27  28
ENDBRANCH  25  27
BRANCH  25  30
ATOM     30  C   UNL     1      -3.697   6.726  -0.623  0.00  0.00    -0.042 C 
BRANCH  30  31
ATOM     31  C   UNL     1      -3.580   7.751   0.475  0.00  0.00    -0.064 A 
ATOM     32  C   UNL     1      -3.910   9.071   0.226  0.00  0.00    +0.005 A 
ATOM     33  C   UNL     1      -3.803  10.012   1.231  0.00  0.00    +0.046 A 
ATOM     34  C   UNL     1      -3.365   9.633   2.492  0.00  0.00    +0.120 A 
ATOM     35  C   UNL     1      -3.035   8.308   2.740  0.00  0.00    +0.046 A 
ATOM     36  C   UNL     1      -3.149   7.370   1.732  0.00  0.00    +0.005 A 
BRANCH  34  37
ATOM     37  O   UNL     1      -3.259  10.557   3.482  0.00  0.00    -0.495 OA
ATOM     38  C   UNL     1      -2.801  10.095   4.755  0.00  0.00    +0.277 C 
ENDBRANCH  34  37
ENDBRANCH  30  31
ENDBRANCH  25  30
ENDBRANCH  24  25
ENDBRANCH   2  24
TORSDOF 13
