REMARK  Name = ZINC48025579
REMARK  10 active torsions:
REMARK  status: ('A' for Active; 'I' for Inactive)
REMARK    1  A    between atoms: C_1  and  C_2
REMARK    2  A    between atoms: C_6  and  C_24
REMARK    3  A    between atoms: C_7  and  N_8
REMARK    4  A    between atoms: C_9  and  C_11
REMARK    5  A    between atoms: C_11  and  C_13
REMARK    6  A    between atoms: C_11  and  N_14
REMARK    7  A    between atoms: C_17  and  C_20
REMARK    8  A    between atoms: C_20  and  C_21
REMARK    9  A    between atoms: C_24  and  C_25
REMARK   10  A    between atoms: C_24  and  C_26
REMARK                            x       y       z     vdW  Elec       q    Type
REMARK                         _______ _______ _______ _____ _____    ______ ____
ROOT
ATOM      1  C   UNL     1      -0.016   2.188   3.628  0.00  0.00    +0.016 C 
ATOM      2  C   UNL     1       1.466   2.179   4.007  0.00  0.00    -0.004 C 
ENDROOT
BRANCH   1   3
ATOM      3  N   UNL     1      -0.447   3.569   3.370  0.00  0.00    +0.387 N 
ATOM      4  C   UNL     1      -1.891   3.588   3.110  0.00  0.00    -0.078 C 
ATOM      5  C   UNL     1      -2.331   5.012   2.761  0.00  0.00    -0.015 C 
ATOM      6  C   UNL     1      -2.010   5.941   3.935  0.00  0.00    -0.006 C 
ATOM      7  C   UNL     1      -0.512   5.856   4.246  0.00  0.00    -0.015 C 
ATOM      8  C   UNL     1      -0.140   4.402   4.539  0.00  0.00    -0.078 C 
ATOM      9  H   UNL     1       0.043   3.928   2.565  0.00  0.00    -0.081 HD
BRANCH   6  10
ATOM     10  C   UNL     1      -2.374   7.380   3.563  0.00  0.00    +0.099 C 
BRANCH  10  11
ATOM     11  C   UNL     1      -2.173   8.275   4.759  0.00  0.00    +0.211 C 
ATOM     12  O   UNL     1      -1.777   7.808   5.806  0.00  0.00    -0.276 OA
ATOM     13  N   UNL     1      -2.433   9.594   4.665  0.00  0.00    -0.329 N 
ATOM     14  H   UNL     1      -2.749   9.967   3.828  0.00  0.00    +0.145 HD
ATOM     15  H   UNL     1      -2.303  10.170   5.435  0.00  0.00    +0.145 HD
ENDBRANCH  10  11
ENDBRANCH   6  10
ENDBRANCH   1   3
BRANCH   1  17
ATOM     16  N   UNL     1      -0.429   0.030   2.492  0.00  0.00    -0.286 N 
ATOM     17  C   UNL     1      -0.223   1.358   2.388  0.00  0.00    +0.203 C 
ATOM     18  O   UNL     1      -0.203   1.884   1.295  0.00  0.00    -0.277 OA
ATOM     19  H   UNL     1      -0.494  -0.383   3.367  0.00  0.00    +0.155 HD
BRANCH  16  26
ATOM     20  C   UNL     1      -2.680   0.461   0.806  0.00  0.00    +0.045 C 
ATOM     21  C   UNL     1      -1.633  -0.575   0.488  0.00  0.00    -0.029 A 
ATOM     22  C   UNL     1      -1.746  -1.345  -0.653  0.00  0.00    +0.005 A 
ATOM     23  C   UNL     1      -0.786  -2.296  -0.946  0.00  0.00    +0.001 A 
ATOM     24  C   UNL     1       0.291  -2.478  -0.098  0.00  0.00    +0.006 A 
ATOM     25  C   UNL     1       0.410  -1.712   1.044  0.00  0.00    -0.023 A 
ATOM     26  C   UNL     1      -0.550  -0.752   1.339  0.00  0.00    +0.040 A 
BRANCH  25  27
ATOM     27  C   UNL     1       1.584  -1.912   1.968  0.00  0.00    +0.015 C 
ATOM     28  C   UNL     1       1.585  -3.351   2.488  0.00  0.00    +0.012 C 
ATOM     29  C   UNL     1       2.884  -1.644   1.206  0.00  0.00    +0.012 C 
ENDBRANCH  25  27
ENDBRANCH  16  26
ENDBRANCH   1  17
TORSDOF 6
