REMARK  Name = ZINC13067317
REMARK  7 active torsions:
REMARK  status: ('A' for Active; 'I' for Inactive)
REMARK    1  A    between atoms: C_3  and  O_18
REMARK    2  A    between atoms: C_4  and  N_15
REMARK    3  A    between atoms: C_6  and  S_7
REMARK    4  A    between atoms: S_7  and  N_10
REMARK    5  A    between atoms: O_18  and  S_19
REMARK    6  A    between atoms: S_19  and  C_22
REMARK    7  A    between atoms: C_26  and  C_28
REMARK                            x       y       z     vdW  Elec       q    Type
REMARK                         _______ _______ _______ _____ _____    ______ ____
ROOT
ATOM      1  C   UNL     1       3.140   5.828  -2.684  0.00  0.00    +0.032 A 
ATOM      2  C   UNL     1       3.907   4.862  -2.062  0.00  0.00    +0.053 A 
ATOM      3  C   UNL     1       3.505   3.534  -2.090  0.00  0.00    +0.187 A 
ATOM      4  C   UNL     1       2.335   3.180  -2.747  0.00  0.00    +0.172 A 
ATOM      5  C   UNL     1       1.569   4.151  -3.363  0.00  0.00    +0.065 A 
ATOM      6  C   UNL     1       1.973   5.473  -3.334  0.00  0.00    +0.108 A 
ENDROOT
BRANCH   6   7
ATOM      7  S   UNL     1       0.998   6.708  -4.127  0.00  0.00    +0.061 S 
ATOM      8  O   UNL     1      -0.327   6.198  -4.196  0.00  0.00    -0.153 OA
ATOM      9  O   UNL     1       1.307   7.941  -3.491  0.00  0.00    -0.153 OA
BRANCH   7  10
ATOM     10  N   UNL     1       1.539   6.832  -5.687  0.00  0.00    -0.177 NA
ATOM     11  C   UNL     1       2.598   7.737  -6.157  0.00  0.00    +0.109 C 
ATOM     12  C   UNL     1       2.742   7.522  -7.679  0.00  0.00    +0.018 C 
ATOM     13  C   UNL     1       1.366   6.926  -8.075  0.00  0.00    +0.018 C 
ATOM     14  C   UNL     1       1.034   6.058  -6.836  0.00  0.00    +0.109 C 
ENDBRANCH   7  10
ENDBRANCH   6   7
BRANCH   4  15
ATOM     15  N   UNL     1       1.905   1.764  -2.783  0.00  0.00    +0.060 N 
ATOM     16  O   UNL     1       0.878   1.454  -3.360  0.00  0.00    -0.126 OA
ATOM     17  O   UNL     1       2.579   0.909  -2.236  0.00  0.00    -0.126 OA
ENDBRANCH   4  15
BRANCH   3  18
ATOM     18  O   UNL     1       4.257   2.582  -1.479  0.00  0.00    -0.340 OA
BRANCH  18  19
ATOM     19  S   UNL     1       3.888   2.340  -0.023  0.00  0.00    +0.151 S 
ATOM     20  O   UNL     1       3.592   3.612   0.538  0.00  0.00    -0.131 OA
ATOM     21  O   UNL     1       4.888   1.485   0.513  0.00  0.00    -0.131 OA
BRANCH  19  22
ATOM     22  C   UNL     1       2.383   1.423  -0.013  0.00  0.00    +0.129 A 
ATOM     23  C   UNL     1       1.169   2.089   0.002  0.00  0.00    +0.033 A 
ATOM     24  C   UNL     1      -0.017   1.379   0.010  0.00  0.00    +0.041 A 
ATOM     25  C   UNL     1       0.002  -0.004   0.002  0.00  0.00    +0.138 A 
ATOM     26  C   UNL     1       1.226  -0.682  -0.013  0.00  0.00    +0.100 A 
ATOM     27  C   UNL     1       2.419   0.045  -0.021  0.00  0.00    +0.048 A 
ATOM     28  F   UNL     1      -1.157  -0.698   0.009  0.00  0.00    -0.205 F 
BRANCH  26  29
ATOM     29  C   UNL     1       1.256  -2.157  -0.021  0.00  0.00    +0.389 C 
ATOM     30  O   UNL     1       0.216  -2.786  -0.014  0.00  0.00    -0.240 OA
ATOM     31  O   UNL     1       2.436  -2.807  -0.036  0.00  0.00    -0.240 OA
ENDBRANCH  26  29
ENDBRANCH  19  22
ENDBRANCH  18  19
ENDBRANCH   3  18
TORSDOF 7
