REMARK  Name = ZINC20613843
REMARK  10 active torsions:
REMARK  status: ('A' for Active; 'I' for Inactive)
REMARK    1  A    between atoms: C_4  and  C_7
REMARK    2  A    between atoms: C_10  and  C_34
REMARK    3  A    between atoms: C_14  and  C_17
REMARK    4  A    between atoms: N_19  and  N_20
REMARK    5  A    between atoms: N_20  and  C_21
REMARK    6  A    between atoms: C_21  and  N_23
REMARK    7  A    between atoms: N_23  and  C_24
REMARK    8  A    between atoms: C_24  and  C_25
REMARK    9  A    between atoms: C_25  and  C_26
REMARK   10  A    between atoms: C_26  and  N_27
REMARK                            x       y       z     vdW  Elec       q    Type
REMARK                         _______ _______ _______ _____ _____    ______ ____
ROOT
ATOM      1  C   UNL     1       3.252  -1.682   0.387  0.00  0.00    +0.104 C 
ATOM      2  C   UNL     1       4.031  -0.641  -0.425  0.00  0.00    +0.059 C 
ATOM      3  C   UNL     1       3.546   0.761  -0.028  0.00  0.00    +0.177 C 
ATOM      4  N   UNL     1       2.078   0.740  -0.014  0.00  0.00    -0.241 N 
ATOM      5  C   UNL     1       1.336  -0.390  -0.013  0.00  0.00    +0.130 A 
ATOM      6  C   UNL     1       0.002  -0.004   0.002  0.00  0.00    +0.097 A 
ATOM      7  C   UNL     1      -0.017   1.412   0.010  0.00  0.00    +0.149 A 
ATOM      8  N   UNL     1       1.216   1.837   0.000  0.00  0.00    -0.177 NA
ATOM      9  N   UNL     1       1.841  -1.673  -0.025  0.00  0.00    -0.322 N 
ATOM     10  H   UNL     1       1.339  -2.615  -0.289  0.00  0.00    +0.148 HD
ENDROOT
BRANCH   1  14
ATOM     11  C   UNL     1       4.911  -5.557  -0.302  0.00  0.00    +0.000 A 
ATOM     12  C   UNL     1       5.241  -4.858   0.844  0.00  0.00    +0.000 A 
ATOM     13  C   UNL     1       4.704  -3.604   1.067  0.00  0.00    +0.005 A 
ATOM     14  C   UNL     1       3.838  -3.049   0.144  0.00  0.00    -0.027 A 
ATOM     15  C   UNL     1       3.504  -3.750  -1.000  0.00  0.00    +0.005 A 
ATOM     16  C   UNL     1       4.045  -5.002  -1.226  0.00  0.00    +0.000 A 
ENDBRANCH   1  14
BRANCH   6  17
ATOM     17  C   UNL     1      -1.165  -0.894   0.009  0.00  0.00    +0.265 C 
ATOM     18  O   UNL     1      -1.010  -2.101   0.000  0.00  0.00    -0.268 OA
ATOM     19  N   UNL     1      -2.409  -0.375   0.024  0.00  0.00    -0.231 N 
ATOM     20  H   UNL     1      -2.549   0.716   0.031  0.00  0.00    +0.173 HD
BRANCH  19  21
ATOM     21  N   UNL     1      -3.522  -1.224   0.030  0.00  0.00    -0.246 N 
ATOM     22  H   UNL     1      -3.382  -2.315   0.023  0.00  0.00    +0.172 HD
BRANCH  21  23
ATOM     23  C   UNL     1      -4.766  -0.705   0.045  0.00  0.00    +0.147 C 
ATOM     24  S   UNL     1      -6.127  -1.743   0.053  0.00  0.00    -0.017 S 
BRANCH  23  25
ATOM     25  N   UNL     1      -4.938   0.632   0.055  0.00  0.00    -0.325 N 
ATOM     26  H   UNL     1      -4.063   1.299   0.050  0.00  0.00    +0.148 HD
BRANCH  25  27
ATOM     27  C   UNL     1      -6.290   1.196   0.072  0.00  0.00    +0.104 C 
BRANCH  27  28
ATOM     28  C   UNL     1      -6.204   2.724   0.080  0.00  0.00    +0.034 C 
BRANCH  28  29
ATOM     29  C   UNL     1      -7.616   3.313   0.097  0.00  0.00    +0.086 C 
BRANCH  29  30
ATOM     30  N   UNL     1      -7.534   4.780   0.104  0.00  0.00    -0.298 NA
ATOM     31  C   UNL     1      -6.943   5.268   1.359  0.00  0.00    +0.112 C 
ATOM     32  C   UNL     1      -6.821   6.793   1.300  0.00  0.00    +0.175 C 
ATOM     33  O   UNL     1      -8.111   7.360   1.053  0.00  0.00    -0.377 OA
ATOM     34  C   UNL     1      -8.716   6.907  -0.161  0.00  0.00    +0.175 C 
ATOM     35  C   UNL     1      -8.857   5.383  -0.117  0.00  0.00    +0.112 C 
ENDBRANCH  29  30
ENDBRANCH  28  29
ENDBRANCH  27  28
ENDBRANCH  25  27
ENDBRANCH  23  25
ENDBRANCH  21  23
ENDBRANCH  19  21
ENDBRANCH   6  17
BRANCH   3  36
ATOM     36  C   UNL     1       4.040   1.789  -1.048  0.00  0.00    +0.365 C 
ATOM     37  F   UNL     1       5.439   1.803  -1.056  0.00  0.00    -0.207 F 
ATOM     38  F   UNL     1       3.570   1.447  -2.320  0.00  0.00    -0.207 F 
ENDBRANCH   3  36
TORSDOF 10
