REMARK  Name = ZINC45585339
REMARK  11 active torsions:
REMARK  status: ('A' for Active; 'I' for Inactive)
REMARK    1  A    between atoms: C_1  and  C_2
REMARK    2  A    between atoms: C_5  and  S_9
REMARK    3  A    between atoms: C_7  and  C_8
REMARK    4  A    between atoms: S_9  and  C_10
REMARK    5  A    between atoms: C_10  and  C_11
REMARK    6  A    between atoms: C_11  and  C_12
REMARK    7  A    between atoms: C_12  and  C_13
REMARK    8  A    between atoms: C_13  and  C_14
REMARK    9  A    between atoms: C_13  and  C_15
REMARK   10  A    between atoms: C_13  and  N_18
REMARK   11  A    between atoms: N_18  and  C_19
REMARK                            x       y       z     vdW  Elec       q    Type
REMARK                         _______ _______ _______ _____ _____    ______ ____
ROOT
ATOM      1  C   UNL     1       0.096  -8.368  -3.580  0.00  0.00    +0.007 C 
ATOM      2  C   UNL     1      -1.142  -8.965  -2.908  0.00  0.00    -0.001 C 
ENDROOT
BRANCH   1   3
ATOM      3  C   UNL     1       1.337  -8.923  -2.930  0.00  0.00    +0.199 C 
ATOM      4  O   UNL     1       1.294  -9.329  -1.788  0.00  0.00    -0.278 OA
ATOM      5  N   UNL     1       2.496  -8.968  -3.618  0.00  0.00    -0.330 N 
ATOM      6  H   UNL     1       2.530  -8.643  -4.531  0.00  0.00    +0.145 HD
ATOM      7  H   UNL     1       3.295  -9.325  -3.200  0.00  0.00    +0.145 HD
ENDBRANCH   1   3
BRANCH   1   8
ATOM      8  N   UNL     1       0.094  -8.716  -5.008  0.00  0.00    +0.390 N 
ATOM      9  H   UNL     1      -0.737  -8.344  -5.443  0.00  0.00    -0.084 HD
ATOM     10  H   UNL     1       0.910  -8.322  -5.451  0.00  0.00    -0.084 HD
BRANCH   8  11
ATOM     11  C   UNL     1       0.113 -10.177  -5.156  0.00  0.00    -0.071 C 
ATOM     12  C   UNL     1       1.333 -10.803  -5.833  0.00  0.00    -0.017 C 
ATOM     13  C   UNL     1      -0.005 -10.745  -6.572  0.00  0.00    -0.017 C 
ENDBRANCH   8  11
ENDBRANCH   1   8
BRANCH   1  14
ATOM     14  C   UNL     1       0.077  -6.846  -3.426  0.00  0.00    -0.003 C 
BRANCH  14  15
ATOM     15  C   UNL     1       0.079  -6.484  -1.940  0.00  0.00    +0.010 C 
BRANCH  15  16
ATOM     16  C   UNL     1       0.060  -4.962  -1.785  0.00  0.00    +0.074 C 
BRANCH  16  17
ATOM     17  S   UNL     1       0.063  -4.533  -0.023  0.00  0.00    -0.125 S 
BRANCH  17  22
ATOM     18  C   UNL     1      -0.018   1.503   0.010  0.00  0.00    +0.044 C 
ATOM     19  C   UNL     1       0.002  -0.004   0.002  0.00  0.00    -0.047 A 
ATOM     20  C   UNL     1       0.006  -0.687  -1.201  0.00  0.00    +0.005 A 
ATOM     21  C   UNL     1       0.024  -2.068  -1.212  0.00  0.00    +0.015 A 
ATOM     22  C   UNL     1       0.040  -2.771  -0.013  0.00  0.00    +0.008 A 
ATOM     23  C   UNL     1       0.036  -2.081   1.193  0.00  0.00    +0.018 A 
ATOM     24  C   UNL     1       0.023  -0.700   1.197  0.00  0.00    -0.046 A 
ATOM     25  C   UNL     1       0.025   0.049   2.504  0.00  0.00    +0.044 C 
ENDBRANCH  17  22
ENDBRANCH  16  17
ENDBRANCH  15  16
ENDBRANCH  14  15
ENDBRANCH   1  14
TORSDOF 8
