REMARK  Name = ZINC29482067
REMARK  7 active torsions:
REMARK  status: ('A' for Active; 'I' for Inactive)
REMARK    1  A    between atoms: C_1  and  N_2
REMARK    2  A    between atoms: C_3  and  C_5
REMARK    3  A    between atoms: C_16  and  C_18
REMARK    4  A    between atoms: C_18  and  S_19
REMARK    5  A    between atoms: S_19  and  C_20
REMARK    6  A    between atoms: N_21  and  C_22
REMARK    7  A    between atoms: C_22  and  C_23
REMARK                            x       y       z     vdW  Elec       q    Type
REMARK                         _______ _______ _______ _____ _____    ______ ____
ROOT
ATOM      1  C   UNL     1      -5.673   2.920   2.308  0.00  0.00    +0.276 C 
ATOM      2  C   UNL     1      -4.954   2.431   1.042  0.00  0.00    +0.168 C 
ATOM      3  N   UNL     1      -5.196   0.983   0.925  0.00  0.00    -0.264 N 
ATOM      4  C   UNL     1      -6.493   0.513   1.198  0.00  0.00    +0.078 A 
ATOM      5  C   UNL     1      -6.855  -0.775   0.843  0.00  0.00    +0.027 A 
ATOM      6  C   UNL     1      -8.129  -1.235   1.122  0.00  0.00    +0.002 A 
ATOM      7  C   UNL     1      -9.038  -0.410   1.759  0.00  0.00    +0.004 A 
ATOM      8  C   UNL     1      -8.681   0.876   2.118  0.00  0.00    +0.047 A 
ATOM      9  C   UNL     1      -7.406   1.345   1.841  0.00  0.00    +0.143 A 
ATOM     10  O   UNL     1      -7.064   2.612   2.196  0.00  0.00    -0.476 OA
ATOM     11  C   UNL     1      -4.211   0.139   0.562  0.00  0.00    +0.230 C 
ATOM     12  O   UNL     1      -4.451  -1.039   0.396  0.00  0.00    -0.274 OA
ENDROOT
BRANCH   1  15
ATOM     13  C   UNL     1      -4.088   6.370   2.794  0.00  0.00    +0.128 C 
ATOM     14  N   UNL     1      -4.263   4.922   2.658  0.00  0.00    -0.315 N 
ATOM     15  C   UNL     1      -5.492   4.410   2.448  0.00  0.00    +0.255 C 
ATOM     16  O   UNL     1      -6.452   5.147   2.373  0.00  0.00    -0.272 OA
ATOM     17  H   UNL     1      -3.393   4.254   2.727  0.00  0.00    +0.148 HD
ENDBRANCH   1  15
BRANCH  11  18
ATOM     18  C   UNL     1      -2.809   0.657   0.364  0.00  0.00    +0.173 C 
BRANCH  18  19
ATOM     19  S   UNL     1      -1.696  -0.729   0.025  0.00  0.00    -0.084 S 
BRANCH  19  20
ATOM     20  C   UNL     1      -0.174   0.139  -0.160  0.00  0.00    +0.126 C 
ATOM     21  N   UNL     1      -0.144   1.437  -0.035  0.00  0.00    -0.365 N 
ATOM     22  N   UNL     1       0.983  -0.552  -0.437  0.00  0.00    -0.339 N 
ATOM     23  H   UNL     1       1.933  -0.010  -0.552  0.00  0.00    +0.144 HD
ATOM     24  H   UNL     1       0.958  -1.647  -0.543  0.00  0.00    +0.144 HD
ATOM     25  H   UNL     1      -1.082   2.000   0.081  0.00  0.00    +0.161 HD
BRANCH  21  26
ATOM     26  C   UNL     1       1.138   2.145  -0.048  0.00  0.00    +0.146 C 
BRANCH  26  27
ATOM     27  C   UNL     1       1.217   3.035  -1.290  0.00  0.00    +0.137 C 
ATOM     28  C   UNL     1       2.595   3.739  -1.361  0.00  0.00    +0.035 C 
ATOM     29  C   UNL     1       2.709   4.011  -2.886  0.00  0.00    +0.031 C 
ATOM     30  C   UNL     1       1.997   2.783  -3.492  0.00  0.00    +0.160 C 
ATOM     31  O   UNL     1       1.142   2.235  -2.481  0.00  0.00    -0.375 OA
ENDBRANCH  26  27
ENDBRANCH  21  26
ENDBRANCH  19  20
ENDBRANCH  18  19
ENDBRANCH  11  18
TORSDOF 6
