REMARK  Name = ZINC19323689
REMARK  10 active torsions:
REMARK  status: ('A' for Active; 'I' for Inactive)
REMARK    1  A    between atoms: C_1  and  C_2
REMARK    2  A    between atoms: C_2  and  C_3
REMARK    3  A    between atoms: C_2  and  C_25
REMARK    4  A    between atoms: C_4  and  O_24
REMARK    5  A    between atoms: C_5  and  C_21
REMARK    6  A    between atoms: C_9  and  C_13
REMARK    7  A    between atoms: C_15  and  O_20
REMARK    8  A    between atoms: C_16  and  O_19
REMARK    9  A    between atoms: C_21  and  C_22
REMARK   10  A    between atoms: C_21  and  C_23
REMARK                            x       y       z     vdW  Elec       q    Type
REMARK                         _______ _______ _______ _____ _____    ______ ____
ROOT
ATOM      1  C   UNL     1       0.615  -0.592   1.253  0.00  0.00    -0.002 C 
ATOM      2  C   UNL     1       0.591  -2.116   1.435  0.00  0.00    +0.126 C 
ATOM      3  C   UNL     1       1.477  -2.473   2.635  0.00  0.00    -0.002 C 
ATOM      4  C   UNL     1       2.897  -1.964   2.368  0.00  0.00    -0.065 C 
ATOM      5  N   UNL     1       2.874  -0.507   2.199  0.00  0.00    +0.394 N 
ATOM      6  C   UNL     1       2.062  -0.148   1.014  0.00  0.00    -0.065 C 
ATOM      7  C   UNL     1       2.344   0.136   3.404  0.00  0.00    +0.033 C 
ATOM      8  N   UNL     1       0.967  -0.312   3.653  0.00  0.00    -0.310 NA
ATOM      9  C   UNL     1       0.928  -1.765   3.880  0.00  0.00    +0.090 C 
ATOM     10  C   UNL     1       0.099   0.077   2.532  0.00  0.00    +0.090 C 
ATOM     11  H   UNL     1       3.818  -0.181   2.055  0.00  0.00    -0.079 HD
ENDROOT
BRANCH   7  12
ATOM     12  C   UNL     1       2.357   1.632   3.218  0.00  0.00    -0.044 A 
ATOM     13  C   UNL     1       1.412   2.414   3.857  0.00  0.00    +0.052 A 
ATOM     14  C   UNL     1       1.422   3.789   3.687  0.00  0.00    +0.158 A 
ATOM     15  C   UNL     1       2.385   4.380   2.873  0.00  0.00    +0.158 A 
ATOM     16  C   UNL     1       3.328   3.590   2.236  0.00  0.00    +0.049 A 
ATOM     17  C   UNL     1       3.315   2.219   2.414  0.00  0.00    +0.007 A 
BRANCH  15  18
ATOM     18  O   UNL     1       2.398   5.729   2.703  0.00  0.00    -0.503 OA
ATOM     19  H   UNL     1       2.941   6.201   3.349  0.00  0.00    +0.292 HD
ENDBRANCH  15  18
BRANCH  14  20
ATOM     20  O   UNL     1       0.494   4.560   4.314  0.00  0.00    -0.503 OA
ATOM     21  H   UNL     1       0.764   4.865   5.191  0.00  0.00    +0.292 HD
ENDBRANCH  14  20
ENDBRANCH   7  12
BRANCH   1  23
ATOM     22  C   UNL     1       0.265  -0.869  -1.206  0.00  0.00    +0.008 C 
ATOM     23  C   UNL     1      -0.260  -0.193   0.062  0.00  0.00    -0.009 C 
ATOM     24  C   UNL     1      -0.217   1.326  -0.115  0.00  0.00    +0.008 C 
ENDBRANCH   1  23
BRANCH   3  25
ATOM     25  C   UNL     1       1.479  -3.988   2.852  0.00  0.00    -0.009 C 
ATOM     26  C   UNL     1       2.028  -4.681   1.603  0.00  0.00    +0.008 C 
ATOM     27  C   UNL     1       2.362  -4.329   4.054  0.00  0.00    +0.008 C 
ENDBRANCH   3  25
BRANCH   2  28
ATOM     28  O   UNL     1      -0.748  -2.551   1.678  0.00  0.00    -0.391 OA
ATOM     29  H   UNL     1      -0.850  -3.512   1.710  0.00  0.00    +0.210 HD
ENDBRANCH   2  28
TORSDOF 6
