REMARK  Name = ZINC62131751
REMARK  8 active torsions:
REMARK  status: ('A' for Active; 'I' for Inactive)
REMARK    1  A    between atoms: C_4  and  N_13
REMARK    2  A    between atoms: C_5  and  C_7
REMARK    3  A    between atoms: C_7  and  N_8
REMARK    4  A    between atoms: C_14  and  C_16
REMARK    5  A    between atoms: N_18  and  C_19
REMARK    6  A    between atoms: C_19  and  C_20
REMARK    7  A    between atoms: C_20  and  C_21
REMARK    8  A    between atoms: C_20  and  O_28
REMARK                            x       y       z     vdW  Elec       q    Type
REMARK                         _______ _______ _______ _____ _____    ______ ____
ROOT
ATOM      1  N   UNL     1       3.620  -0.649  -0.037  0.00  0.00    -0.278 N 
ATOM      2  C   UNL     1       4.729  -0.056   0.448  0.00  0.00    +0.303 C 
ATOM      3  O   UNL     1       4.652   1.031   0.981  0.00  0.00    -0.265 OA
ATOM      4  H   UNL     1       3.668  -1.552  -0.391  0.00  0.00    +0.155 HD
ENDROOT
BRANCH   1   8
ATOM      5  C   UNL     1      -0.010   1.391  -0.020  0.00  0.00    +0.000 A 
ATOM      6  C   UNL     1       1.179   2.098  -0.025  0.00  0.00    +0.002 A 
ATOM      7  C   UNL     1       2.384   1.425  -0.031  0.00  0.00    +0.023 A 
ATOM      8  C   UNL     1       2.402   0.035  -0.031  0.00  0.00    +0.035 A 
ATOM      9  C   UNL     1       1.206  -0.672  -0.026  0.00  0.00    -0.043 A 
ATOM     10  C   UNL     1       0.004   0.008  -0.021  0.00  0.00    +0.003 A 
BRANCH   9  11
ATOM     11  C   UNL     1       1.221  -2.179  -0.027  0.00  0.00    -0.041 C 
BRANCH  11  12
ATOM     12  N   UNL     1       1.473  -2.667   1.336  0.00  0.00    +0.382 N 
ATOM     13  C   UNL     1       0.309  -2.370   2.209  0.00  0.00    -0.078 C 
ATOM     14  C   UNL     1       0.464  -3.390   3.365  0.00  0.00    -0.020 C 
ATOM     15  C   UNL     1       0.985  -4.654   2.643  0.00  0.00    -0.020 C 
ATOM     16  C   UNL     1       1.609  -4.139   1.333  0.00  0.00    -0.078 C 
ATOM     17  H   UNL     1       2.307  -2.241   1.710  0.00  0.00    -0.081 HD
ENDBRANCH  11  12
ENDBRANCH   9  11
ENDBRANCH   1   8
BRANCH   2  18
ATOM     18  C   UNL     1       6.053  -0.738   0.329  0.00  0.00    +0.299 C 
ATOM     19  O   UNL     1       6.130  -1.825  -0.204  0.00  0.00    -0.265 OA
ATOM     20  N   UNL     1       7.162  -0.144   0.814  0.00  0.00    -0.305 N 
ATOM     21  H   UNL     1       7.100   0.725   1.240  0.00  0.00    +0.149 HD
BRANCH  20  22
ATOM     22  C   UNL     1       8.460  -0.813   0.698  0.00  0.00    +0.140 C 
BRANCH  22  23
ATOM     23  C   UNL     1       9.544   0.068   1.323  0.00  0.00    +0.162 C 
BRANCH  23  24
ATOM     24  C   UNL     1      10.880  -0.620   1.204  0.00  0.00    -0.017 A 
ATOM     25  C   UNL     1      11.627  -0.481   0.049  0.00  0.00    +0.009 A 
ATOM     26  C   UNL     1      12.853  -1.111  -0.062  0.00  0.00    +0.039 A 
ATOM     27  C   UNL     1      13.332  -1.880   0.985  0.00  0.00    +0.123 A 
ATOM     28  C   UNL     1      12.583  -2.018   2.141  0.00  0.00    +0.039 A 
ATOM     29  C   UNL     1      11.360  -1.383   2.251  0.00  0.00    +0.009 A 
ATOM     30  F   UNL     1      14.530  -2.496   0.877  0.00  0.00    -0.205 F 
ENDBRANCH  23  24
BRANCH  23  31
ATOM     31  O   UNL     1       9.591   1.322   0.641  0.00  0.00    -0.386 OA
ATOM     32  H   UNL     1       9.792   1.250  -0.303  0.00  0.00    +0.210 HD
ENDBRANCH  23  31
ENDBRANCH  22  23
ENDBRANCH  20  22
ENDBRANCH   2  18
TORSDOF 8
