REMARK  Name = ZINC02110941
REMARK  8 active torsions:
REMARK  status: ('A' for Active; 'I' for Inactive)
REMARK    1  A    between atoms: C_1  and  N_58
REMARK    2  A    between atoms: C_8  and  O_30
REMARK    3  A    between atoms: C_10  and  C_12
REMARK    4  A    between atoms: N_19  and  C_22
REMARK    5  A    between atoms: C_20  and  O_21
REMARK    6  A    between atoms: C_22  and  C_23
REMARK    7  A    between atoms: C_23  and  C_24
REMARK    8  A    between atoms: O_30  and  C_31
REMARK                            x       y       z     vdW  Elec       q    Type
REMARK                         _______ _______ _______ _____ _____    ______ ____
ROOT
ATOM      1  C   UNL     1      -1.322   9.358  -1.378  0.00  0.00    +0.067 A 
ATOM      2  C   UNL     1      -0.099  10.052  -1.386  0.00  0.00    +0.258 A 
ATOM      3  O   UNL     1      -0.084  11.270  -1.380  0.00  0.00    -0.267 OA
ATOM      4  N   UNL     1       1.058   9.359  -1.401  0.00  0.00    -0.302 N 
ATOM      5  H   UNL     1       1.929   9.849  -1.406  0.00  0.00    +0.171 HD
ATOM      6  C   UNL     1       1.048   8.014  -1.408  0.00  0.00    +0.163 A 
ATOM      7  S   UNL     1       2.531   7.160  -1.427  0.00  0.00    -0.013 S 
ATOM      8  N   UNL     1      -0.111   7.330  -1.400  0.00  0.00    -0.292 N 
ATOM      9  C   UNL     1      -1.311   7.995  -1.391  0.00  0.00    +0.202 A 
ENDROOT
BRANCH   1  19
ATOM     10  C   UNL     1      -2.588  10.302   1.049  0.00  0.00    -0.095 C 
ATOM     11  C   UNL     1      -3.825  11.904  -0.285  0.00  0.00    -0.073 C 
ATOM     12  C   UNL     1      -3.639  12.896  -1.433  0.00  0.00    +0.017 C 
ATOM     13  C   UNL     1      -3.255  12.161  -2.692  0.00  0.00    -0.040 A 
ATOM     14  C   UNL     1      -3.385  12.818  -3.906  0.00  0.00    +0.053 A 
ATOM     15  C   UNL     1      -3.043  12.185  -5.089  0.00  0.00    +0.170 A 
ATOM     16  C   UNL     1      -2.562  10.880  -5.058  0.00  0.00    +0.208 A 
ATOM     17  C   UNL     1      -2.433  10.225  -3.841  0.00  0.00    +0.167 A 
ATOM     18  C   UNL     1      -2.781  10.866  -2.656  0.00  0.00    -0.008 A 
ATOM     19  C   UNL     1      -2.627  10.111  -1.362  0.00  0.00    +0.007 C 
ATOM     20  O   UNL     1      -2.297  10.482  -6.337  0.00  0.00    -0.449 OA
ATOM     21  C   UNL     1      -3.003  11.409  -7.182  0.00  0.00    +0.467 C 
ATOM     22  O   UNL     1      -3.079  12.607  -6.386  0.00  0.00    -0.452 OA
ATOM     23  N   UNL     1      -2.621  11.050  -0.228  0.00  0.00    +0.386 N 
ATOM     24  H   UNL     1      -1.786  11.644  -0.289  0.00  0.00    -0.081 HD
BRANCH  17  25
ATOM     25  O   UNL     1      -1.964   8.949  -3.807  0.00  0.00    -0.491 OA
ATOM     26  C   UNL     1      -2.929   7.900  -3.902  0.00  0.00    +0.277 C 
ENDBRANCH  17  25
ENDBRANCH   1  19
BRANCH   9  27
ATOM     27  O   UNL     1      -2.471   7.304  -1.389  0.00  0.00    -0.493 OA
ATOM     28  H   UNL     1      -2.357   6.344  -1.395  0.00  0.00    +0.294 HD
ENDBRANCH   9  27
BRANCH   8  29
ATOM     29  C   UNL     1      -0.091   5.865  -1.409  0.00  0.00    +0.132 C 
BRANCH  29  30
ATOM     30  C   UNL     1      -0.070   5.347   0.031  0.00  0.00    +0.057 C 
BRANCH  30  31
ATOM     31  C   UNL     1      -0.050   3.840   0.023  0.00  0.00    -0.046 A 
ATOM     32  C   UNL     1       1.156   3.165   0.008  0.00  0.00    +0.004 A 
ATOM     33  C   UNL     1       1.175   1.783   0.000  0.00  0.00    +0.000 A 
ATOM     34  C   UNL     1      -0.013   1.076   0.008  0.00  0.00    +0.000 A 
ATOM     35  C   UNL     1      -1.219   1.751   0.017  0.00  0.00    +0.000 A 
ATOM     36  C   UNL     1      -1.238   3.133   0.030  0.00  0.00    +0.004 A 
ENDBRANCH  30  31
ENDBRANCH  29  30
ENDBRANCH   8  29
TORSDOF 6
