REMARK  Name = ZINC39627159
REMARK  9 active torsions:
REMARK  status: ('A' for Active; 'I' for Inactive)
REMARK    1  A    between atoms: C_1  and  C_2
REMARK    2  A    between atoms: C_2  and  N_3
REMARK    3  A    between atoms: N_3  and  C_4
REMARK    4  A    between atoms: N_3  and  C_6
REMARK    5  A    between atoms: C_4  and  C_5
REMARK    6  A    between atoms: C_6  and  C_7
REMARK    7  A    between atoms: C_7  and  N_8
REMARK    8  A    between atoms: C_9  and  C_11
REMARK    9  A    between atoms: C_22  and  C_24
REMARK                            x       y       z     vdW  Elec       q    Type
REMARK                         _______ _______ _______ _____ _____    ______ ____
ROOT
ATOM      1  C   UNL     1       0.556  -5.616   2.369  0.00  0.00    +0.100 C 
ATOM      2  C   UNL     1       1.549  -6.062   1.274  0.00  0.00    +0.121 C 
ATOM      3  N   UNL     1       2.866  -6.095   1.953  0.00  0.00    -0.300 N 
ATOM      4  C   UNL     1       2.574  -6.647   3.297  0.00  0.00    +0.115 C 
ATOM      5  C   UNL     1       1.230  -6.004   3.696  0.00  0.00    -0.004 C 
ATOM      6  C   UNL     1       0.368  -7.010   4.452  0.00  0.00    -0.010 C 
ATOM      7  C   UNL     1       1.030  -7.337   5.794  0.00  0.00    -0.082 C 
ATOM      8  N   UNL     1       1.184  -6.106   6.578  0.00  0.00    +0.379 N 
ATOM      9  C   UNL     1       2.090  -5.181   5.887  0.00  0.00    -0.082 C 
ATOM     10  C   UNL     1       1.472  -4.763   4.549  0.00  0.00    -0.010 C 
ATOM     11  C   UNL     1       4.060  -5.711   1.459  0.00  0.00    +0.219 C 
ATOM     12  O   UNL     1       5.057  -5.800   2.144  0.00  0.00    -0.275 OA
ATOM     13  H   UNL     1       0.282  -5.667   6.694  0.00  0.00    -0.086 HD
ATOM     14  H   UNL     1       1.564  -6.332   7.485  0.00  0.00    -0.086 HD
ENDROOT
BRANCH  11  15
ATOM     15  C   UNL     1       4.157  -5.170   0.056  0.00  0.00    +0.079 C 
ATOM     16  C   UNL     1       3.682  -6.235  -0.938  0.00  0.00    +0.041 C 
ATOM     17  C   UNL     1       3.857  -5.707  -2.364  0.00  0.00    +0.160 C 
ATOM     18  O   UNL     1       5.228  -5.362  -2.577  0.00  0.00    -0.380 OA
ATOM     19  C   UNL     1       5.713  -4.336  -1.708  0.00  0.00    +0.160 C 
ATOM     20  C   UNL     1       5.612  -4.810  -0.256  0.00  0.00    +0.041 C 
ENDBRANCH  11  15
BRANCH   1  22
ATOM     21  N   UNL     1      -0.825  -3.594   2.725  0.00  0.00    -0.317 N 
ATOM     22  C   UNL     1       0.341  -4.125   2.307  0.00  0.00    +0.218 C 
ATOM     23  O   UNL     1       1.218  -3.404   1.881  0.00  0.00    -0.275 OA
ATOM     24  H   UNL     1      -1.526  -4.172   3.065  0.00  0.00    +0.149 HD
BRANCH  21  25
ATOM     25  C   UNL     1      -1.034  -2.146   2.664  0.00  0.00    +0.085 C 
BRANCH  25  26
ATOM     26  C   UNL     1      -2.429  -1.809   3.193  0.00  0.00    -0.060 C 
BRANCH  26  27
ATOM     27  N   UNL     1      -2.639  -0.356   3.133  0.00  0.00    +0.380 N 
ATOM     28  H   UNL     1      -1.896   0.112   3.630  0.00  0.00    -0.082 HD
BRANCH  27  30
ATOM     29  C   UNL     1      -2.716   1.607   1.671  0.00  0.00    -0.017 C 
ATOM     30  C   UNL     1      -2.639   0.080   1.730  0.00  0.00    -0.082 C 
ENDBRANCH  27  30
BRANCH  27  31
ATOM     31  C   UNL     1      -3.928  -0.021   3.750  0.00  0.00    -0.082 C 
ATOM     32  C   UNL     1      -3.876  -0.342   5.245  0.00  0.00    -0.017 C 
ENDBRANCH  27  31
ENDBRANCH  26  27
ENDBRANCH  25  26
ENDBRANCH  21  25
ENDBRANCH   1  22
TORSDOF 7
