REMARK  Name = ZINC63746915
REMARK  6 active torsions:
REMARK  status: ('A' for Active; 'I' for Inactive)
REMARK    1  A    between atoms: C_1  and  C_2
REMARK    2  A    between atoms: C_5  and  O_28
REMARK    3  A    between atoms: C_6  and  N_8
REMARK    4  A    between atoms: N_11  and  C_12
REMARK    5  A    between atoms: C_17  and  C_18
REMARK    6  A    between atoms: O_28  and  C_29
REMARK                            x       y       z     vdW  Elec       q    Type
REMARK                         _______ _______ _______ _____ _____    ______ ____
ROOT
ATOM      1  C   UNL     1       0.240  -2.038   5.893  0.00  0.00    +0.040 A 
ATOM      2  C   UNL     1       0.219  -0.650   5.911  0.00  0.00    +0.024 A 
ATOM      3  C   UNL     1       0.220   0.024   7.116  0.00  0.00    +0.002 A 
ATOM      4  C   UNL     1       0.243  -0.682   8.305  0.00  0.00    +0.000 A 
ATOM      5  C   UNL     1       0.265  -2.065   8.291  0.00  0.00    +0.008 A 
ATOM      6  C   UNL     1       0.258  -2.745   7.088  0.00  0.00    -0.000 A 
ENDROOT
BRANCH   6   7
ATOM      7  C   UNL     1       0.275  -4.252   7.074  0.00  0.00    +0.135 C 
ATOM      8  C   UNL     1       1.699  -4.756   6.994  0.00  0.00    +0.012 C 
ATOM      9  C   UNL     1       1.901  -5.487   8.114  0.00  0.00    -0.004 A 
ATOM     10  C   UNL     1       3.060  -6.231   8.620  0.00  0.00    +0.010 A 
ATOM     11  C   UNL     1       2.958  -6.881   9.801  0.00  0.00    +0.001 A 
ATOM     12  C   UNL     1       1.775  -6.862  10.553  0.00  0.00    +0.002 A 
ATOM     13  C   UNL     1       0.668  -6.201  10.154  0.00  0.00    +0.026 A 
ATOM     14  C   UNL     1       0.663  -5.482   8.927  0.00  0.00    +0.043 A 
ATOM     15  N   UNL     1      -0.269  -4.776   8.331  0.00  0.00    -0.374 N 
ATOM     16  H   UNL     1      -1.167  -4.625   8.666  0.00  0.00    +0.161 HD
ENDBRANCH   6   7
BRANCH   1  20
ATOM     17  N   UNL     1      -0.526  -2.936   2.478  0.00  0.00    -0.266 N 
ATOM     18  C   UNL     1      -0.446  -2.230   3.623  0.00  0.00    +0.308 C 
ATOM     19  O   UNL     1      -0.992  -1.147   3.709  0.00  0.00    -0.252 OA
ATOM     20  N   UNL     1       0.239  -2.724   4.673  0.00  0.00    -0.269 N 
ATOM     21  H   UNL     1      -0.163  -3.834   2.436  0.00  0.00    +0.156 HD
ATOM     22  H   UNL     1       0.731  -3.555   4.583  0.00  0.00    +0.156 HD
BRANCH  17  28
ATOM     23  C   UNL     1      -1.866   1.056  -0.061  0.00  0.00    +0.044 C 
ATOM     24  C   UNL     1      -1.800  -0.441   0.092  0.00  0.00    -0.048 A 
ATOM     25  C   UNL     1      -2.341  -1.259  -0.883  0.00  0.00    +0.007 A 
ATOM     26  C   UNL     1      -2.283  -2.633  -0.748  0.00  0.00    +0.048 A 
ATOM     27  C   UNL     1      -1.681  -3.196   0.366  0.00  0.00    +0.141 A 
ATOM     28  C   UNL     1      -1.136  -2.373   1.349  0.00  0.00    +0.077 A 
ATOM     29  C   UNL     1      -1.193  -0.994   1.204  0.00  0.00    +0.030 A 
BRANCH  27  30
ATOM     30  O   UNL     1      -1.624  -4.548   0.500  0.00  0.00    -0.493 OA
ATOM     31  C   UNL     1      -2.204  -5.329  -0.546  0.00  0.00    +0.277 C 
ENDBRANCH  27  30
ENDBRANCH  17  28
ENDBRANCH   1  20
TORSDOF 4
