REMARK  Name = ZINC36264594
REMARK  6 active torsions:
REMARK  status: ('A' for Active; 'I' for Inactive)
REMARK    1  A    between atoms: C_1  and  O_2
REMARK    2  A    between atoms: O_2  and  C_3
REMARK    3  A    between atoms: C_4  and  S_11
REMARK    4  A    between atoms: S_11  and  N_14
REMARK    5  A    between atoms: N_14  and  C_15
REMARK    6  A    between atoms: C_18  and  N_20
REMARK                            x       y       z     vdW  Elec       q    Type
REMARK                         _______ _______ _______ _____ _____    ______ ____
ROOT
ATOM      1  S   UNL     1       2.946  -0.397  -0.585  0.00  0.00    +0.062 S 
ATOM      2  O   UNL     1       2.693   0.896  -1.117  0.00  0.00    -0.153 OA
ATOM      3  O   UNL     1       4.250  -0.829  -0.221  0.00  0.00    -0.153 OA
ENDROOT
BRANCH   1   5
ATOM      4  C   UNL     1       1.987  -1.717   1.609  0.00  0.00    +0.160 A 
ATOM      5  C   UNL     1       1.944  -0.553   0.856  0.00  0.00    +0.149 A 
ATOM      6  C   UNL     1       1.115   0.484   1.237  0.00  0.00    +0.052 A 
ATOM      7  C   UNL     1       0.328   0.363   2.368  0.00  0.00    +0.044 A 
ATOM      8  C   UNL     1       0.369  -0.797   3.121  0.00  0.00    +0.039 A 
ATOM      9  C   UNL     1       1.193  -1.840   2.740  0.00  0.00    +0.063 A 
ATOM     10 BR   UNL     1       1.245  -3.428   3.765  0.00  0.00    -0.046 Br
ATOM     11 CL   UNL     1      -0.713   1.668   2.845  0.00  0.00    -0.083 Cl
BRANCH   4  13
ATOM     12  C   UNL     1       2.254  -3.715   0.347  0.00  0.00    +0.277 C 
ATOM     13  O   UNL     1       2.803  -2.739   1.236  0.00  0.00    -0.492 OA
ENDBRANCH   4  13
ENDBRANCH   1   5
BRANCH   1  14
ATOM     14  N   UNL     1       2.379  -1.486  -1.696  0.00  0.00    -0.188 NA
ATOM     15  H   UNL     1       2.937  -2.229  -1.976  0.00  0.00    +0.148 HD
BRANCH  14  16
ATOM     16  C   UNL     1       1.035  -1.328  -2.257  0.00  0.00    +0.061 C 
ATOM     17  C   UNL     1       0.825  -1.739  -3.715  0.00  0.00    +0.004 C 
ATOM     18  C   UNL     1       0.253  -2.601  -2.587  0.00  0.00    -0.055 C 
BRANCH  18  19
ATOM     19  N   UNL     1      -1.201  -2.576  -2.385  0.00  0.00    +0.381 N 
ATOM     20  H   UNL     1      -1.609  -1.855  -2.962  0.00  0.00    -0.090 HD
ATOM     21  H   UNL     1      -1.592  -3.471  -2.639  0.00  0.00    -0.090 HD
ATOM     22  H   UNL     1      -1.403  -2.384  -1.415  0.00  0.00    -0.090 HD
ENDBRANCH  18  19
ENDBRANCH  14  16
ENDBRANCH   1  14
TORSDOF 5
