REMARK  Name = ZINC63985956
REMARK  7 active torsions:
REMARK  status: ('A' for Active; 'I' for Inactive)
REMARK    1  A    between atoms: C_4  and  C_7
REMARK    2  A    between atoms: C_7  and  C_8
REMARK    3  A    between atoms: C_8  and  N_9
REMARK    4  A    between atoms: N_12  and  C_32
REMARK    5  A    between atoms: N_18  and  C_21
REMARK    6  A    between atoms: C_21  and  C_22
REMARK    7  A    between atoms: C_32  and  C_33
REMARK                            x       y       z     vdW  Elec       q    Type
REMARK                         _______ _______ _______ _____ _____    ______ ____
ROOT
ATOM      1  N   UNL     1       5.131  -1.591   1.748  0.00  0.00    -0.271 N 
ATOM      2  C   UNL     1       5.303  -2.926   1.793  0.00  0.00    +0.312 C 
ATOM      3  O   UNL     1       4.388  -3.726   1.761  0.00  0.00    -0.252 OA
ATOM      4  N   UNL     1       6.593  -3.273   1.874  0.00  0.00    -0.215 N 
ATOM      5  C   UNL     1       7.398  -2.190   1.892  0.00  0.00    +0.247 C 
ATOM      6  O   UNL     1       8.609  -2.176   1.959  0.00  0.00    -0.273 OA
ATOM      7  C   UNL     1       6.473  -0.999   1.803  0.00  0.00    +0.112 C 
ATOM      8  C   UNL     1       6.621  -0.117   3.039  0.00  0.00    +0.017 C 
ATOM      9  C   UNL     1       5.708   1.104   2.902  0.00  0.00    -0.076 C 
ATOM     10  N   UNL     1       6.071   1.855   1.695  0.00  0.00    +0.381 N 
ATOM     11  C   UNL     1       5.837   1.032   0.503  0.00  0.00    -0.076 C 
ATOM     12  C   UNL     1       6.756  -0.193   0.538  0.00  0.00    +0.017 C 
ATOM     13  H   UNL     1       7.046   2.111   1.740  0.00  0.00    -0.082 HD
ENDROOT
BRANCH   1  14
ATOM     14  C   UNL     1       3.858  -0.872   1.658  0.00  0.00    +0.115 C 
BRANCH  14  15
ATOM     15  C   UNL     1       3.058  -1.086   2.944  0.00  0.00    +0.054 C 
BRANCH  15  19
ATOM     16  C   UNL     1      -0.496   1.280   2.825  0.00  0.00    +0.000 A 
ATOM     17  C   UNL     1      -0.507  -0.009   2.327  0.00  0.00    +0.000 A 
ATOM     18  C   UNL     1       0.643  -0.775   2.366  0.00  0.00    +0.004 A 
ATOM     19  C   UNL     1       1.804  -0.251   2.901  0.00  0.00    -0.046 A 
ATOM     20  C   UNL     1       1.816   1.039   3.398  0.00  0.00    +0.004 A 
ATOM     21  C   UNL     1       0.665   1.804   3.361  0.00  0.00    +0.000 A 
ENDBRANCH  15  19
ENDBRANCH  14  15
ENDBRANCH   1  14
BRANCH  10  22
ATOM     22  C   UNL     1       5.253   3.073   1.614  0.00  0.00    -0.050 C 
BRANCH  22  23
ATOM     23  C   UNL     1       5.612   4.006   2.772  0.00  0.00    +0.086 C 
ATOM     24  C   UNL     1       4.920   5.340   2.601  0.00  0.00    +0.005 C 
ATOM     25  C   UNL     1       5.904   6.264   2.507  0.00  0.00    -0.004 A 
ATOM     26  C   UNL     1       5.886   7.721   2.332  0.00  0.00    +0.010 A 
ATOM     27  C   UNL     1       7.060   8.389   2.271  0.00  0.00    +0.001 A 
ATOM     28  C   UNL     1       8.291   7.726   2.370  0.00  0.00    +0.002 A 
ATOM     29  C   UNL     1       8.389   6.389   2.532  0.00  0.00    +0.026 A 
ATOM     30  C   UNL     1       7.216   5.587   2.609  0.00  0.00    +0.043 A 
ATOM     31  N   UNL     1       7.051   4.294   2.762  0.00  0.00    -0.380 N 
ATOM     32  H   UNL     1       7.760   3.639   2.853  0.00  0.00    +0.160 HD
ENDBRANCH  22  23
ENDBRANCH  10  22
BRANCH   4  33
ATOM     33  C   UNL     1       7.072  -4.656   1.937  0.00  0.00    +0.213 C 
BRANCH  33  34
ATOM     34  C   UNL     1       7.316  -5.167   0.541  0.00  0.00    +0.228 C 
ATOM     35  O   UNL     1       7.111  -4.446  -0.413  0.00  0.00    -0.274 OA
ATOM     36  N   UNL     1       7.763  -6.424   0.352  0.00  0.00    -0.328 N 
ATOM     37  H   UNL     1       7.927  -7.000   1.115  0.00  0.00    +0.145 HD
ATOM     38  H   UNL     1       7.920  -6.753  -0.547  0.00  0.00    +0.145 HD
ENDBRANCH  33  34
ENDBRANCH   4  33
TORSDOF 7
