REMARK  Name = ZINC06537754
REMARK  2 active torsions:
REMARK  status: ('A' for Active; 'I' for Inactive)
REMARK    1  A    between atoms: C_4  and  C_7
REMARK    2  A    between atoms: C_14  and  C_20
REMARK                            x       y       z     vdW  Elec       q    Type
REMARK                         _______ _______ _______ _____ _____    ______ ____
ROOT
ATOM      1  C   UNL     1       3.730  -0.721  -0.037  0.00  0.00    +0.111 C 
ATOM      2  C   UNL     1       4.058  -1.192   1.384  0.00  0.00    +0.058 C 
ATOM      3  C   UNL     1       3.958  -0.032   2.359  0.00  0.00    +0.012 C 
ATOM      4  C   UNL     1       3.802  -0.545   3.791  0.00  0.00    +0.005 C 
ATOM      5  C   UNL     1       2.469  -1.289   3.903  0.00  0.00    +0.040 C 
ATOM      6  C   UNL     1       2.419  -2.373   2.863  0.00  0.00    +0.007 C 
ATOM      7  C   UNL     1       3.114  -2.306   1.740  0.00  0.00    +0.021 C 
ATOM      8  N   UNL     1       2.970  -3.330   0.819  0.00  0.00    -0.300 N 
ATOM      9  C   UNL     1       3.245  -3.088  -0.475  0.00  0.00    +0.135 C 
ATOM     10  S   UNL     1       3.089  -4.367  -1.602  0.00  0.00    -0.019 S 
ATOM     11  N   UNL     1       3.639  -1.885  -0.920  0.00  0.00    -0.319 N 
ATOM     12  H   UNL     1       2.675  -4.209   1.103  0.00  0.00    +0.154 HD
ATOM     13  H   UNL     1       3.870  -1.782  -1.857  0.00  0.00    +0.148 HD
ENDROOT
BRANCH   6  14
ATOM     14  C   UNL     1       1.560  -3.533   3.099  0.00  0.00    +0.097 C 
ATOM     15  N   UNL     1       1.780  -4.405   4.077  0.00  0.00    -0.371 N 
ATOM     16  C   UNL     1       0.741  -5.445   4.041  0.00  0.00    +0.132 C 
ATOM     17  C   UNL     1      -0.147  -5.030   2.851  0.00  0.00    +0.124 C 
ATOM     18  N   UNL     1       0.490  -3.800   2.357  0.00  0.00    -0.329 N 
ATOM     19  H   UNL     1       0.181  -3.269   1.606  0.00  0.00    +0.147 HD
ATOM     20  H   UNL     1       2.511  -4.362   4.714  0.00  0.00    +0.161 HD
ENDBRANCH   6  14
BRANCH   1  24
ATOM     21  C   UNL     1      -0.002   1.359  -0.028  0.00  0.00    +0.000 A 
ATOM     22  C   UNL     1       1.185   2.068  -0.031  0.00  0.00    +0.000 A 
ATOM     23  C   UNL     1       2.393   1.395  -0.033  0.00  0.00    +0.005 A 
ATOM     24  C   UNL     1       2.413   0.013  -0.033  0.00  0.00    -0.027 A 
ATOM     25  C   UNL     1       1.227  -0.696  -0.029  0.00  0.00    +0.005 A 
ATOM     26  C   UNL     1       0.019  -0.023  -0.028  0.00  0.00    +0.000 A 
ENDBRANCH   1  24
TORSDOF 2
