REMARK  Name = ZINC65380341
REMARK  9 active torsions:
REMARK  status: ('A' for Active; 'I' for Inactive)
REMARK    1  A    between atoms: C_1  and  C_2
REMARK    2  A    between atoms: C_2  and  C_4
REMARK    3  A    between atoms: C_2  and  N_17
REMARK    4  A    between atoms: C_13  and  O_16
REMARK    5  A    between atoms: N_17  and  C_18
REMARK    6  A    between atoms: C_18  and  C_19
REMARK    7  A    between atoms: N_21  and  C_22
REMARK    8  A    between atoms: C_27  and  N_28
REMARK    9  A    between atoms: C_29  and  C_31
REMARK                            x       y       z     vdW  Elec       q    Type
REMARK                         _______ _______ _______ _____ _____    ______ ____
ROOT
ATOM      1  N   UNL     1       0.717  -0.512   1.194  0.00  0.00    +0.387 N 
ATOM      2  H   UNL     1       0.816  -1.516   1.155  0.00  0.00    -0.085 HD
ATOM      3  H   UNL     1       1.630  -0.085   1.225  0.00  0.00    -0.085 HD
ENDROOT
BRANCH   1   5
ATOM      4  C   UNL     1      -0.044   1.486   0.000  0.00  0.00    -0.013 C 
ATOM      5  C   UNL     1      -0.003  -0.044   0.003  0.00  0.00    -0.068 C 
BRANCH   5   6
ATOM      6  C   UNL     1       0.717  -0.536  -1.254  0.00  0.00    -0.039 C 
ATOM      7  C   UNL     1       2.145   0.013  -1.272  0.00  0.00    +0.009 C 
ATOM      8  C   UNL     1       2.865  -0.480  -2.529  0.00  0.00    -0.008 C 
ATOM      9  C   UNL     1       2.907  -2.009  -2.527  0.00  0.00    +0.007 C 
ATOM     10  C   UNL     1       1.479  -2.558  -2.509  0.00  0.00    -0.008 C 
ATOM     11  C   UNL     1       0.759  -2.066  -1.252  0.00  0.00    +0.009 C 
ATOM     12  C   UNL     1       0.729  -2.070  -3.750  0.00  0.00    +0.038 C 
ATOM     13  C   UNL     1       0.688  -0.541  -3.753  0.00  0.00    +0.067 C 
ATOM     14  C   UNL     1       2.115   0.008  -3.771  0.00  0.00    +0.038 C 
ATOM     15  C   UNL     1      -0.033  -0.048  -2.496  0.00  0.00    +0.040 C 
BRANCH  13  16
ATOM     16  O   UNL     1      -0.013  -0.085  -4.912  0.00  0.00    -0.389 OA
ATOM     17  H   UNL     1       0.389  -0.361  -5.747  0.00  0.00    +0.210 HD
ENDBRANCH  13  16
ENDBRANCH   5   6
ENDBRANCH   1   5
BRANCH   1  18
ATOM     18  C   UNL     1      -0.038  -0.142   2.399  0.00  0.00    +0.016 C 
BRANCH  18  19
ATOM     19  C   UNL     1       0.700  -0.623   3.622  0.00  0.00    +0.200 C 
ATOM     20  O   UNL     1       1.752  -1.215   3.502  0.00  0.00    -0.278 OA
ATOM     21  N   UNL     1       0.192  -0.394   4.849  0.00  0.00    -0.286 N 
ATOM     22  H   UNL     1      -0.606   0.148   4.950  0.00  0.00    +0.155 HD
BRANCH  21  23
ATOM     23  C   UNL     1       0.816  -0.940   5.978  0.00  0.00    +0.055 A 
ATOM     24  C   UNL     1       1.595  -2.082   5.859  0.00  0.00    +0.025 A 
ATOM     25  C   UNL     1       2.210  -2.618   6.974  0.00  0.00    +0.002 A 
ATOM     26  C   UNL     1       2.052  -2.020   8.211  0.00  0.00    +0.002 A 
ATOM     27  C   UNL     1       1.278  -0.882   8.339  0.00  0.00    +0.025 A 
ATOM     28  C   UNL     1       0.661  -0.333   7.224  0.00  0.00    +0.055 A 
BRANCH  28  29
ATOM     29  N   UNL     1      -0.119   0.823   7.351  0.00  0.00    -0.284 N 
ATOM     30  C   UNL     1      -0.688   1.126   8.534  0.00  0.00    +0.214 C 
ATOM     31  O   UNL     1      -0.609   0.348   9.462  0.00  0.00    -0.276 OA
ATOM     32  C   UNL     1      -1.423   2.430   8.705  0.00  0.00    +0.109 C 
ATOM     33  H   UNL     1      -0.250   1.406   6.586  0.00  0.00    +0.155 HD
ENDBRANCH  28  29
ENDBRANCH  21  23
ENDBRANCH  18  19
ENDBRANCH   1  18
TORSDOF 7
