REMARK  Name = ZINC37630445
REMARK  5 active torsions:
REMARK  status: ('A' for Active; 'I' for Inactive)
REMARK    1  A    between atoms: C_3  and  N_9
REMARK    2  A    between atoms: C_10  and  C_12
REMARK    3  A    between atoms: C_12  and  N_13
REMARK    4  A    between atoms: C_14  and  C_16
REMARK    5  A    between atoms: C_16  and  N_17
REMARK                            x       y       z     vdW  Elec       q    Type
REMARK                         _______ _______ _______ _____ _____    ______ ____
ROOT
ATOM      1  N   UNL     1       3.584   2.126  -0.021  0.00  0.00    -0.283 N 
ATOM      2  C   UNL     1       3.568   3.471  -0.116  0.00  0.00    +0.234 C 
ATOM      3  O   UNL     1       2.512   4.067  -0.103  0.00  0.00    -0.274 OA
ATOM      4  H   UNL     1       4.429   1.655   0.049  0.00  0.00    +0.155 HD
ENDROOT
BRANCH   1   7
ATOM      5  C   UNL     1       0.065   1.243  -0.620  0.00  0.00    +0.016 A 
ATOM      6  C   UNL     1       1.250   1.952  -0.618  0.00  0.00    +0.026 A 
ATOM      7  C   UNL     1       2.381   1.410  -0.024  0.00  0.00    +0.052 A 
ATOM      8  C   UNL     1       2.318   0.154   0.567  0.00  0.00    +0.063 A 
ATOM      9  C   UNL     1       1.129  -0.551   0.562  0.00  0.00    +0.036 A 
ATOM     10  C   UNL     1       0.004  -0.007  -0.031  0.00  0.00    +0.015 A 
ATOM     11  I   UNL     1      -1.797  -1.078  -0.036  0.00  0.00    -0.044 I 
ATOM     12 CL   UNL     1       3.730  -0.529   1.311  0.00  0.00    -0.082 Cl
ENDBRANCH   1   7
BRANCH   2  13
ATOM     13  C   UNL     1       4.862   4.233  -0.238  0.00  0.00    +0.200 C 
BRANCH  13  14
ATOM     14  N   UNL     1       4.577   5.668  -0.325  0.00  0.00    -0.308 N 
ATOM     15  C   UNL     1       5.590   6.550  -0.441  0.00  0.00    +0.196 C 
ATOM     16  O   UNL     1       6.737   6.156  -0.474  0.00  0.00    -0.278 OA
ATOM     17  H   UNL     1       3.660   5.982  -0.300  0.00  0.00    +0.149 HD
BRANCH  15  18
ATOM     18  C   UNL     1       5.297   8.025  -0.531  0.00  0.00    +0.011 C 
BRANCH  18  19
ATOM     19  N   UNL     1       6.559   8.768  -0.650  0.00  0.00    +0.384 N 
ATOM     20  H   UNL     1       7.133   8.588   0.160  0.00  0.00    -0.089 HD
ATOM     21  H   UNL     1       7.047   8.471  -1.482  0.00  0.00    -0.089 HD
ATOM     22  H   UNL     1       6.363   9.756  -0.710  0.00  0.00    -0.089 HD
ENDBRANCH  18  19
ENDBRANCH  15  18
ENDBRANCH  13  14
ENDBRANCH   2  13
TORSDOF 5
