REMARK  Name = ZINC43526992
REMARK  7 active torsions:
REMARK  status: ('A' for Active; 'I' for Inactive)
REMARK    1  A    between atoms: C_4  and  N_7
REMARK    2  A    between atoms: N_7  and  C_8
REMARK    3  A    between atoms: C_8  and  N_10
REMARK    4  A    between atoms: N_10  and  C_11
REMARK    5  A    between atoms: C_11  and  C_12
REMARK    6  A    between atoms: C_21  and  C_23
REMARK    7  A    between atoms: C_23  and  N_24
REMARK                            x       y       z     vdW  Elec       q    Type
REMARK                         _______ _______ _______ _____ _____    ______ ____
ROOT
ATOM      1  C   UNL     1       6.298  -4.586   0.331  0.00  0.00    -0.051 C 
ATOM      2  C   UNL     1       6.327  -6.116   0.318  0.00  0.00    -0.010 C 
ATOM      3  C   UNL     1       7.142  -6.585  -0.895  0.00  0.00    -0.015 C 
ATOM      4  C   UNL     1       6.471  -6.047  -2.166  0.00  0.00    -0.015 C 
ATOM      5  C   UNL     1       6.415  -4.520  -2.087  0.00  0.00    -0.078 C 
ATOM      6  N   UNL     1       7.050  -4.062  -0.811  0.00  0.00    +0.383 N 
ATOM      7  C   UNL     1       8.454  -4.474  -0.737  0.00  0.00    -0.076 C 
ATOM      8  C   UNL     1       8.556  -5.998  -0.784  0.00  0.00    -0.041 C 
ATOM      9  H   UNL     1       7.019  -3.054  -0.779  0.00  0.00    -0.081 HD
ENDROOT
BRANCH   1  10
ATOM     10  C   UNL     1       4.848  -4.105   0.247  0.00  0.00    +0.088 C 
BRANCH  10  11
ATOM     11  N   UNL     1       4.822  -2.644   0.144  0.00  0.00    -0.328 N 
ATOM     12  H   UNL     1       5.653  -2.144   0.139  0.00  0.00    +0.148 HD
BRANCH  11  13
ATOM     13  C   UNL     1       3.644  -1.995   0.058  0.00  0.00    +0.134 C 
ATOM     14  S   UNL     1       2.178  -2.877   0.068  0.00  0.00    -0.019 S 
BRANCH  13  15
ATOM     15  N   UNL     1       3.621  -0.650  -0.036  0.00  0.00    -0.297 N 
ATOM     16  H   UNL     1       4.451  -0.156  -0.123  0.00  0.00    +0.154 HD
BRANCH  15  20
ATOM     17  C   UNL     1      -0.014   1.382   0.045  0.00  0.00    +0.000 A 
ATOM     18  C   UNL     1       0.205   0.325   0.910  0.00  0.00    +0.002 A 
ATOM     19  C   UNL     1       1.409  -0.351   0.885  0.00  0.00    +0.023 A 
ATOM     20  C   UNL     1       2.400   0.032  -0.009  0.00  0.00    +0.033 A 
ATOM     21  C   UNL     1       2.177   1.093  -0.877  0.00  0.00    +0.023 A 
ATOM     22  C   UNL     1       0.970   1.765  -0.847  0.00  0.00    +0.002 A 
ENDBRANCH  15  20
ENDBRANCH  13  15
ENDBRANCH  11  13
ENDBRANCH  10  11
ENDBRANCH   1  10
BRANCH   8  23
ATOM     23  C   UNL     1       9.382  -6.419  -2.001  0.00  0.00    -0.077 C 
BRANCH  23  24
ATOM     24  N   UNL     1      10.767  -5.958  -1.836  0.00  0.00    +0.380 N 
ATOM     25  C   UNL     1      11.429  -6.709  -0.739  0.00  0.00    -0.079 C 
ATOM     26  C   UNL     1      12.937  -6.544  -1.056  0.00  0.00    -0.020 C 
ATOM     27  C   UNL     1      12.975  -6.617  -2.600  0.00  0.00    -0.020 C 
ATOM     28  C   UNL     1      11.550  -6.251  -3.056  0.00  0.00    -0.079 C 
ATOM     29  H   UNL     1      10.783  -4.968  -1.641  0.00  0.00    -0.082 HD
ENDBRANCH  23  24
ENDBRANCH   8  23
TORSDOF 7
