REMARK  Name = ZINC19962469
REMARK  5 active torsions:
REMARK  status: ('A' for Active; 'I' for Inactive)
REMARK    1  A    between atoms: C_1  and  C_2
REMARK    2  A    between atoms: C_7  and  C_15
REMARK    3  A    between atoms: CA_10  and  C_12
REMARK    4  A    between atoms: C_18  and  S_21
REMARK    5  A    between atoms: S_21  and  C_22
REMARK                            x       y       z     vdW  Elec       q    Type
REMARK                         _______ _______ _______ _____ _____    ______ ____
ROOT
ATOM      1  C   UNL     1      -0.018   1.503   0.010  0.00  0.00    +0.090 C 
ATOM      2  C   UNL     1       0.002  -0.004   0.002  0.00  0.00    +0.150 A 
ATOM      3  N   UNL     1       0.008  -0.765  -1.088  0.00  0.00    -0.195 NA
ATOM      4  C   UNL     1       0.025  -2.031  -0.746  0.00  0.00    +0.250 A 
ATOM      5  N   UNL     1       0.039  -2.085   0.623  0.00  0.00    -0.221 N 
ATOM      6  N   UNL     1       0.023  -0.769   1.073  0.00  0.00    -0.153 NA
ATOM      7  C   UNL     1       0.076  -3.347   1.363  0.00  0.00    +0.147 C 
ATOM      8  C   UNL     1      -0.614  -4.416   0.506  0.00  0.00    +0.094 C 
ATOM      9  CA  UNL     1      -0.206  -4.296  -0.935  0.00  0.00    +0.135 C 
ATOM     10  N   UNL     1       0.053  -3.151  -1.500  0.00  0.00    -0.209 NA
ENDROOT
BRANCH   7  11
ATOM     11  C   UNL     1       1.506  -3.744   1.621  0.00  0.00    -0.023 A 
ATOM     12  C   UNL     1       2.367  -3.953   0.559  0.00  0.00    +0.007 A 
ATOM     13  C   UNL     1       3.678  -4.317   0.793  0.00  0.00    +0.015 A 
ATOM     14  C   UNL     1       4.133  -4.474   2.097  0.00  0.00    +0.008 A 
ATOM     15  C   UNL     1       3.264  -4.264   3.162  0.00  0.00    +0.015 A 
ATOM     16  C   UNL     1       1.956  -3.894   2.921  0.00  0.00    +0.007 A 
BRANCH  14  17
ATOM     17  S   UNL     1       5.805  -4.940   2.400  0.00  0.00    -0.129 S 
ATOM     18  C   UNL     1       5.918  -5.017   4.208  0.00  0.00    +0.090 C 
ENDBRANCH  14  17
ENDBRANCH   7  11
BRANCH   9  19
ATOM     19  C   UNL     1      -0.095  -5.523  -1.742  0.00  0.00    +0.401 C 
ATOM     20  O   UNL     1       0.235  -5.454  -2.918  0.00  0.00    -0.239 OA
ATOM     21  OXT UNL     1      -0.332  -6.612  -1.236  0.00  0.00    -0.239 OA
ENDBRANCH   9  19
TORSDOF 3
