REMARK  Name = ZINC61882439
REMARK  6 active torsions:
REMARK  status: ('A' for Active; 'I' for Inactive)
REMARK    1  A    between atoms: C_1  and  N_2
REMARK    2  A    between atoms: C_6  and  C_9
REMARK    3  A    between atoms: C_9  and  N_10
REMARK    4  A    between atoms: N_10  and  S_11
REMARK    5  A    between atoms: S_11  and  C_14
REMARK    6  A    between atoms: C_18  and  N_21
REMARK                            x       y       z     vdW  Elec       q    Type
REMARK                         _______ _______ _______ _____ _____    ______ ____
ROOT
ATOM      1  S   UNL     1       2.332  -4.853   3.481  0.00  0.00    +0.060 S 
ATOM      2  O   UNL     1       2.122  -6.251   3.336  0.00  0.00    -0.153 OA
ATOM      3  O   UNL     1       3.565  -4.230   3.151  0.00  0.00    -0.153 OA
ENDROOT
BRANCH   1   4
ATOM      4  C   UNL     1       2.010  -4.469   5.170  0.00  0.00    +0.122 A 
ATOM      5  C   UNL     1       2.923  -3.726   5.896  0.00  0.00    +0.049 A 
ATOM      6  C   UNL     1       2.673  -3.422   7.223  0.00  0.00    +0.045 A 
ATOM      7  C   UNL     1       1.509  -3.859   7.827  0.00  0.00    +0.044 A 
ATOM      8  C   UNL     1       0.590  -4.605   7.100  0.00  0.00    +0.042 A 
ATOM      9  C   UNL     1       0.842  -4.904   5.766  0.00  0.00    +0.065 A 
ATOM     10 BR   UNL     1      -0.410  -5.913   4.770  0.00  0.00    -0.046 Br
ATOM     11 CL   UNL     1       3.824  -2.490   8.130  0.00  0.00    -0.083 Cl
BRANCH   8  12
ATOM     12  N   UNL     1      -0.587  -5.049   7.708  0.00  0.00    -0.357 N 
ATOM     13  H   UNL     1      -0.763  -4.836   8.637  0.00  0.00    +0.142 HD
ATOM     14  H   UNL     1      -1.229  -5.570   7.199  0.00  0.00    +0.142 HD
ENDBRANCH   8  12
ENDBRANCH   1   4
BRANCH   1  15
ATOM     15  N   UNL     1       1.165  -4.103   2.577  0.00  0.00    -0.190 NA
ATOM     16  H   UNL     1       0.531  -4.632   2.068  0.00  0.00    +0.148 HD
BRANCH  15  17
ATOM     17  C   UNL     1       1.090  -2.640   2.546  0.00  0.00    +0.107 C 
BRANCH  17  23
ATOM     18  C   UNL     1      -1.029   1.194   0.360  0.00  0.00    -0.096 C 
ATOM     19  N   UNL     1      -0.797  -0.254   0.278  0.00  0.00    +0.378 N 
ATOM     20  C   UNL     1      -0.123  -0.568  -0.988  0.00  0.00    -0.079 C 
ATOM     21  C   UNL     1       0.048  -2.083  -1.116  0.00  0.00    -0.018 C 
ATOM     22  C   UNL     1       0.891  -2.597   0.054  0.00  0.00    +0.001 C 
ATOM     23  C   UNL     1       0.217  -2.199   1.370  0.00  0.00    -0.012 C 
ATOM     24  C   UNL     1       0.039  -0.679   1.406  0.00  0.00    -0.074 C 
ATOM     25  H   UNL     1      -1.682  -0.738   0.315  0.00  0.00    -0.082 HD
ENDBRANCH  17  23
ENDBRANCH  15  17
ENDBRANCH   1  15
TORSDOF 5
