REMARK  Name = ZINC05736776
REMARK  3 active torsions:
REMARK  status: ('A' for Active; 'I' for Inactive)
REMARK    1  A    between atoms: C_4  and  C_7
REMARK    2  A    between atoms: C_7  and  N_8
REMARK    3  A    between atoms: N_16  and  N_17
REMARK                            x       y       z     vdW  Elec       q    Type
REMARK                         _______ _______ _______ _____ _____    ______ ____
ROOT
ATOM      1  N   UNL     1      -3.464  -4.877   0.010  0.00  0.00    -0.261 N 
ATOM      2  C   UNL     1      -2.450  -5.829  -0.005  0.00  0.00    +0.046 A 
ATOM      3  C   UNL     1      -2.489  -7.219  -0.012  0.00  0.00    +0.025 A 
ATOM      4  C   UNL     1      -1.315  -7.945  -0.028  0.00  0.00    +0.017 A 
ATOM      5  C   UNL     1      -0.088  -7.302  -0.038  0.00  0.00    +0.019 A 
ATOM      6  C   UNL     1      -0.030  -5.922  -0.030  0.00  0.00    +0.027 A 
ATOM      7  C   UNL     1      -1.208  -5.183  -0.014  0.00  0.00    +0.030 A 
ATOM      8  C   UNL     1      -1.493  -3.729  -0.004  0.00  0.00    +0.155 C 
ATOM      9  N   UNL     1      -0.626  -2.744  -0.007  0.00  0.00    -0.166 NA
ATOM     10  C   UNL     1      -2.965  -3.629   0.018  0.00  0.00    +0.272 C 
ATOM     11  O   UNL     1      -3.612  -2.599   0.036  0.00  0.00    -0.268 OA
ATOM     12 BR   UNL     1       1.509  -8.314  -0.060  0.00  0.00    -0.050 Br
ENDROOT
BRANCH   9  13
ATOM     13  N   UNL     1      -1.073  -1.417   0.005  0.00  0.00    -0.248 N 
ATOM     14  C   UNL     1      -0.160  -0.381   0.002  0.00  0.00    +0.187 C 
ATOM     15  N   UNL     1      -0.599   0.922   0.013  0.00  0.00    -0.370 N 
ATOM     16  H   UNL     1      -2.023  -1.225   0.015  0.00  0.00    +0.192 HD
ATOM     17  H   UNL     1       1.835   0.021  -0.015  0.00  0.00    +0.159 HD
ATOM     18  H   UNL     1       0.043   1.650   0.011  0.00  0.00    +0.159 HD
ATOM     19  H   UNL     1      -1.550   1.114   0.019  0.00  0.00    +0.159 HD
ATOM     20  N   UNL     1       1.123  -0.709  -0.012  0.00  0.00    -0.370 N 
ATOM     21  H   UNL     1       1.400  -1.697  -0.020  0.00  0.00    +0.159 HD
ENDBRANCH   9  13
BRANCH   1  22
ATOM     22  C   UNL     1      -4.894  -5.194   0.023  0.00  0.00    +0.149 C 
BRANCH  22  26
ATOM     23  C   UNL     1      -6.245  -5.524   4.062  0.00  0.00    +0.000 A 
ATOM     24  C   UNL     1      -6.285  -4.302   3.417  0.00  0.00    +0.000 A 
ATOM     25  C   UNL     1      -5.848  -4.195   2.111  0.00  0.00    +0.005 A 
ATOM     26  C   UNL     1      -5.370  -5.310   1.448  0.00  0.00    -0.030 A 
ATOM     27  C   UNL     1      -5.335  -6.534   2.091  0.00  0.00    +0.005 A 
ATOM     28  C   UNL     1      -5.767  -6.639   3.399  0.00  0.00    +0.000 A 
ENDBRANCH  22  26
ENDBRANCH   1  22
TORSDOF 3
