REMARK  Name = ZINC39370671
REMARK  8 active torsions:
REMARK  status: ('A' for Active; 'I' for Inactive)
REMARK    1  A    between atoms: C_7  and  C_25
REMARK    2  A    between atoms: N_9  and  C_10
REMARK    3  A    between atoms: C_10  and  C_11
REMARK    4  A    between atoms: N_13  and  C_14
REMARK    5  A    between atoms: C_17  and  O_20
REMARK    6  A    between atoms: O_20  and  C_21
REMARK    7  A    between atoms: C_26  and  C_27
REMARK    8  A    between atoms: C_26  and  C_29
REMARK                            x       y       z     vdW  Elec       q    Type
REMARK                         _______ _______ _______ _____ _____    ______ ____
ROOT
ATOM      1  C   UNL     1       0.773   0.917  -0.652  0.00  0.00    +0.001 A 
ATOM      2  C   UNL     1       2.026   1.440  -0.939  0.00  0.00    +0.002 A 
ATOM      3  C   UNL     1       3.157   0.665  -0.805  0.00  0.00    +0.026 A 
ATOM      4  C   UNL     1       3.048  -0.654  -0.377  0.00  0.00    +0.050 A 
ATOM      5  C   UNL     1       1.780  -1.181  -0.087  0.00  0.00    +0.007 A 
ATOM      6  C   UNL     1       0.644  -0.387  -0.227  0.00  0.00    +0.010 A 
ATOM      7  C   UNL     1       2.007  -2.577   0.333  0.00  0.00    +0.001 A 
ATOM      8  C   UNL     1       3.355  -2.786   0.267  0.00  0.00    +0.095 A 
ATOM      9  N   UNL     1       3.974  -1.652  -0.152  0.00  0.00    -0.337 N 
ENDROOT
BRANCH   7  10
ATOM     10  C   UNL     1       0.988  -3.548   0.740  0.00  0.00    +0.028 C 
ATOM     11  C   UNL     1       1.346  -4.656   1.429  0.00  0.00    +0.072 C 
BRANCH  11  12
ATOM     12  C   UNL     1       0.324  -5.725   1.721  0.00  0.00    +0.216 C 
ATOM     13  N   UNL     1       0.237  -5.956   3.169  0.00  0.00    -0.359 N 
ATOM     14  C   UNL     1       0.560  -7.198   3.386  0.00  0.00    +0.060 A 
ATOM     15  C   UNL     1       0.656  -8.006   4.610  0.00  0.00    +0.027 A 
ATOM     16  C   UNL     1       1.026  -9.299   4.525  0.00  0.00    +0.002 A 
ATOM     17  C   UNL     1       1.328  -9.923   3.302  0.00  0.00    +0.002 A 
ATOM     18  C   UNL     1       1.271  -9.274   2.122  0.00  0.00    +0.027 A 
ATOM     19  C   UNL     1       0.879  -7.858   2.091  0.00  0.00    +0.060 A 
ATOM     20  N   UNL     1       0.741  -6.999   1.123  0.00  0.00    -0.359 N 
ATOM     21  H   UNL     1      -0.015  -5.302   3.840  0.00  0.00    +0.162 HD
ATOM     22  H   UNL     1       0.887  -7.169   0.179  0.00  0.00    +0.162 HD
ENDBRANCH  11  12
BRANCH  11  23
ATOM     23  C   UNL     1       2.696  -4.814   1.880  0.00  0.00    +0.099 C 
ATOM     24  N   UNL     1       3.767  -4.939   2.238  0.00  0.00    -0.191 NA
ENDBRANCH  11  23
ENDBRANCH   7  10
BRANCH   9  25
ATOM     25  C   UNL     1       5.420  -1.509  -0.339  0.00  0.00    +0.217 C 
BRANCH  25  26
ATOM     26  C   UNL     1       6.031  -0.918   0.905  0.00  0.00    +0.237 C 
ATOM     27  O   UNL     1       5.328  -0.642   1.854  0.00  0.00    -0.274 OA
ATOM     28  N   UNL     1       7.359  -0.694   0.963  0.00  0.00    -0.284 N 
ATOM     29  H   UNL     1       7.906  -0.815   0.171  0.00  0.00    +0.155 HD
BRANCH  28  30
ATOM     30  C   UNL     1       7.949  -0.287   2.166  0.00  0.00    +0.034 A 
ATOM     31  C   UNL     1       9.088   0.507   2.148  0.00  0.00    +0.027 A 
ATOM     32  C   UNL     1       9.669   0.908   3.335  0.00  0.00    +0.048 A 
ATOM     33  C   UNL     1       9.115   0.517   4.545  0.00  0.00    +0.130 A 
ATOM     34  C   UNL     1       7.978  -0.277   4.564  0.00  0.00    +0.048 A 
ATOM     35  C   UNL     1       7.392  -0.674   3.378  0.00  0.00    +0.027 A 
BRANCH  33  36
ATOM     36  O   UNL     1       9.688   0.912   5.713  0.00  0.00    -0.406 OA
BRANCH  36  37
ATOM     37  C   UNL     1       9.066   0.472   6.922  0.00  0.00    +0.575 C 
ATOM     38  F   UNL     1       9.058  -0.926   6.961  0.00  0.00    -0.133 F 
ATOM     39  F   UNL     1       9.779   0.965   8.020  0.00  0.00    -0.133 F 
ATOM     40  F   UNL     1       7.751   0.948   6.969  0.00  0.00    -0.133 F 
ENDBRANCH  36  37
ENDBRANCH  33  36
ENDBRANCH  28  30
ENDBRANCH  25  26
ENDBRANCH   9  25
TORSDOF 8
