REMARK  Name = ZINC31958780
REMARK  9 active torsions:
REMARK  status: ('A' for Active; 'I' for Inactive)
REMARK    1  A    between atoms: C_1  and  C_2
REMARK    2  A    between atoms: C_2  and  C_3
REMARK    3  A    between atoms: C_2  and  C_4
REMARK    4  A    between atoms: C_2  and  C_5
REMARK    5  A    between atoms: C_8  and  C_11
REMARK    6  A    between atoms: C_15  and  N_20
REMARK    7  A    between atoms: C_21  and  C_23
REMARK    8  A    between atoms: C_23  and  C_24
REMARK    9  A    between atoms: C_24  and  N_25
REMARK                            x       y       z     vdW  Elec       q    Type
REMARK                         _______ _______ _______ _____ _____    ______ ____
ROOT
ATOM      1  C   UNL     1      -2.944  -6.224  -0.434  0.00  0.00    +0.090 A 
ATOM      2  C   UNL     1      -3.478  -4.973  -0.366  0.00  0.00    +0.121 A 
ATOM      3  N   UNL     1      -2.434  -4.096  -0.269  0.00  0.00    -0.304 N 
ATOM      4  C   UNL     1      -2.384  -2.733  -0.168  0.00  0.00    +0.116 A 
ATOM      5  C   UNL     1      -1.193  -2.092  -0.088  0.00  0.00    +0.050 A 
ATOM      6  C   UNL     1       0.009  -2.829  -0.098  0.00  0.00    +0.028 A 
ATOM      7  C   UNL     1      -0.032  -4.184  -0.192  0.00  0.00    +0.048 A 
ATOM      8  C   UNL     1      -1.280  -4.835  -0.280  0.00  0.00    +0.138 A 
ATOM      9  N   UNL     1      -1.607  -6.115  -0.380  0.00  0.00    -0.228 NA
ENDROOT
BRANCH   1  13
ATOM     10  C   UNL     1      -5.136  -9.853  -0.760  0.00  0.00    -0.042 A 
ATOM     11  C   UNL     1      -3.754  -9.885  -0.714  0.00  0.00    +0.005 A 
ATOM     12  C   UNL     1      -3.038  -8.710  -0.609  0.00  0.00    +0.010 A 
ATOM     13  C   UNL     1      -3.709  -7.491  -0.548  0.00  0.00    +0.002 A 
ATOM     14  C   UNL     1      -5.102  -7.465  -0.589  0.00  0.00    +0.010 A 
ATOM     15  C   UNL     1      -5.808  -8.646  -0.700  0.00  0.00    +0.005 A 
BRANCH  10  17
ATOM     16  C   UNL     1      -5.602 -12.033   0.327  0.00  0.00    +0.015 C 
ATOM     17  C   UNL     1      -5.913 -11.139  -0.876  0.00  0.00    -0.013 C 
ATOM     18  C   UNL     1      -7.411 -10.829  -0.907  0.00  0.00    +0.015 C 
ATOM     19  C   UNL     1      -5.515 -11.862  -2.164  0.00  0.00    +0.015 C 
ENDBRANCH  10  17
ENDBRANCH   1  13
BRANCH   5  20
ATOM     20  N   UNL     1      -1.156  -0.694   0.009  0.00  0.00    -0.284 N 
ATOM     21  C   UNL     1      -0.160  -0.003  -0.581  0.00  0.00    +0.215 C 
ATOM     22  O   UNL     1       0.749  -0.594  -1.124  0.00  0.00    -0.276 OA
ATOM     23  H   UNL     1      -1.939  -0.161   0.568  0.00  0.00    +0.155 HD
BRANCH  21  24
ATOM     24  C   UNL     1      -0.177   1.504  -0.566  0.00  0.00    +0.076 C 
BRANCH  24  25
ATOM     25  C   UNL     1       1.057   2.035  -1.298  0.00  0.00    -0.077 C 
BRANCH  25  26
ATOM     26  N   UNL     1       1.041   3.504  -1.283  0.00  0.00    +0.378 N 
ATOM     27  H   UNL     1       1.928   3.885  -1.810  0.00  0.00    -0.090 HD
ATOM     28  H   UNL     1       1.051   3.860  -0.242  0.00  0.00    -0.090 HD
ATOM     29  H   UNL     1       0.132   3.865  -1.786  0.00  0.00    -0.090 HD
ENDBRANCH  25  26
ENDBRANCH  24  25
ENDBRANCH  21  24
ENDBRANCH   5  20
TORSDOF 6
