REMARK  Name = ZINC14023351
REMARK  8 active torsions:
REMARK  status: ('A' for Active; 'I' for Inactive)
REMARK    1  A    between atoms: C_1  and  N_61
REMARK    2  A    between atoms: C_7  and  N_12
REMARK    3  A    between atoms: C_8  and  C_9
REMARK    4  A    between atoms: C_13  and  C_15
REMARK    5  A    between atoms: N_20  and  S_22
REMARK    6  A    between atoms: S_22  and  C_25
REMARK    7  A    between atoms: C_28  and  O_31
REMARK    8  A    between atoms: O_31  and  C_32
REMARK                            x       y       z     vdW  Elec       q    Type
REMARK                         _______ _______ _______ _____ _____    ______ ____
ROOT
ATOM      1  N   UNL     1       1.020  -5.968   1.901  0.00  0.00    -0.279 N 
ATOM      2  C   UNL     1       2.043  -6.248   2.732  0.00  0.00    +0.222 C 
ATOM      3  O   UNL     1       2.730  -5.351   3.173  0.00  0.00    -0.275 OA
ATOM      4  H   UNL     1       0.471  -6.686   1.549  0.00  0.00    +0.155 HD
ENDROOT
BRANCH   1  11
ATOM      5  C   UNL     1      -0.018   1.465   0.010  0.00  0.00    -0.096 C 
ATOM      6  C   UNL     1      -1.363  -0.549   0.021  0.00  0.00    -0.074 C 
ATOM      7  C   UNL     1      -1.342  -2.032  -0.364  0.00  0.00    +0.018 C 
ATOM      8  C   UNL     1      -0.313  -2.736   0.512  0.00  0.00    -0.027 A 
ATOM      9  C   UNL     1       0.626  -2.016   1.168  0.00  0.00    -0.021 A 
ATOM     10  S   UNL     1       1.583  -3.216   2.047  0.00  0.00    -0.079 S 
ATOM     11  C   UNL     1       0.752  -4.654   1.550  0.00  0.00    +0.084 A 
ATOM     12  C   UNL     1      -0.248  -4.170   0.716  0.00  0.00    +0.068 A 
ATOM     13  C   UNL     1       0.789  -0.528   1.134  0.00  0.00    -0.036 C 
ATOM     14  N   UNL     1       0.014  -0.013  -0.021  0.00  0.00    +0.381 N 
ATOM     15  H   UNL     1       0.466  -0.320  -0.890  0.00  0.00    -0.082 HD
BRANCH  12  16
ATOM     16  C   UNL     1      -1.201  -5.075   0.066  0.00  0.00    +0.244 C 
ATOM     17  O   UNL     1      -0.948  -5.539  -1.031  0.00  0.00    -0.270 OA
ATOM     18  N   UNL     1      -2.356  -5.394   0.683  0.00  0.00    -0.325 N 
ATOM     19  H   UNL     1      -2.557  -5.024   1.557  0.00  0.00    +0.145 HD
ATOM     20  H   UNL     1      -2.986  -5.993   0.253  0.00  0.00    +0.145 HD
ENDBRANCH  12  16
ENDBRANCH   1  11
BRANCH   2  21
ATOM     21  C   UNL     1       2.334  -7.677   3.114  0.00  0.00    +0.091 C 
ATOM     22  C   UNL     1       2.652  -8.487   1.855  0.00  0.00    +0.015 C 
ATOM     23  C   UNL     1       2.916  -9.945   2.238  0.00  0.00    +0.018 C 
ATOM     24  C   UNL     1       4.127 -10.012   3.174  0.00  0.00    +0.109 C 
ATOM     25  N   UNL     1       3.889  -9.121   4.318  0.00  0.00    -0.176 NA
ATOM     26  C   UNL     1       3.538  -7.718   4.060  0.00  0.00    +0.122 C 
BRANCH  25  27
ATOM     27  S   UNL     1       4.014  -9.688   5.869  0.00  0.00    +0.061 S 
ATOM     28  O   UNL     1       4.869 -10.822   5.819  0.00  0.00    -0.153 OA
ATOM     29  O   UNL     1       4.289  -8.563   6.692  0.00  0.00    -0.153 OA
BRANCH  27  30
ATOM     30  C   UNL     1       2.421 -10.278   6.338  0.00  0.00    +0.106 A 
ATOM     31  C   UNL     1       1.520  -9.424   6.947  0.00  0.00    +0.032 A 
ATOM     32  C   UNL     1       0.269  -9.882   7.310  0.00  0.00    +0.047 A 
ATOM     33  C   UNL     1      -0.079 -11.204   7.075  0.00  0.00    +0.120 A 
ATOM     34  C   UNL     1       0.829 -12.061   6.469  0.00  0.00    +0.047 A 
ATOM     35  C   UNL     1       2.076 -11.596   6.102  0.00  0.00    +0.032 A 
BRANCH  33  36
ATOM     36  O   UNL     1      -1.307 -11.660   7.437  0.00  0.00    -0.495 OA
ATOM     37  C   UNL     1      -2.190 -10.722   8.056  0.00  0.00    +0.277 C 
ENDBRANCH  33  36
ENDBRANCH  27  30
ENDBRANCH  25  27
ENDBRANCH   2  21
TORSDOF 6
