REMARK  Name = ZINC42398602
REMARK  10 active torsions:
REMARK  status: ('A' for Active; 'I' for Inactive)
REMARK    1  A    between atoms: C_1  and  C_2
REMARK    2  A    between atoms: C_2  and  C_3
REMARK    3  A    between atoms: C_2  and  C_11
REMARK    4  A    between atoms: C_2  and  N_13
REMARK    5  A    between atoms: C_3  and  C_4
REMARK    6  A    between atoms: C_4  and  C_5
REMARK    7  A    between atoms: C_11  and  N_12
REMARK    8  A    between atoms: N_13  and  C_14
REMARK    9  A    between atoms: N_13  and  C_15
REMARK   10  A    between atoms: C_15  and  C_16
REMARK                            x       y       z     vdW  Elec       q    Type
REMARK                         _______ _______ _______ _____ _____    ______ ____
ROOT
ATOM      1  C   UNL     1      -0.359   1.591  -0.024  0.00  0.00    +0.026 C 
ATOM      2  C   UNL     1      -0.172   0.072  -0.027  0.00  0.00    +0.004 C 
ENDROOT
BRANCH   2   3
ATOM      3  N   UNL     1      -1.486  -0.583  -0.037  0.00  0.00    -0.297 NA
ATOM      4  C   UNL     1      -2.205  -0.303  -1.287  0.00  0.00    +0.105 C 
BRANCH   3   5
ATOM      5  C   UNL     1      -2.284  -0.181   1.130  0.00  0.00    +0.127 C 
BRANCH   5   6
ATOM      6  C   UNL     1      -3.513  -1.048   1.221  0.00  0.00    +0.005 A 
ATOM      7  C   UNL     1      -3.682  -2.223   1.875  0.00  0.00    +0.027 A 
ATOM      8  C   UNL     1      -4.913  -2.850   1.820  0.00  0.00    +0.025 A 
ATOM      9  C   UNL     1      -5.915  -2.270   1.113  0.00  0.00    +0.060 A 
ATOM     10  S   UNL     1      -5.127  -0.789   0.502  0.00  0.00    -0.099 S 
ATOM     11 BR   UNL     1      -5.196  -4.491   2.716  0.00  0.00    -0.050 Br
ENDBRANCH   5   6
ENDBRANCH   3   5
ENDBRANCH   2   3
BRANCH   2  12
ATOM     12  C   UNL     1       0.599  -0.350   1.225  0.00  0.00    +0.025 C 
BRANCH  12  13
ATOM     13  C   UNL     1       1.968   0.333   1.235  0.00  0.00    +0.037 C 
BRANCH  13  14
ATOM     14  C   UNL     1       2.728  -0.083   2.469  0.00  0.00    -0.047 A 
ATOM     15  C   UNL     1       2.606   0.650   3.635  0.00  0.00    +0.003 A 
ATOM     16  C   UNL     1       3.302   0.269   4.766  0.00  0.00    +0.000 A 
ATOM     17  C   UNL     1       4.120  -0.845   4.732  0.00  0.00    +0.000 A 
ATOM     18  C   UNL     1       4.242  -1.578   3.566  0.00  0.00    +0.000 A 
ATOM     19  C   UNL     1       3.542  -1.199   2.436  0.00  0.00    +0.003 A 
ENDBRANCH  13  14
ENDBRANCH  12  13
ENDBRANCH   2  12
BRANCH   2  20
ATOM     20  C   UNL     1       0.614  -0.342  -1.273  0.00  0.00    -0.064 C 
BRANCH  20  21
ATOM     21  N   UNL     1       0.686  -1.808  -1.342  0.00  0.00    +0.379 N 
ATOM     22  H   UNL     1       1.127  -2.162  -0.506  0.00  0.00    -0.090 HD
ATOM     23  H   UNL     1      -0.246  -2.188  -1.417  0.00  0.00    -0.090 HD
ATOM     24  H   UNL     1       1.226  -2.081  -2.149  0.00  0.00    -0.090 HD
ENDBRANCH  20  21
ENDBRANCH   2  20
TORSDOF 8
