REMARK  Name = ZINC36544767
REMARK  13 active torsions:
REMARK  status: ('A' for Active; 'I' for Inactive)
REMARK    1  A    between atoms: C_1  and  C_2
REMARK    2  A    between atoms: C_2  and  C_3
REMARK    3  A    between atoms: C_3  and  C_4
REMARK    4  A    between atoms: C_4  and  N_5
REMARK    5  A    between atoms: C_6  and  C_8
REMARK    6  A    between atoms: C_8  and  C_10
REMARK    7  A    between atoms: C_8  and  N_19
REMARK    8  A    between atoms: C_11  and  O_18
REMARK    9  A    between atoms: C_13  and  O_17
REMARK   10  A    between atoms: C_15  and  O_16
REMARK   11  A    between atoms: N_19  and  C_20
REMARK   12  A    between atoms: C_27  and  C_29
REMARK   13  A    between atoms: C_30  and  C_31
REMARK                            x       y       z     vdW  Elec       q    Type
REMARK                         _______ _______ _______ _____ _____    ______ ____
ROOT
ATOM      1  C   UNL     1       2.287  -4.697   4.171  0.00  0.00    +0.205 C 
ENDROOT
BRANCH   1   2
ATOM      2  C   UNL     1       3.612  -4.007   4.369  0.00  0.00    +0.065 A 
ATOM      3  C   UNL     1       4.688  -4.326   3.555  0.00  0.00    +0.129 A 
ATOM      4  C   UNL     1       5.907  -3.691   3.738  0.00  0.00    +0.091 A 
ATOM      5  C   UNL     1       6.050  -2.736   4.733  0.00  0.00    +0.124 A 
ATOM      6  C   UNL     1       4.973  -2.416   5.545  0.00  0.00    +0.091 A 
ATOM      7  C   UNL     1       3.752  -3.048   5.360  0.00  0.00    +0.129 A 
BRANCH   7   8
ATOM      8  O   UNL     1       2.696  -2.731   6.154  0.00  0.00    -0.506 OA
ATOM      9  H   UNL     1       2.631  -3.267   6.956  0.00  0.00    +0.292 HD
ENDBRANCH   7   8
BRANCH   5  10
ATOM     10  O   UNL     1       7.245  -2.114   4.912  0.00  0.00    -0.507 OA
ATOM     11  H   UNL     1       7.348  -1.304   4.394  0.00  0.00    +0.292 HD
ENDBRANCH   5  10
BRANCH   3  12
ATOM     12  O   UNL     1       4.549  -5.263   2.580  0.00  0.00    -0.506 OA
ATOM     13  H   UNL     1       4.348  -4.895   1.708  0.00  0.00    +0.292 HD
ENDBRANCH   3  12
ENDBRANCH   1   2
BRANCH   1  15
ATOM     14  N   UNL     1       0.698  -3.217   2.986  0.00  0.00    -0.313 N 
ATOM     15  C   UNL     1       1.635  -4.183   2.913  0.00  0.00    +0.239 C 
ATOM     16  O   UNL     1       1.955  -4.638   1.835  0.00  0.00    -0.273 OA
ATOM     17  H   UNL     1       0.442  -2.853   3.848  0.00  0.00    +0.149 HD
BRANCH  14  18
ATOM     18  C   UNL     1       0.065  -2.717   1.763  0.00  0.00    +0.104 C 
BRANCH  18  19
ATOM     19  C   UNL     1      -0.955  -1.634   2.123  0.00  0.00    +0.018 C 
BRANCH  19  21
ATOM     20  C   UNL     1      -2.635  -0.029   1.205  0.00  0.00    +0.004 C 
ATOM     21  C   UNL     1      -1.616  -1.112   0.845  0.00  0.00    -0.002 C 
ENDBRANCH  19  21
ENDBRANCH  18  19
ENDBRANCH  14  18
ENDBRANCH   1  15
BRANCH   1  22
ATOM     22  N   UNL     1       2.501  -6.142   4.054  0.00  0.00    -0.243 N 
ATOM     23  C   UNL     1       3.300  -6.777   4.933  0.00  0.00    +0.297 C 
ATOM     24  O   UNL     1       3.844  -6.152   5.825  0.00  0.00    -0.260 OA
BRANCH  22  25
ATOM     25  C   UNL     1       1.877  -6.861   3.030  0.00  0.00    +0.057 A 
ATOM     26  C   UNL     1       2.598  -7.236   1.903  0.00  0.00    +0.025 A 
ATOM     27  C   UNL     1       1.978  -7.946   0.893  0.00  0.00    +0.002 A 
ATOM     28  C   UNL     1       0.642  -8.284   1.002  0.00  0.00    +0.002 A 
ATOM     29  C   UNL     1      -0.080  -7.913   2.122  0.00  0.00    +0.022 A 
ATOM     30  C   UNL     1       0.535  -7.207   3.139  0.00  0.00    +0.062 A 
ATOM     31 CL   UNL     1      -0.368  -6.747   4.548  0.00  0.00    -0.082 Cl
ENDBRANCH  22  25
BRANCH  23  32
ATOM     32  C   UNL     1       3.510  -8.189   4.819  0.00  0.00    -0.002 C 
ATOM     33  C   UNL     1       3.682  -9.347   4.726  0.00  0.00    -0.057 C 
BRANCH  33  34
ATOM     34  C   UNL     1       3.892 -10.759   4.612  0.00  0.00    +0.025 A 
ATOM     35  C   UNL     1       3.274 -11.480   3.585  0.00  0.00    +0.017 A 
ATOM     36  C   UNL     1       3.482 -12.840   3.482  0.00  0.00    +0.001 A 
ATOM     37  C   UNL     1       4.298 -13.490   4.390  0.00  0.00    +0.000 A 
ATOM     38  C   UNL     1       4.913 -12.783   5.409  0.00  0.00    +0.001 A 
ATOM     39  C   UNL     1       4.720 -11.422   5.522  0.00  0.00    +0.017 A 
ENDBRANCH  33  34
ENDBRANCH  23  32
ENDBRANCH   1  22
TORSDOF 12
