REMARK  Name = ZINC59170678
REMARK  7 active torsions:
REMARK  status: ('A' for Active; 'I' for Inactive)
REMARK    1  A    between atoms: C_1  and  C_2
REMARK    2  A    between atoms: C_5  and  S_8
REMARK    3  A    between atoms: S_8  and  N_11
REMARK    4  A    between atoms: N_11  and  N_12
REMARK    5  A    between atoms: C_14  and  C_24
REMARK    6  A    between atoms: C_18  and  C_23
REMARK    7  A    between atoms: N_26  and  C_27
REMARK                            x       y       z     vdW  Elec       q    Type
REMARK                         _______ _______ _______ _____ _____    ______ ____
ROOT
ATOM      1  N   UNL     1       3.299  -3.612  -0.171  0.00  0.00    -0.260 N 
ATOM      2  C   UNL     1       4.391  -4.286   0.054  0.00  0.00    +0.225 A 
ATOM      3  C   UNL     1       5.050  -4.253   1.381  0.00  0.00    +0.099 A 
ATOM      4  C   UNL     1       5.808  -5.343   1.734  0.00  0.00    +0.030 A 
ATOM      5  C   UNL     1       5.902  -6.447   0.770  0.00  0.00    +0.018 A 
ATOM      6  C   UNL     1       6.422  -7.687   1.154  0.00  0.00    +0.015 A 
ATOM      7  C   UNL     1       6.498  -8.709   0.233  0.00  0.00    -0.050 A 
ATOM      8  C   UNL     1       6.060  -8.514  -1.068  0.00  0.00    +0.007 A 
ATOM      9  C   UNL     1       5.545  -7.293  -1.461  0.00  0.00    +0.047 A 
ATOM     10  C   UNL     1       5.462  -6.252  -0.551  0.00  0.00    +0.137 A 
ATOM     11  O   UNL     1       4.961  -5.050  -0.923  0.00  0.00    -0.437 OA
ATOM     12  C   UNL     1       7.059 -10.047   0.642  0.00  0.00    +0.044 C 
ATOM     13  H   UNL     1       2.861  -3.142   0.556  0.00  0.00    +0.189 HD
ENDROOT
BRANCH   3  14
ATOM     14  C   UNL     1       4.898  -3.099   2.283  0.00  0.00    +0.253 C 
ATOM     15  O   UNL     1       4.158  -2.183   1.980  0.00  0.00    -0.270 OA
ATOM     16  N   UNL     1       5.580  -3.059   3.445  0.00  0.00    -0.281 N 
ATOM     17  H   UNL     1       6.239  -3.742   3.645  0.00  0.00    +0.155 HD
BRANCH  16  18
ATOM     18  C   UNL     1       5.338  -2.031   4.363  0.00  0.00    +0.034 A 
ATOM     19  C   UNL     1       4.065  -1.488   4.478  0.00  0.00    +0.026 A 
ATOM     20  C   UNL     1       3.827  -0.474   5.386  0.00  0.00    +0.040 A 
ATOM     21  C   UNL     1       4.857   0.001   6.180  0.00  0.00    +0.124 A 
ATOM     22  C   UNL     1       6.128  -0.539   6.066  0.00  0.00    +0.040 A 
ATOM     23  C   UNL     1       6.368  -1.557   5.165  0.00  0.00    +0.026 A 
ATOM     24  F   UNL     1       4.623   0.994   7.066  0.00  0.00    -0.205 F 
ENDBRANCH  16  18
ENDBRANCH   3  14
BRANCH   1  25
ATOM     25  N   UNL     1       2.757  -3.567  -1.462  0.00  0.00    -0.157 N 
ATOM     26  H   UNL     1       3.153  -4.095  -2.173  0.00  0.00    +0.194 HD
BRANCH  25  27
ATOM     27  S   UNL     1       1.442  -2.610  -1.775  0.00  0.00    +0.085 S 
ATOM     28  O   UNL     1       0.401  -3.059  -0.919  0.00  0.00    -0.149 OA
ATOM     29  O   UNL     1       1.300  -2.565  -3.188  0.00  0.00    -0.149 OA
BRANCH  27  34
ATOM     30  C   UNL     1       2.840   2.986  -0.004  0.00  0.00    +0.044 C 
ATOM     31  C   UNL     1       2.491   1.588  -0.447  0.00  0.00    -0.050 A 
ATOM     32  C   UNL     1       2.860   1.149  -1.704  0.00  0.00    +0.005 A 
ATOM     33  C   UNL     1       2.540  -0.134  -2.110  0.00  0.00    +0.029 A 
ATOM     34  C   UNL     1       1.851  -0.977  -1.258  0.00  0.00    +0.110 A 
ATOM     35  C   UNL     1       1.483  -0.537   0.000  0.00  0.00    +0.029 A 
ATOM     36  C   UNL     1       1.807   0.743   0.407  0.00  0.00    +0.005 A 
ENDBRANCH  27  34
ENDBRANCH  25  27
ENDBRANCH   1  25
TORSDOF 5
