REMARK  Name = ZINC61678503
REMARK  6 active torsions:
REMARK  status: ('A' for Active; 'I' for Inactive)
REMARK    1  A    between atoms: C_1  and  C_2
REMARK    2  A    between atoms: C_2  and  C_3
REMARK    3  A    between atoms: C_3  and  C_5
REMARK    4  A    between atoms: C_3  and  S_8
REMARK    5  A    between atoms: S_8  and  C_10
REMARK    6  A    between atoms: C_13  and  C_16
REMARK                            x       y       z     vdW  Elec       q    Type
REMARK                         _______ _______ _______ _____ _____    ______ ____
ROOT
ATOM      1  S   UNL     1       2.482  -0.007   1.155  0.00  0.00    +0.066 S 
ATOM      2  O   UNL     1       2.588   1.382   1.435  0.00  0.00    -0.251 OA
ENDROOT
BRANCH   1   3
ATOM      3  C   UNL     1       3.220  -0.781   2.555  0.00  0.00    +0.040 A 
ATOM      4  C   UNL     1       3.257  -0.117   3.769  0.00  0.00    +0.018 A 
ATOM      5  C   UNL     1       3.833  -0.717   4.870  0.00  0.00    +0.016 A 
ATOM      6  C   UNL     1       4.381  -1.997   4.757  0.00  0.00    +0.063 A 
ATOM      7  C   UNL     1       4.340  -2.661   3.528  0.00  0.00    +0.016 A 
ATOM      8  C   UNL     1       3.756  -2.051   2.438  0.00  0.00    +0.018 A 
BRANCH   6   9
ATOM      9  C   UNL     1       5.000  -2.644   5.929  0.00  0.00    +0.387 C 
ATOM     10  O   UNL     1       5.034  -2.060   7.003  0.00  0.00    -0.241 OA
ATOM     11  O   UNL     1       5.479  -3.765   5.827  0.00  0.00    -0.241 OA
ENDBRANCH   6   9
ENDBRANCH   1   3
BRANCH   1  12
ATOM     12  C   UNL     1       0.742  -0.511   1.242  0.00  0.00    +0.168 C 
BRANCH  12  13
ATOM     13  C   UNL     1       0.657  -2.014   1.298  0.00  0.00    +0.226 C 
ATOM     14  O   UNL     1       0.303  -2.564   2.319  0.00  0.00    -0.275 OA
ATOM     15  N   UNL     1       0.974  -2.748   0.213  0.00  0.00    -0.328 N 
ATOM     16  H   UNL     1       1.256  -2.309  -0.604  0.00  0.00    +0.145 HD
ATOM     17  H   UNL     1       0.918  -3.716   0.249  0.00  0.00    +0.145 HD
ENDBRANCH  12  13
BRANCH  12  19
ATOM     18  C   UNL     1      -0.019   1.526   0.010  0.00  0.00    +0.005 C 
ATOM     19  C   UNL     1       0.002  -0.004   0.002  0.00  0.00    +0.023 C 
ENDBRANCH  12  19
ENDBRANCH   1  12
TORSDOF 5
