REMARK  Name = ZINC61224741
REMARK  4 active torsions:
REMARK  status: ('A' for Active; 'I' for Inactive)
REMARK    1  A    between atoms: C_1  and  N_2
REMARK    2  A    between atoms: C_6  and  C_7
REMARK    3  A    between atoms: N_9  and  N_10
REMARK    4  A    between atoms: C_11  and  C_13
REMARK                            x       y       z     vdW  Elec       q    Type
REMARK                         _______ _______ _______ _____ _____    ______ ____
ROOT
ATOM      1  N   UNL     1      -0.397   1.368   4.116  0.00  0.00    -0.230 N 
ATOM      2  C   UNL     1      -0.600   2.671   4.394  0.00  0.00    +0.260 C 
ATOM      3  O   UNL     1      -0.780   3.465   3.491  0.00  0.00    -0.269 OA
ATOM      4  H   UNL     1      -0.253   0.735   4.836  0.00  0.00    +0.173 HD
ENDROOT
BRANCH   2   5
ATOM      5  C   UNL     1      -0.605   3.134   5.796  0.00  0.00    +0.039 A 
ATOM      6  C   UNL     1      -0.392   2.219   6.837  0.00  0.00    +0.015 A 
ATOM      7  C   UNL     1      -0.393   2.632   8.136  0.00  0.00    +0.027 A 
ATOM      8  C   UNL     1      -0.608   3.973   8.447  0.00  0.00    +0.047 A 
ATOM      9  C   UNL     1      -0.823   4.904   7.410  0.00  0.00    +0.004 A 
ATOM     10  C   UNL     1      -0.816   4.479   6.083  0.00  0.00    +0.023 A 
ATOM     11  C   UNL     1      -1.011   6.194   8.066  0.00  0.00    -0.019 A 
ATOM     12  C   UNL     1      -0.904   5.989   9.392  0.00  0.00    +0.020 A 
ATOM     13  N   UNL     1      -0.663   4.666   9.634  0.00  0.00    -0.358 N 
ATOM     14  H   UNL     1      -0.548   4.273  10.513  0.00  0.00    +0.166 HD
ATOM     15  C   UNL     1      -1.037   7.087  10.423  0.00  0.00    +0.053 C 
ATOM     16  C   UNL     1      -0.879   8.439   9.718  0.00  0.00    +0.006 C 
ATOM     17  C   UNL     1      -1.803   8.491   8.498  0.00  0.00    +0.005 C 
ATOM     18  C   UNL     1      -1.278   7.531   7.423  0.00  0.00    +0.037 C 
ENDBRANCH   2   5
BRANCH   1  21
ATOM     19  C   UNL     1      -0.188  -0.374   2.507  0.00  0.00    +0.277 C 
ATOM     20  O   UNL     1      -0.101  -1.183   3.412  0.00  0.00    -0.267 OA
ATOM     21  N   UNL     1      -0.392   0.929   2.786  0.00  0.00    -0.229 N 
ATOM     22  H   UNL     1      -0.535   1.562   2.065  0.00  0.00    +0.173 HD
BRANCH  19  28
ATOM     23  C   UNL     1       0.070  -3.305   1.538  0.00  0.00    +0.149 C 
ATOM     24  N   UNL     1       0.043  -2.118   0.680  0.00  0.00    -0.346 N 
ATOM     25  C   UNL     1       0.121  -2.119  -0.673  0.00  0.00    +0.086 A 
ATOM     26  C   UNL     1       0.064  -0.840  -1.116  0.00  0.00    +0.020 A 
ATOM     27  C   UNL     1      -0.054  -0.005  -0.001  0.00  0.00    +0.032 A 
ATOM     28  C   UNL     1      -0.072  -0.817   1.113  0.00  0.00    +0.106 A 
ENDBRANCH  19  28
ENDBRANCH   1  21
TORSDOF 3
