REMARK  Name = ZINC56508447
REMARK  9 active torsions:
REMARK  status: ('A' for Active; 'I' for Inactive)
REMARK    1  A    between atoms: C_1  and  C_2
REMARK    2  A    between atoms: C_2  and  C_3
REMARK    3  A    between atoms: C_3  and  N_4
REMARK    4  A    between atoms: N_4  and  C_5
REMARK    5  A    between atoms: N_4  and  C_10
REMARK    6  A    between atoms: C_5  and  C_6
REMARK    7  A    between atoms: N_8  and  C_9
REMARK    8  A    between atoms: C_10  and  C_11
REMARK    9  A    between atoms: N_13  and  C_14
REMARK                            x       y       z     vdW  Elec       q    Type
REMARK                         _______ _______ _______ _____ _____    ______ ____
ROOT
ATOM      1  C   UNL     1       3.099  -2.510  -2.458  0.00  0.00    +0.197 C 
ATOM      2  O   UNL     1       3.639  -2.035  -1.481  0.00  0.00    -0.278 OA
ATOM      3  N   UNL     1       3.814  -2.745  -3.576  0.00  0.00    -0.306 N 
ATOM      4  H   UNL     1       3.382  -3.124  -4.357  0.00  0.00    +0.149 HD
ENDROOT
BRANCH   3   5
ATOM      5  C   UNL     1       5.244  -2.427  -3.611  0.00  0.00    +0.159 C 
ATOM      6  C   UNL     1       5.723  -2.376  -5.064  0.00  0.00    +0.032 C 
ATOM      7  C   UNL     1       4.990  -3.402  -5.909  0.00  0.00    +0.004 C 
ATOM      8  C   UNL     1       5.312  -4.839  -5.543  0.00  0.00    +0.019 C 
ATOM      9  C   UNL     1       4.783  -5.179  -4.148  0.00  0.00    +0.104 C 
ATOM     10  N   UNL     1       5.796  -4.791  -3.153  0.00  0.00    -0.314 N 
ATOM     11  C   UNL     1       6.022  -3.502  -2.882  0.00  0.00    +0.233 C 
ATOM     12  O   UNL     1       6.854  -3.190  -2.057  0.00  0.00    -0.274 OA
ATOM     13  H   UNL     1       6.301  -5.476  -2.688  0.00  0.00    +0.149 HD
ENDBRANCH   3   5
BRANCH   1  14
ATOM     14  C   UNL     1       1.629  -2.837  -2.421  0.00  0.00    +0.019 C 
BRANCH  14  15
ATOM     15  N   UNL     1       1.083  -2.491  -1.102  0.00  0.00    +0.391 N 
ATOM     16  H   UNL     1       1.617  -2.957  -0.384  0.00  0.00    -0.080 HD
BRANCH  15  17
ATOM     17  C   UNL     1       1.163  -1.037  -0.904  0.00  0.00    -0.078 C 
BRANCH  17  19
ATOM     18  C   UNL     1       0.954   0.803   0.772  0.00  0.00    +0.002 C 
ATOM     19  C   UNL     1       0.751  -0.693   0.528  0.00  0.00    -0.022 C 
ENDBRANCH  17  19
ENDBRANCH  15  17
BRANCH  15  20
ATOM     20  C   UNL     1      -0.321  -2.919  -1.025  0.00  0.00    +0.019 C 
BRANCH  20  21
ATOM     21  C   UNL     1      -0.389  -4.424  -1.061  0.00  0.00    +0.196 C 
ATOM     22  O   UNL     1       0.631  -5.078  -1.025  0.00  0.00    -0.278 OA
ATOM     23  N   UNL     1      -1.585  -5.042  -1.134  0.00  0.00    -0.320 N 
ATOM     24  C   UNL     1      -1.651  -6.505  -1.170  0.00  0.00    +0.128 C 
ATOM     25  H   UNL     1      -2.401  -4.518  -1.163  0.00  0.00    +0.148 HD
ENDBRANCH  20  21
ENDBRANCH  15  20
ENDBRANCH  14  15
ENDBRANCH   1  14
TORSDOF 7
