REMARK  Name = ZINC37161925
REMARK  12 active torsions:
REMARK  status: ('A' for Active; 'I' for Inactive)
REMARK    1  A    between atoms: C_1  and  C_2
REMARK    2  A    between atoms: C_2  and  C_3
REMARK    3  A    between atoms: C_3  and  C_5
REMARK    4  A    between atoms: C_3  and  N_13
REMARK    5  A    between atoms: C_10  and  O_11
REMARK    6  A    between atoms: N_13  and  C_14
REMARK    7  A    between atoms: C_14  and  C_16
REMARK    8  A    between atoms: C_14  and  C_20
REMARK    9  A    between atoms: C_16  and  C_17
REMARK   10  A    between atoms: C_17  and  C_18
REMARK   11  A    between atoms: C_17  and  C_19
REMARK   12  A    between atoms: N_22  and  C_23
REMARK                            x       y       z     vdW  Elec       q    Type
REMARK                         _______ _______ _______ _____ _____    ______ ____
ROOT
ATOM      1  N   UNL     1       0.516   0.083   2.093  0.00  0.00    +0.391 N 
ATOM      2  H   UNL     1      -0.244  -0.555   1.907  0.00  0.00    -0.084 HD
ATOM      3  H   UNL     1       1.008  -0.214   2.923  0.00  0.00    -0.084 HD
ENDROOT
BRANCH   1   4
ATOM      4  C   UNL     1       1.440   0.090   0.952  0.00  0.00    -0.037 C 
BRANCH   4   5
ATOM      5  C   UNL     1       2.651   0.920   1.291  0.00  0.00    -0.019 A 
ATOM      6  C   UNL     1       3.025   1.090   2.611  0.00  0.00    +0.020 A 
ATOM      7  C   UNL     1       4.136   1.852   2.923  0.00  0.00    +0.018 A 
ATOM      8  C   UNL     1       4.877   2.445   1.915  0.00  0.00    +0.019 A 
ATOM      9  C   UNL     1       4.507   2.277   0.595  0.00  0.00    +0.047 A 
ATOM     10  C   UNL     1       3.395   1.509   0.280  0.00  0.00    +0.119 A 
ATOM     11 BR   UNL     1       4.645   2.084   4.729  0.00  0.00    -0.050 Br
BRANCH  10  12
ATOM     12  O   UNL     1       3.033   1.338  -1.019  0.00  0.00    -0.507 OA
ATOM     13  H   UNL     1       2.421   2.010  -1.348  0.00  0.00    +0.292 HD
ENDBRANCH  10  12
ENDBRANCH   4   5
BRANCH   4  15
ATOM     14  C   UNL     1       0.666  -2.151   0.165  0.00  0.00    +0.002 C 
ATOM     15  C   UNL     1       1.875  -1.343   0.638  0.00  0.00    -0.014 C 
ENDBRANCH   4  15
ENDBRANCH   1   4
BRANCH   1  16
ATOM     16  C   UNL     1      -0.019   1.435   2.299  0.00  0.00    +0.017 C 
BRANCH  16  17
ATOM     17  C   UNL     1      -0.822   1.847   1.092  0.00  0.00    +0.199 C 
ATOM     18  O   UNL     1      -1.335   1.003   0.388  0.00  0.00    -0.278 OA
ATOM     19  N   UNL     1      -0.970   3.153   0.795  0.00  0.00    -0.320 N 
ATOM     20  C   UNL     1      -1.751   3.553  -0.379  0.00  0.00    +0.128 C 
ATOM     21  H   UNL     1      -0.560   3.828   1.358  0.00  0.00    +0.148 HD
ENDBRANCH  16  17
BRANCH  16  22
ATOM     22  C   UNL     1      -0.918   1.445   3.537  0.00  0.00    -0.004 C 
BRANCH  22  23
ATOM     23  C   UNL     1      -0.077   1.149   4.780  0.00  0.00    -0.018 C 
ATOM     24  C   UNL     1       0.926   2.284   4.999  0.00  0.00    +0.007 C 
ATOM     25  C   UNL     1      -0.993   1.036   6.001  0.00  0.00    +0.007 C 
ENDBRANCH  22  23
ENDBRANCH  16  22
ENDBRANCH   1  16
TORSDOF 8
