REMARK  Name = ZINC31194395
REMARK  13 active torsions:
REMARK  status: ('A' for Active; 'I' for Inactive)
REMARK    1  A    between atoms: C_1  and  C_2
REMARK    2  A    between atoms: C_2  and  N_3
REMARK    3  A    between atoms: N_3  and  C_4
REMARK    4  A    between atoms: N_3  and  C_6
REMARK    5  A    between atoms: C_4  and  C_5
REMARK    6  A    between atoms: C_6  and  C_8
REMARK    7  A    between atoms: C_6  and  C_29
REMARK    8  A    between atoms: C_8  and  N_9
REMARK    9  A    between atoms: N_12  and  N_13
REMARK   10  A    between atoms: C_14  and  C_16
REMARK   11  A    between atoms: C_19  and  C_21
REMARK   12  A    between atoms: C_21  and  O_22
REMARK   13  A    between atoms: O_22  and  C_23
REMARK                            x       y       z     vdW  Elec       q    Type
REMARK                         _______ _______ _______ _____ _____    ______ ____
ROOT
ATOM      1  N   UNL     1       0.373  -1.917   1.465  0.00  0.00    -0.299 N 
ATOM      2  C   UNL     1       1.102  -2.376   2.501  0.00  0.00    +0.316 C 
ATOM      3  O   UNL     1       0.590  -3.102   3.331  0.00  0.00    -0.251 OA
ATOM      4  N   UNL     1       2.400  -2.029   2.618  0.00  0.00    -0.218 N 
ATOM      5  H   UNL     1       0.782  -1.338   0.803  0.00  0.00    +0.150 HD
ATOM      6  H   UNL     1       2.924  -2.359   3.364  0.00  0.00    +0.174 HD
ENDROOT
BRANCH   4   7
ATOM      7  N   UNL     1       2.990  -1.193   1.662  0.00  0.00    -0.227 N 
ATOM      8  C   UNL     1       4.287  -0.846   1.779  0.00  0.00    +0.295 C 
ATOM      9  O   UNL     1       4.946  -1.260   2.715  0.00  0.00    -0.265 OA
ATOM     10  H   UNL     1       2.465  -0.863   0.916  0.00  0.00    +0.173 HD
BRANCH   8  11
ATOM     11  C   UNL     1       4.905   0.029   0.778  0.00  0.00    +0.191 A 
ATOM     12  C   UNL     1       6.204   0.451   0.773  0.00  0.00    +0.055 A 
ATOM     13  C   UNL     1       6.360   1.266  -0.359  0.00  0.00    +0.049 A 
ATOM     14  C   UNL     1       5.164   1.306  -0.988  0.00  0.00    +0.143 A 
ATOM     15  O   UNL     1       4.292   0.555  -0.303  0.00  0.00    -0.452 OA
BRANCH  14  16
ATOM     16  C   UNL     1       4.864   2.064  -2.255  0.00  0.00    +0.303 C 
BRANCH  16  17
ATOM     17  O   UNL     1       5.116   1.226  -3.384  0.00  0.00    -0.484 OA
BRANCH  17  18
ATOM     18  C   UNL     1       4.893   1.762  -4.613  0.00  0.00    +0.121 A 
ATOM     19  C   UNL     1       4.447   3.070  -4.730  0.00  0.00    +0.045 A 
ATOM     20  C   UNL     1       4.221   3.612  -5.980  0.00  0.00    +0.004 A 
ATOM     21  C   UNL     1       4.440   2.853  -7.114  0.00  0.00    +0.000 A 
ATOM     22  C   UNL     1       4.885   1.548  -7.000  0.00  0.00    +0.004 A 
ATOM     23  C   UNL     1       5.118   1.003  -5.753  0.00  0.00    +0.045 A 
ENDBRANCH  17  18
ENDBRANCH  16  17
ENDBRANCH  14  16
ENDBRANCH   8  11
ENDBRANCH   4   7
BRANCH   1  24
ATOM     24  C   UNL     1      -1.037  -2.293   1.338  0.00  0.00    +0.095 C 
BRANCH  24  25
ATOM     25  C   UNL     1      -1.654  -1.565   0.142  0.00  0.00    -0.020 C 
BRANCH  25  26
ATOM     26  C   UNL     1      -3.032  -2.114  -0.124  0.00  0.00    -0.052 A 
ATOM     27  C   UNL     1      -3.235  -3.042  -1.128  0.00  0.00    +0.009 A 
ATOM     28  C   UNL     1      -4.487  -3.516  -1.341  0.00  0.00    +0.045 A 
ATOM     29  S   UNL     1      -5.429  -2.642  -0.102  0.00  0.00    -0.105 S 
ATOM     30  C   UNL     1      -4.090  -1.708   0.620  0.00  0.00    +0.047 A 
ENDBRANCH  25  26
BRANCH  25  31
ATOM     31  N   UNL     1      -1.748  -0.129   0.439  0.00  0.00    +0.385 N 
ATOM     32  H   UNL     1      -2.199   0.001   1.331  0.00  0.00    -0.081 HD
BRANCH  31  34
ATOM     33  C   UNL     1       0.246   0.349  -0.900  0.00  0.00    -0.017 C 
ATOM     34  C   UNL     1      -0.399   0.451   0.483  0.00  0.00    -0.081 C 
ENDBRANCH  31  34
BRANCH  31  35
ATOM     35  C   UNL     1      -2.532   0.537  -0.609  0.00  0.00    -0.081 C 
ATOM     36  C   UNL     1      -2.753   2.002  -0.227  0.00  0.00    -0.017 C 
ENDBRANCH  31  35
ENDBRANCH  25  31
ENDBRANCH  24  25
ENDBRANCH   1  24
TORSDOF 11
