REMARK  Name = ZINC08215530
REMARK  10 active torsions:
REMARK  status: ('A' for Active; 'I' for Inactive)
REMARK    1  A    between atoms: N_10  and  C_11
REMARK    2  A    between atoms: C_13  and  O_35
REMARK    3  A    between atoms: C_15  and  O_34
REMARK    4  A    between atoms: C_17  and  C_20
REMARK    5  A    between atoms: C_20  and  O_21
REMARK    6  A    between atoms: O_21  and  P_22
REMARK    7  A    between atoms: P_22  and  O_25
REMARK    8  A    between atoms: O_25  and  P_26
REMARK    9  A    between atoms: P_26  and  O_29
REMARK   10  A    between atoms: O_29  and  P_30
REMARK                            x       y       z     vdW  Elec       q    Type
REMARK                         _______ _______ _______ _____ _____    ______ ____
ROOT
ATOM      1  C   UNL     1      -0.455  -3.149  -0.010  0.00  0.00    +0.253 C 
ATOM      2  C   UNL     1      -0.020  -3.502   1.429  0.00  0.00    +0.195 C 
ATOM      3  C   UNL     1       0.127  -5.040   1.410  0.00  0.00    +0.178 C 
ATOM      4  C   UNL     1      -0.237  -5.434  -0.038  0.00  0.00    +0.178 C 
ATOM      5  O   UNL     1      -1.068  -4.354  -0.519  0.00  0.00    -0.346 OA
ENDROOT
BRANCH   1  15
ATOM      6  C   UNL     1      -0.016   1.299   0.009  0.00  0.00    +0.201 A 
ATOM      7  N   UNL     1       0.002  -0.004   0.002  0.00  0.00    -0.218 NA
ATOM      8  C   UNL     1      -1.134  -0.715   0.009  0.00  0.00    +0.169 A 
ATOM      9  C   UNL     1      -2.364  -0.050   0.025  0.00  0.00    +0.172 A 
ATOM     10  C   UNL     1      -2.365   1.367   0.033  0.00  0.00    +0.279 A 
ATOM     11  N   UNL     1      -1.174   2.006   0.030  0.00  0.00    -0.312 N 
ATOM     12  O   UNL     1      -3.411   1.993   0.047  0.00  0.00    -0.265 OA
ATOM     13  N   UNL     1      -3.333  -0.995   0.030  0.00  0.00    -0.229 NA
ATOM     14  C   UNL     1      -2.783  -2.175   0.018  0.00  0.00    +0.203 A 
ATOM     15  N   UNL     1      -1.425  -2.051   0.005  0.00  0.00    -0.285 N 
ATOM     16  H   UNL     1      -1.147   2.976   0.035  0.00  0.00    +0.170 HD
ENDBRANCH   1  15
BRANCH   3  17
ATOM     17  O   UNL     1       1.472  -5.418   1.712  0.00  0.00    -0.386 OA
ATOM     18  H   UNL     1       1.771  -5.142   2.589  0.00  0.00    +0.210 HD
ENDBRANCH   3  17
BRANCH   2  19
ATOM     19  O   UNL     1       1.229  -2.881   1.741  0.00  0.00    -0.385 OA
ATOM     20  H   UNL     1       1.550  -3.069   2.634  0.00  0.00    +0.210 HD
ENDBRANCH   2  19
BRANCH   4  21
ATOM     21  C   UNL     1      -1.012  -6.753  -0.052  0.00  0.00    +0.206 C 
BRANCH  21  22
ATOM     22  O   UNL     1      -1.237  -7.159  -1.404  0.00  0.00    -0.282 OA
BRANCH  22  23
ATOM     23  P   UNL     1      -2.026  -8.507  -1.795  0.00  0.00    +0.513 P 
ATOM     24  O   UNL     1      -1.358  -9.714  -1.100  0.00  0.00    -0.224 OA
ATOM     25  O   UNL     1      -3.496  -8.396  -1.334  0.00  0.00    -0.116 OA
BRANCH  23  26
ATOM     26  O   UNL     1      -1.978  -8.713  -3.391  0.00  0.00    -0.183 OA
BRANCH  26  27
ATOM     27  P   UNL     1      -2.284  -9.956  -4.368  0.00  0.00    +0.522 P 
ATOM     28  O   UNL     1      -1.737 -11.255  -3.735  0.00  0.00    -0.224 OA
ATOM     29  O   UNL     1      -3.810 -10.086  -4.574  0.00  0.00    -0.116 OA
BRANCH  27  30
ATOM     30  O   UNL     1      -1.569  -9.709  -5.789  0.00  0.00    -0.181 OA
BRANCH  30  31
ATOM     31  P   UNL     1      -1.228 -10.653  -7.048  0.00  0.00    +0.540 P 
ATOM     32  O   UNL     1      -0.742 -12.052  -6.535  0.00  0.00    -0.222 OA
ATOM     33  O   UNL     1      -2.511 -10.837  -7.927  0.00  0.00    -0.114 OA
ATOM     34  O   UNL     1      -0.097  -9.990  -7.907  0.00  0.00    -0.114 OA
ENDBRANCH  30  31
ENDBRANCH  27  30
ENDBRANCH  26  27
ENDBRANCH  23  26
ENDBRANCH  22  23
ENDBRANCH  21  22
ENDBRANCH   4  21
TORSDOF 10
