REMARK  Name = ZINC41710809
REMARK  6 active torsions:
REMARK  status: ('A' for Active; 'I' for Inactive)
REMARK    1  A    between atoms: C_1  and  C_2
REMARK    2  A    between atoms: C_2  and  C_4
REMARK    3  A    between atoms: C_2  and  N_21
REMARK    4  A    between atoms: C_7  and  N_10
REMARK    5  A    between atoms: N_13  and  C_14
REMARK    6  A    between atoms: N_21  and  C_22
REMARK                            x       y       z     vdW  Elec       q    Type
REMARK                         _______ _______ _______ _____ _____    ______ ____
ROOT
ATOM      1  N   UNL     1      -5.357  -1.825  -0.019  0.00  0.00    -0.269 N 
ATOM      2  C   UNL     1      -5.908  -2.339  -1.137  0.00  0.00    +0.308 C 
ATOM      3  O   UNL     1      -5.282  -2.338  -2.179  0.00  0.00    -0.252 OA
ATOM      4  N   UNL     1      -7.153  -2.854  -1.100  0.00  0.00    -0.269 N 
ATOM      5  H   UNL     1      -5.826  -1.894   0.828  0.00  0.00    +0.156 HD
ATOM      6  H   UNL     1      -7.681  -2.788  -0.289  0.00  0.00    +0.156 HD
ENDROOT
BRANCH   4   7
ATOM      7  C   UNL     1      -7.684  -3.485  -2.231  0.00  0.00    +0.035 A 
ATOM      8  C   UNL     1      -6.851  -4.191  -3.089  0.00  0.00    +0.024 A 
ATOM      9  C   UNL     1      -7.377  -4.812  -4.204  0.00  0.00    +0.017 A 
ATOM     10  C   UNL     1      -8.733  -4.732  -4.467  0.00  0.00    +0.018 A 
ATOM     11  C   UNL     1      -9.566  -4.029  -3.614  0.00  0.00    +0.017 A 
ATOM     12  C   UNL     1      -9.045  -3.410  -2.494  0.00  0.00    +0.024 A 
ATOM     13 BR   UNL     1      -9.450  -5.584  -5.995  0.00  0.00    -0.050 Br
ENDBRANCH   4   7
BRANCH   1  17
ATOM     14  C   UNL     1      -1.645   0.057  -0.200  0.00  0.00    -0.062 A 
ATOM     15  C   UNL     1      -2.512   0.137  -1.274  0.00  0.00    +0.004 A 
ATOM     16  C   UNL     1      -3.744  -0.486  -1.218  0.00  0.00    +0.023 A 
ATOM     17  C   UNL     1      -4.110  -1.194  -0.080  0.00  0.00    +0.035 A 
ATOM     18  C   UNL     1      -3.237  -1.273   0.996  0.00  0.00    +0.023 A 
ATOM     19  C   UNL     1      -2.005  -0.652   0.931  0.00  0.00    +0.004 A 
BRANCH  14  21
ATOM     20  C   UNL     1      -0.471   2.228   0.037  0.00  0.00    -0.009 C 
ATOM     21  C   UNL     1      -0.302   0.738  -0.266  0.00  0.00    -0.044 C 
BRANCH  21  22
ATOM     22  N   UNL     1       0.266   0.573  -1.611  0.00  0.00    +0.382 N 
ATOM     23  C   UNL     1       1.624   1.132  -1.641  0.00  0.00    -0.100 C 
ATOM     24  H   UNL     1       0.300  -0.408  -1.843  0.00  0.00    -0.085 HD
ATOM     25  H   UNL     1      -0.312   1.057  -2.281  0.00  0.00    -0.085 HD
ENDBRANCH  21  22
ENDBRANCH  14  21
ENDBRANCH   1  17
TORSDOF 4
