REMARK  Name = ZINC66244400
REMARK  4 active torsions:
REMARK  status: ('A' for Active; 'I' for Inactive)
REMARK    1  A    between atoms: C_3  and  C_15
REMARK    2  A    between atoms: C_6  and  C_7
REMARK    3  A    between atoms: C_7  and  N_8
REMARK    4  A    between atoms: N_10  and  C_11
REMARK                            x       y       z     vdW  Elec       q    Type
REMARK                         _______ _______ _______ _____ _____    ______ ____
ROOT
ATOM      1  C   UNL     1      -0.008   1.485  -0.122  0.00  0.00    +0.006 A 
ATOM      2  C   UNL     1       1.190   2.170  -0.154  0.00  0.00    +0.009 A 
ATOM      3  C   UNL     1       2.392   1.466  -0.110  0.00  0.00    -0.018 A 
ATOM      4  C   UNL     1       2.377   0.075  -0.032  0.00  0.00    +0.009 A 
ATOM      5  C   UNL     1       1.173  -0.599  -0.001  0.00  0.00    +0.006 A 
ATOM      6  C   UNL     1      -0.017   0.104  -0.046  0.00  0.00    -0.028 A 
ENDROOT
BRANCH   3   7
ATOM      7  C   UNL     1       3.683   2.196  -0.144  0.00  0.00    -0.017 A 
ATOM      8  C   UNL     1       3.699   3.588  -0.216  0.00  0.00    +0.012 A 
ATOM      9  C   UNL     1       4.901   4.259  -0.250  0.00  0.00    +0.046 A 
ATOM     10  C   UNL     1       6.102   3.555  -0.212  0.00  0.00    +0.124 A 
ATOM     11  C   UNL     1       6.089   2.172  -0.137  0.00  0.00    -0.005 A 
ATOM     12  C   UNL     1       4.885   1.494  -0.099  0.00  0.00    +0.015 A 
ATOM     13  C   UNL     1       7.369   1.377  -0.083  0.00  0.00    +0.042 C 
ATOM     14  C   UNL     1       8.536   2.243  -0.564  0.00  0.00    +0.046 C 
ATOM     15  C   UNL     1       8.460   3.595   0.157  0.00  0.00    +0.229 C 
ATOM     16  O   UNL     1       7.264   4.258  -0.254  0.00  0.00    -0.492 OA
ENDBRANCH   3   7
BRANCH   6  17
ATOM     17  C   UNL     1      -1.329  -0.637  -0.010  0.00  0.00    +0.151 C 
BRANCH  17  18
ATOM     18  N   UNL     1      -1.747  -0.954  -1.378  0.00  0.00    -0.354 N 
ATOM     19  C   UNL     1      -2.923  -1.633  -1.597  0.00  0.00    +0.169 C 
ATOM     20  N   UNL     1      -3.295  -1.915  -2.814  0.00  0.00    -0.355 N 
ATOM     21  N   UNL     1      -3.705  -2.014  -0.533  0.00  0.00    -0.371 N 
ATOM     22  H   UNL     1      -1.196  -0.684  -2.129  0.00  0.00    +0.163 HD
ATOM     23  H   UNL     1      -3.470  -1.736   0.366  0.00  0.00    +0.159 HD
ATOM     24  H   UNL     1      -4.492  -2.562  -0.681  0.00  0.00    +0.159 HD
ATOM     25  H   UNL     1      -2.783  -1.582  -3.568  0.00  0.00    +0.163 HD
BRANCH  20  26
ATOM     26  C   UNL     1      -4.488  -2.733  -3.044  0.00  0.00    +0.082 C 
ATOM     27  C   UNL     1      -5.216  -2.562  -4.379  0.00  0.00    +0.026 C 
ATOM     28  C   UNL     1      -5.839  -2.015  -3.093  0.00  0.00    +0.026 C 
ENDBRANCH  20  26
ENDBRANCH  17  18
ENDBRANCH   6  17
TORSDOF 4
