REMARK  Name = ZINC47540650
REMARK  9 active torsions:
REMARK  status: ('A' for Active; 'I' for Inactive)
REMARK    1  A    between atoms: C_1  and  C_2
REMARK    2  A    between atoms: C_2  and  C_3
REMARK    3  A    between atoms: C_3  and  C_5
REMARK    4  A    between atoms: C_3  and  N_6
REMARK    5  A    between atoms: C_7  and  C_9
REMARK    6  A    between atoms: C_9  and  C_10
REMARK    7  A    between atoms: C_10  and  N_11
REMARK    8  A    between atoms: N_14  and  C_15
REMARK    9  A    between atoms: C_20  and  N_21
REMARK                            x       y       z     vdW  Elec       q    Type
REMARK                         _______ _______ _______ _____ _____    ______ ____
ROOT
ATOM      1  N   UNL     1      -0.073   0.922  -7.237  0.00  0.00    -0.299 N 
ATOM      2  C   UNL     1       0.541   1.049  -8.430  0.00  0.00    +0.304 C 
ATOM      3  O   UNL     1       1.738   0.855  -8.521  0.00  0.00    -0.253 OA
ATOM      4  N   UNL     1      -0.171   1.392  -9.522  0.00  0.00    -0.267 N 
ATOM      5  H   UNL     1      -1.028   1.077  -7.165  0.00  0.00    +0.150 HD
ATOM      6  H   UNL     1      -1.137   1.466  -9.468  0.00  0.00    +0.156 HD
ENDROOT
BRANCH   4   7
ATOM      7  C   UNL     1       0.484   1.641 -10.736  0.00  0.00    +0.073 A 
ATOM      8  C   UNL     1       1.814   2.038 -10.751  0.00  0.00    +0.028 A 
ATOM      9  C   UNL     1       2.421   2.273 -11.978  0.00  0.00    +0.019 A 
ATOM     10  C   UNL     1       1.690   2.107 -13.137  0.00  0.00    +0.084 A 
ATOM     11  N   UNL     1       0.425   1.730 -13.096  0.00  0.00    -0.348 N 
ATOM     12  C   UNL     1      -0.191   1.489 -11.950  0.00  0.00    +0.121 A 
ATOM     13  H   UNL     1      -0.063   1.622 -13.927  0.00  0.00    +0.167 HD
BRANCH  12  14
ATOM     14  N   UNL     1      -1.524   1.087 -11.954  0.00  0.00    -0.315 N 
ATOM     15  C   UNL     1      -1.999  -0.303 -11.895  0.00  0.00    +0.106 C 
ATOM     16  C   UNL     1      -3.541  -0.262 -11.950  0.00  0.00    +0.020 C 
ATOM     17  C   UNL     1      -3.829   1.114 -12.607  0.00  0.00    +0.020 C 
ATOM     18  C   UNL     1      -2.692   1.985 -12.012  0.00  0.00    +0.106 C 
ENDBRANCH  12  14
ENDBRANCH   4   7
BRANCH   1  19
ATOM     19  C   UNL     1       0.701   0.549  -6.051  0.00  0.00    +0.115 C 
BRANCH  19  20
ATOM     20  C   UNL     1      -0.229   0.474  -4.838  0.00  0.00    +0.114 C 
BRANCH  20  22
ATOM     21  N   UNL     1      -0.048  -0.036  -2.425  0.00  0.00    -0.313 N 
ATOM     22  C   UNL     1       0.567   0.091  -3.618  0.00  0.00    +0.215 C 
ATOM     23  O   UNL     1       1.761  -0.103  -3.708  0.00  0.00    -0.276 OA
ATOM     24  H   UNL     1      -1.002   0.119  -2.352  0.00  0.00    +0.149 HD
BRANCH  21  25
ATOM     25  C   UNL     1       0.727  -0.408  -1.238  0.00  0.00    +0.070 C 
ATOM     26  C   UNL     1       0.854  -1.932  -1.170  0.00  0.00    +0.028 C 
BRANCH  25  28
ATOM     27  C   UNL     1      -0.003   1.630   0.008  0.00  0.00    +0.005 C 
ATOM     28  C   UNL     1       0.014   0.101   0.017  0.00  0.00    +0.018 C 
ENDBRANCH  25  28
ENDBRANCH  21  25
ENDBRANCH  20  22
ENDBRANCH  19  20
ENDBRANCH   1  19
TORSDOF 7
