REMARK  Name = ZINC40378670
REMARK  5 active torsions:
REMARK  status: ('A' for Active; 'I' for Inactive)
REMARK    1  A    between atoms: C_1  and  C_2
REMARK    2  A    between atoms: C_6  and  C_7
REMARK    3  A    between atoms: N_9  and  C_10
REMARK    4  A    between atoms: C_13  and  S_17
REMARK    5  A    between atoms: S_17  and  N_20
REMARK                            x       y       z     vdW  Elec       q    Type
REMARK                         _______ _______ _______ _____ _____    ______ ____
ROOT
ATOM      1  C   UNL     1       0.152  -0.854   4.799  0.00  0.00    +0.048 A 
ATOM      2  C   UNL     1       0.123   0.509   5.065  0.00  0.00    +0.026 A 
ATOM      3  C   UNL     1       0.221   0.959   6.367  0.00  0.00    +0.030 A 
ATOM      4  C   UNL     1       0.347   0.055   7.405  0.00  0.00    +0.106 A 
ATOM      5  C   UNL     1       0.377  -1.302   7.145  0.00  0.00    +0.045 A 
ATOM      6  C   UNL     1       0.274  -1.760   5.845  0.00  0.00    +0.041 A 
ATOM      7 BR   UNL     1       0.307  -3.617   5.490  0.00  0.00    -0.048 Br
ENDROOT
BRANCH   1  10
ATOM      8  C   UNL     1      -0.552  -0.554   2.547  0.00  0.00    +0.284 C 
ATOM      9  O   UNL     1      -1.100   0.485   2.867  0.00  0.00    -0.266 OA
ATOM     10  N   UNL     1       0.053  -1.313   3.481  0.00  0.00    -0.278 N 
ATOM     11  H   UNL     1       0.420  -2.178   3.240  0.00  0.00    +0.155 HD
BRANCH   8  17
ATOM     12  C   UNL     1      -1.870   1.000   0.174  0.00  0.00    +0.048 C 
ATOM     13  C   UNL     1      -1.122  -0.307   0.101  0.00  0.00    -0.000 A 
ATOM     14  C   UNL     1      -0.874  -1.066  -1.053  0.00  0.00    +0.045 A 
ATOM     15  C   UNL     1      -0.174  -2.157  -0.669  0.00  0.00    +0.196 A 
ATOM     16  O   UNL     1       0.016  -2.102   0.656  0.00  0.00    -0.458 OA
ATOM     17  C   UNL     1      -0.549  -0.978   1.143  0.00  0.00    +0.192 A 
ENDBRANCH   8  17
ENDBRANCH   1  10
BRANCH   4  18
ATOM     18  S   UNL     1       0.471   0.634   9.065  0.00  0.00    +0.056 S 
ATOM     19  O   UNL     1       1.129  -0.386   9.803  0.00  0.00    -0.153 OA
ATOM     20  O   UNL     1       0.967   1.964   8.995  0.00  0.00    -0.153 OA
BRANCH  18  21
ATOM     21  N   UNL     1      -1.069   0.735   9.665  0.00  0.00    -0.204 NA
ATOM     22  H   UNL     1      -1.824   0.490   9.107  0.00  0.00    +0.144 HD
ATOM     23  H   UNL     1      -1.216   1.037  10.575  0.00  0.00    +0.144 HD
ENDBRANCH  18  21
ENDBRANCH   4  18
TORSDOF 4
