REMARK  Name = ZINC37628023
REMARK  7 active torsions:
REMARK  status: ('A' for Active; 'I' for Inactive)
REMARK    1  A    between atoms: C_1  and  O_2
REMARK    2  A    between atoms: O_2  and  C_3
REMARK    3  A    between atoms: C_4  and  N_11
REMARK    4  A    between atoms: C_12  and  C_14
REMARK    5  A    between atoms: C_14  and  N_15
REMARK    6  A    between atoms: C_16  and  C_18
REMARK    7  A    between atoms: C_18  and  N_19
REMARK                            x       y       z     vdW  Elec       q    Type
REMARK                         _______ _______ _______ _____ _____    ______ ____
ROOT
ATOM      1  N   UNL     1       2.713  -0.575  -0.183  0.00  0.00    -0.281 N 
ATOM      2  C   UNL     1       4.047  -0.766  -0.217  0.00  0.00    +0.234 C 
ATOM      3  O   UNL     1       4.605  -1.313   0.711  0.00  0.00    -0.274 OA
ATOM      4  H   UNL     1       2.258  -0.196  -0.952  0.00  0.00    +0.155 HD
ENDROOT
BRANCH   1   6
ATOM      5  C   UNL     1       0.882  -0.161   1.346  0.00  0.00    +0.155 A 
ATOM      6  C   UNL     1       1.984  -0.922   0.962  0.00  0.00    +0.078 A 
ATOM      7  C   UNL     1       2.358  -2.025   1.715  0.00  0.00    +0.047 A 
ATOM      8  C   UNL     1       1.637  -2.367   2.845  0.00  0.00    +0.044 A 
ATOM      9  C   UNL     1       0.542  -1.611   3.225  0.00  0.00    +0.039 A 
ATOM     10  C   UNL     1       0.168  -0.507   2.481  0.00  0.00    +0.063 A 
ATOM     11 BR   UNL     1      -1.324   0.528   3.010  0.00  0.00    -0.046 Br
ATOM     12 CL   UNL     1       2.105  -3.748   3.787  0.00  0.00    -0.083 Cl
BRANCH   5  14
ATOM     13  C   UNL     1       1.098   2.176   0.964  0.00  0.00    +0.277 C 
ATOM     14  O   UNL     1       0.512   0.921   0.610  0.00  0.00    -0.492 OA
ENDBRANCH   5  14
ENDBRANCH   1   6
BRANCH   2  15
ATOM     15  C   UNL     1       4.846  -0.300  -1.407  0.00  0.00    +0.200 C 
BRANCH  15  16
ATOM     16  N   UNL     1       6.260  -0.623  -1.203  0.00  0.00    -0.308 N 
ATOM     17  C   UNL     1       7.168  -0.297  -2.144  0.00  0.00    +0.196 C 
ATOM     18  O   UNL     1       6.814   0.262  -3.160  0.00  0.00    -0.278 OA
ATOM     19  H   UNL     1       6.543  -1.070  -0.390  0.00  0.00    +0.149 HD
BRANCH  17  20
ATOM     20  C   UNL     1       8.623  -0.629  -1.934  0.00  0.00    +0.011 C 
BRANCH  20  21
ATOM     21  N   UNL     1       9.401  -0.175  -3.094  0.00  0.00    +0.384 N 
ATOM     22  H   UNL     1      10.375  -0.397  -2.953  0.00  0.00    -0.089 HD
ATOM     23  H   UNL     1       9.067  -0.639  -3.925  0.00  0.00    -0.089 HD
ATOM     24  H   UNL     1       9.296   0.823  -3.200  0.00  0.00    -0.089 HD
ENDBRANCH  20  21
ENDBRANCH  17  20
ENDBRANCH  15  16
ENDBRANCH   2  15
TORSDOF 6
