REMARK  Name = ZINC43611708
REMARK  16 active torsions:
REMARK  status: ('A' for Active; 'I' for Inactive)
REMARK    1  A    between atoms: C_1  and  C_2
REMARK    2  A    between atoms: C_2  and  C_3
REMARK    3  A    between atoms: C_3  and  C_4
REMARK    4  A    between atoms: C_3  and  C_5
REMARK    5  A    between atoms: C_3  and  C_6
REMARK    6  A    between atoms: C_9  and  O_17
REMARK    7  A    between atoms: C_10  and  C_12
REMARK    8  A    between atoms: C_12  and  C_13
REMARK    9  A    between atoms: C_12  and  C_14
REMARK   10  A    between atoms: C_12  and  C_15
REMARK   11  A    between atoms: C_15  and  C_16
REMARK   12  A    between atoms: O_17  and  C_18
REMARK   13  A    between atoms: C_18  and  C_19
REMARK   14  A    between atoms: C_19  and  C_21
REMARK   15  A    between atoms: C_19  and  O_38
REMARK   16  A    between atoms: C_21  and  N_22
REMARK                            x       y       z     vdW  Elec       q    Type
REMARK                         _______ _______ _______ _____ _____    ______ ____
ROOT
ATOM      1  C   UNL     1       0.304  -8.310   0.274  0.00  0.00    +0.135 C 
ENDROOT
BRANCH   1   2
ATOM      2  O   UNL     1      -0.429  -8.723   1.429  0.00  0.00    -0.390 OA
ATOM      3  H   UNL     1      -1.372  -8.515   1.391  0.00  0.00    +0.210 HD
ENDBRANCH   1   2
BRANCH   1   4
ATOM      4  C   UNL     1       0.183  -6.794   0.108  0.00  0.00    +0.258 C 
BRANCH   4   5
ATOM      5  O   UNL     1       0.817  -6.143   1.211  0.00  0.00    -0.489 OA
BRANCH   5   9
ATOM      6  C   UNL     1       0.762  -2.018   1.233  0.00  0.00    -0.041 A 
ATOM      7  C   UNL     1       0.168  -2.710   0.195  0.00  0.00    +0.008 A 
ATOM      8  C   UNL     1       0.185  -4.091   0.185  0.00  0.00    +0.046 A 
ATOM      9  C   UNL     1       0.800  -4.784   1.218  0.00  0.00    +0.124 A 
ATOM     10  C   UNL     1       1.396  -4.087   2.259  0.00  0.00    +0.000 A 
ATOM     11  C   UNL     1       1.381  -2.705   2.261  0.00  0.00    +0.012 A 
BRANCH   6  12
ATOM     12  C   UNL     1       0.742  -0.511   1.242  0.00  0.00    -0.010 C 
ATOM     13  C   UNL     1       2.178   0.019   1.231  0.00  0.00    +0.016 C 
ATOM     14  C   UNL     1       0.026  -0.018   2.500  0.00  0.00    +0.016 C 
BRANCH  12  16
ATOM     15  C   UNL     1      -0.019   1.526   0.010  0.00  0.00    +0.005 C 
ATOM     16  C   UNL     1       0.002  -0.004   0.002  0.00  0.00    +0.007 C 
ENDBRANCH  12  16
ENDBRANCH   6  12
BRANCH  10  17
ATOM     17  C   UNL     1       2.064  -4.835   3.383  0.00  0.00    -0.007 C 
ATOM     18  C   UNL     1       2.637  -3.837   4.391  0.00  0.00    +0.016 C 
ATOM     19  C   UNL     1       1.039  -5.732   4.079  0.00  0.00    +0.016 C 
BRANCH  17  20
ATOM     20  C   UNL     1       3.196  -5.697   2.819  0.00  0.00    +0.008 C 
ATOM     21  C   UNL     1       3.875  -6.457   3.960  0.00  0.00    +0.005 C 
ENDBRANCH  17  20
ENDBRANCH  10  17
ENDBRANCH   5   9
ENDBRANCH   4   5
ENDBRANCH   1   4
BRANCH   1  22
ATOM     22  C   UNL     1      -0.263  -9.005  -0.966  0.00  0.00    -0.044 C 
BRANCH  22  23
ATOM     23  N   UNL     1      -0.147 -10.461  -0.807  0.00  0.00    +0.382 N 
ATOM     24  C   UNL     1      -0.805 -11.128  -1.934  0.00  0.00    -0.074 C 
ATOM     25  C   UNL     1      -0.707 -12.641  -1.812  0.00  0.00    -0.007 C 
ATOM     26  C   UNL     1       0.756 -13.081  -1.695  0.00  0.00    +0.011 C 
ATOM     27  C   UNL     1       1.361 -12.347  -0.492  0.00  0.00    +0.020 C 
ATOM     28  C   UNL     1       1.274 -10.836  -0.766  0.00  0.00    -0.069 C 
ATOM     29  C   UNL     1       0.533 -12.647   0.737  0.00  0.00    +0.023 A 
ATOM     30  C   UNL     1       1.165 -12.623   1.941  0.00  0.00    +0.022 A 
ATOM     31  C   UNL     1       0.447 -12.828   3.124  0.00  0.00    +0.007 A 
ATOM     32  C   UNL     1      -0.901 -13.027   3.051  0.00  0.00    +0.070 A 
ATOM     33  C   UNL     1      -1.521 -13.042   1.794  0.00  0.00    +0.251 A 
ATOM     34  O   UNL     1      -2.734 -13.157   1.721  0.00  0.00    -0.268 OA
ATOM     35  N   UNL     1      -0.788 -12.929   0.660  0.00  0.00    -0.312 N 
ATOM     36  C   UNL     1      -1.475 -13.161  -0.608  0.00  0.00    +0.126 C 
ATOM     37  H   UNL     1      -0.593 -10.741   0.054  0.00  0.00    -0.082 HD
ENDBRANCH  22  23
ENDBRANCH   1  22
TORSDOF 10
