REMARK  Name = ZINC67298365
REMARK  3 active torsions:
REMARK  status: ('A' for Active; 'I' for Inactive)
REMARK    1  A    between atoms: C_3  and  N_9
REMARK    2  A    between atoms: C_11  and  C_21
REMARK    3  A    between atoms: C_16  and  O_20
REMARK                            x       y       z     vdW  Elec       q    Type
REMARK                         _______ _______ _______ _____ _____    ______ ____
ROOT
ATOM      1  N   UNL     1       3.578   2.172  -0.185  0.00  0.00    -0.323 N 
ATOM      2  C   UNL     1       3.685   3.224   0.597  0.00  0.00    +0.212 A 
ATOM      3  C   UNL     1       4.977   3.916   0.774  0.00  0.00    +0.097 A 
ATOM      4  C   UNL     1       4.939   5.255   1.137  0.00  0.00    +0.030 A 
ATOM      5  C   UNL     1       3.672   5.857   1.343  0.00  0.00    +0.018 A 
ATOM      6  C   UNL     1       3.566   7.246   1.511  0.00  0.00    +0.015 A 
ATOM      7  C   UNL     1       2.338   7.820   1.667  0.00  0.00    +0.046 A 
ATOM      8  C   UNL     1       1.186   7.036   1.667  0.00  0.00    +0.120 A 
ATOM      9  C   UNL     1       1.272   5.660   1.521  0.00  0.00    +0.092 A 
ATOM     10  C   UNL     1       2.511   5.060   1.370  0.00  0.00    +0.141 A 
ATOM     11  O   UNL     1       2.610   3.715   1.266  0.00  0.00    -0.438 OA
ATOM     12  H   UNL     1       4.371   1.784  -0.588  0.00  0.00    +0.169 HD
ENDROOT
BRANCH   1  15
ATOM     13  C   UNL     1       0.004   1.892  -0.881  0.00  0.00    +0.004 A 
ATOM     14  C   UNL     1       1.241   2.450  -0.633  0.00  0.00    +0.029 A 
ATOM     15  C   UNL     1       2.349   1.624  -0.431  0.00  0.00    +0.079 A 
ATOM     16  C   UNL     1       2.196   0.235  -0.482  0.00  0.00    +0.165 A 
ATOM     17  C   UNL     1       0.951  -0.310  -0.732  0.00  0.00    +0.078 A 
ATOM     18  C   UNL     1      -0.142   0.517  -0.931  0.00  0.00    +0.023 A 
ATOM     19 CL   UNL     1       0.756  -2.034  -0.796  0.00  0.00    -0.081 Cl
ATOM     20  F   UNL     1       3.262  -0.572  -0.289  0.00  0.00    -0.202 F 
ENDBRANCH   1  15
BRANCH   3  21
ATOM     21  C   UNL     1       6.255   3.213   0.576  0.00  0.00    +0.247 C 
ATOM     22  O   UNL     1       6.260   2.044   0.241  0.00  0.00    -0.270 OA
ATOM     23  N   UNL     1       7.419   3.865   0.764  0.00  0.00    -0.325 N 
ATOM     24  H   UNL     1       7.417   4.767   1.122  0.00  0.00    +0.145 HD
ATOM     25  H   UNL     1       8.259   3.433   0.543  0.00  0.00    +0.145 HD
ENDBRANCH   3  21
BRANCH   8  26
ATOM     26  O   UNL     1      -0.029   7.623   1.812  0.00  0.00    -0.507 OA
ATOM     27  H   UNL     1      -0.442   7.883   0.977  0.00  0.00    +0.292 HD
ENDBRANCH   8  26
TORSDOF 3
