REMARK  Name = ZINC63277033
REMARK  8 active torsions:
REMARK  status: ('A' for Active; 'I' for Inactive)
REMARK    1  A    between atoms: C_6  and  S_10
REMARK    2  A    between atoms: S_10  and  C_11
REMARK    3  A    between atoms: C_11  and  C_12
REMARK    4  A    between atoms: N_14  and  C_15
REMARK    5  A    between atoms: C_22  and  S_24
REMARK    6  A    between atoms: S_24  and  C_25
REMARK    7  A    between atoms: C_25  and  C_26
REMARK    8  A    between atoms: N_28  and  C_29
REMARK                            x       y       z     vdW  Elec       q    Type
REMARK                         _______ _______ _______ _____ _____    ______ ____
ROOT
ATOM      1  C   UNL     1       3.159  -2.586  -6.610  0.00  0.00    +0.035 A 
ATOM      2  C   UNL     1       3.858  -3.788  -6.691  0.00  0.00    +0.025 A 
ATOM      3  C   UNL     1       4.125  -4.379  -7.898  0.00  0.00    +0.031 A 
ATOM      4  C   UNL     1       3.696  -3.784  -9.107  0.00  0.00    +0.080 A 
ATOM      5  C   UNL     1       2.989  -2.566  -8.989  0.00  0.00    +0.042 A 
ATOM      6  C   UNL     1       2.718  -1.979  -7.779  0.00  0.00    +0.040 A 
ATOM      7  S   UNL     1       2.640  -2.164 -10.685  0.00  0.00    -0.061 S 
ATOM      8  C   UNL     1       3.428  -3.590 -11.420  0.00  0.00    +0.136 A 
ATOM      9  N   UNL     1       3.877  -4.236 -10.368  0.00  0.00    -0.233 NA
ENDROOT
BRANCH   1  12
ATOM     10  C   UNL     1       2.848  -0.658  -5.248  0.00  0.00    +0.227 C 
ATOM     11  O   UNL     1       3.124   0.043  -6.198  0.00  0.00    -0.275 OA
ATOM     12  N   UNL     1       2.897  -2.000  -5.364  0.00  0.00    -0.285 N 
ATOM     13  H   UNL     1       2.752  -2.561  -4.586  0.00  0.00    +0.155 HD
BRANCH  10  14
ATOM     14  C   UNL     1       2.450  -0.030  -3.937  0.00  0.00    +0.169 C 
BRANCH  14  15
ATOM     15  S   UNL     1       2.479   1.776  -4.099  0.00  0.00    -0.106 S 
BRANCH  15  21
ATOM     16  C   UNL     1       1.536  -0.301   1.254  0.00  0.00    +0.002 A 
ATOM     17  C   UNL     1       0.192  -0.280   0.841  0.00  0.00    +0.002 A 
ATOM     18  C   UNL     1      -0.223   0.396  -0.249  0.00  0.00    +0.027 A 
ATOM     19  C   UNL     1       0.753   1.148  -1.050  0.00  0.00    +0.061 A 
ATOM     20  N   UNL     1       0.643   1.874  -2.125  0.00  0.00    -0.355 N 
ATOM     21  C   UNL     1       1.984   2.372  -2.459  0.00  0.00    +0.236 C 
ATOM     22  N   UNL     1       2.890   1.839  -1.434  0.00  0.00    -0.355 N 
ATOM     23  C   UNL     1       2.175   1.126  -0.613  0.00  0.00    +0.061 A 
ATOM     24  C   UNL     1       2.510   0.354   0.592  0.00  0.00    +0.027 A 
ATOM     25  H   UNL     1      -0.174   2.053  -2.616  0.00  0.00    +0.162 HD
ATOM     26  H   UNL     1       3.847   1.990  -1.379  0.00  0.00    +0.162 HD
ENDBRANCH  15  21
ENDBRANCH  14  15
ENDBRANCH  10  14
ENDBRANCH   1  12
BRANCH   8  27
ATOM     27  S   UNL     1       3.567  -4.019 -13.123  0.00  0.00    -0.089 S 
BRANCH  27  28
ATOM     28  C   UNL     1       4.486  -5.583 -13.108  0.00  0.00    +0.172 C 
BRANCH  28  29
ATOM     29  C   UNL     1       4.676  -6.068 -14.522  0.00  0.00    +0.223 C 
ATOM     30  O   UNL     1       4.235  -5.422 -15.449  0.00  0.00    -0.275 OA
ATOM     31  N   UNL     1       5.336  -7.219 -14.757  0.00  0.00    -0.312 N 
ATOM     32  H   UNL     1       5.689  -7.736 -14.015  0.00  0.00    +0.149 HD
BRANCH  31  33
ATOM     33  C   UNL     1       5.521  -7.690 -16.132  0.00  0.00    +0.073 C 
ATOM     34  C   UNL     1       5.288  -9.177 -16.406  0.00  0.00    +0.024 C 
ATOM     35  C   UNL     1       6.710  -8.613 -16.408  0.00  0.00    +0.024 C 
ENDBRANCH  31  33
ENDBRANCH  28  29
ENDBRANCH  27  28
ENDBRANCH   8  27
TORSDOF 8
