REMARK  Name = ZINC65478225
REMARK  9 active torsions:
REMARK  status: ('A' for Active; 'I' for Inactive)
REMARK    1  A    between atoms: C_1  and  C_2
REMARK    2  A    between atoms: N_5  and  C_8
REMARK    3  A    between atoms: C_8  and  C_9
REMARK    4  A    between atoms: C_8  and  C_10
REMARK    5  A    between atoms: C_10  and  N_11
REMARK    6  A    between atoms: N_14  and  C_15
REMARK    7  A    between atoms: C_15  and  C_16
REMARK    8  A    between atoms: N_18  and  C_19
REMARK    9  A    between atoms: C_19  and  C_20
REMARK                            x       y       z     vdW  Elec       q    Type
REMARK                         _______ _______ _______ _____ _____    ______ ____
ROOT
ATOM      1  N   UNL     1       1.651  -3.736  -2.468  0.00  0.00    -0.301 N 
ATOM      2  C   UNL     1       1.989  -4.060  -3.732  0.00  0.00    +0.300 C 
ATOM      3  O   UNL     1       2.881  -4.860  -3.937  0.00  0.00    -0.253 OA
ATOM      4  N   UNL     1       1.338  -3.496  -4.769  0.00  0.00    -0.291 N 
ATOM      5  H   UNL     1       0.939  -3.098  -2.305  0.00  0.00    +0.150 HD
ATOM      6  H   UNL     1       0.626  -2.857  -4.606  0.00  0.00    +0.151 HD
ENDROOT
BRANCH   1   7
ATOM      7  C   UNL     1       2.358  -4.349  -1.341  0.00  0.00    +0.090 C 
BRANCH   7   8
ATOM      8  C   UNL     1       1.709  -3.904  -0.029  0.00  0.00    -0.054 C 
ATOM      9  C   UNL     1       2.499  -4.475   1.150  0.00  0.00    -0.012 C 
BRANCH   8  14
ATOM     10  C   UNL     1       2.260   1.619   1.282  0.00  0.00    +0.007 C 
ATOM     11  C   UNL     1       2.320   0.091   1.323  0.00  0.00    -0.018 C 
ATOM     12  C   UNL     1       0.899  -0.479   1.276  0.00  0.00    -0.016 C 
ATOM     13  C   UNL     1       0.970  -2.007   1.237  0.00  0.00    -0.078 C 
ATOM     14  N   UNL     1       1.711  -2.437   0.045  0.00  0.00    +0.382 N 
ATOM     15  C   UNL     1       3.095  -1.954   0.119  0.00  0.00    -0.078 C 
ATOM     16  C   UNL     1       3.107  -0.424   0.114  0.00  0.00    -0.016 C 
ATOM     17  H   UNL     1       1.268  -2.060  -0.779  0.00  0.00    -0.081 HD
ENDBRANCH   8  14
ENDBRANCH   7   8
ENDBRANCH   1   7
BRANCH   4  18
ATOM     18  C   UNL     1       1.705  -3.848  -6.143  0.00  0.00    +0.201 C 
BRANCH  18  19
ATOM     19  C   UNL     1       0.834  -3.085  -7.107  0.00  0.00    +0.231 C 
ATOM     20  O   UNL     1      -0.011  -2.323  -6.688  0.00  0.00    -0.274 OA
ATOM     21  N   UNL     1       0.993  -3.250  -8.435  0.00  0.00    -0.305 N 
ATOM     22  H   UNL     1       1.669  -3.860  -8.771  0.00  0.00    +0.149 HD
BRANCH  21  23
ATOM     23  C   UNL     1       0.145  -2.509  -9.372  0.00  0.00    +0.217 C 
BRANCH  23  24
ATOM     24  C   UNL     1       0.529  -2.876 -10.807  0.00  0.00    +0.405 C 
ATOM     25  F   UNL     1       0.348  -4.250 -11.001  0.00  0.00    -0.169 F 
ATOM     26  F   UNL     1      -0.280  -2.168 -11.702  0.00  0.00    -0.169 F 
ATOM     27  F   UNL     1       1.870  -2.546 -11.030  0.00  0.00    -0.169 F 
ENDBRANCH  23  24
ENDBRANCH  21  23
ENDBRANCH  18  19
ENDBRANCH   4  18
TORSDOF 7
