REMARK  Name = ZINC21775566
REMARK  11 active torsions:
REMARK  status: ('A' for Active; 'I' for Inactive)
REMARK    1  A    between atoms: C_1  and  C_2
REMARK    2  A    between atoms: C_2  and  C_3
REMARK    3  A    between atoms: N_5  and  C_6
REMARK    4  A    between atoms: C_9  and  S_12
REMARK    5  A    between atoms: S_12  and  N_15
REMARK    6  A    between atoms: N_15  and  C_16
REMARK    7  A    between atoms: C_16  and  C_17
REMARK    8  A    between atoms: C_17  and  C_19
REMARK    9  A    between atoms: C_17  and  N_30
REMARK   10  A    between atoms: N_28  and  C_29
REMARK   11  A    between atoms: N_33  and  C_36
REMARK                            x       y       z     vdW  Elec       q    Type
REMARK                         _______ _______ _______ _____ _____    ______ ____
ROOT
ATOM      1  C   UNL     1       4.028  -1.973   3.998  0.00  0.00    +0.102 C 
ENDROOT
BRANCH   1   2
ATOM      2  C   UNL     1       3.137  -1.272   3.006  0.00  0.00    -0.029 A 
ATOM      3  C   UNL     1       1.901  -1.804   2.686  0.00  0.00    +0.007 A 
ATOM      4  C   UNL     1       1.090  -1.163   1.776  0.00  0.00    +0.024 A 
ATOM      5  C   UNL     1       1.507   0.024   1.171  0.00  0.00    +0.033 A 
ATOM      6  C   UNL     1       2.742   0.556   1.498  0.00  0.00    -0.026 A 
ATOM      7  C   UNL     1       3.554  -0.097   2.413  0.00  0.00    +0.010 A 
ATOM      8  C   UNL     1       3.244   1.843   0.894  0.00  0.00    +0.038 C 
ATOM      9  C   UNL     1       2.408   2.193  -0.340  0.00  0.00    +0.024 C 
ATOM     10  C   UNL     1       0.928   2.040   0.034  0.00  0.00    +0.105 C 
ATOM     11  N   UNL     1       0.644   0.621   0.253  0.00  0.00    -0.333 N 
ATOM     12  C   UNL     1      -0.759   0.418   0.640  0.00  0.00    +0.129 C 
ENDBRANCH   1   2
BRANCH   1  13
ATOM     13  N   UNL     1       4.477  -3.253   3.434  0.00  0.00    -0.298 NA
ATOM     14  C   UNL     1       4.735  -3.132   1.992  0.00  0.00    +0.066 C 
ATOM     15  C   UNL     1       5.275  -4.462   1.460  0.00  0.00    -0.064 C 
ATOM     16  N   UNL     1       4.299  -5.527   1.729  0.00  0.00    +0.379 N 
ATOM     17  C   UNL     1       4.040  -5.648   3.171  0.00  0.00    -0.064 C 
ATOM     18  C   UNL     1       3.501  -4.319   3.703  0.00  0.00    +0.066 C 
ATOM     19  C   UNL     1       4.747  -6.807   1.165  0.00  0.00    -0.096 C 
ATOM     20  H   UNL     1       3.354  -5.254   1.236  0.00  0.00    -0.082 HD
ENDBRANCH   1  13
BRANCH   1  21
ATOM     21  C   UNL     1       3.249  -2.230   5.290  0.00  0.00    +0.129 C 
BRANCH  21  22
ATOM     22  N   UNL     1       4.114  -2.915   6.254  0.00  0.00    -0.188 NA
ATOM     23  H   UNL     1       4.920  -3.574   5.898  0.00  0.00    +0.148 HD
BRANCH  22  24
ATOM     24  S   UNL     1       3.733  -2.900   7.865  0.00  0.00    +0.058 S 
ATOM     25  O   UNL     1       4.735  -3.661   8.526  0.00  0.00    -0.153 OA
ATOM     26  O   UNL     1       3.456  -1.548   8.204  0.00  0.00    -0.153 OA
BRANCH  24  30
ATOM     27  C   UNL     1      -0.151  -5.178   8.344  0.00  0.00    +0.033 A 
ATOM     28  C   UNL     1       1.062  -5.848   8.426  0.00  0.00    +0.025 A 
ATOM     29  C   UNL     1       2.245  -5.150   8.279  0.00  0.00    +0.030 A 
ATOM     30  C   UNL     1       2.222  -3.786   8.051  0.00  0.00    +0.105 A 
ATOM     31  C   UNL     1       1.015  -3.116   7.975  0.00  0.00    +0.030 A 
ATOM     32  C   UNL     1      -0.172  -3.808   8.115  0.00  0.00    +0.025 A 
BRANCH  27  35
ATOM     33  C   UNL     1      -1.412  -6.946   9.316  0.00  0.00    +0.217 C 
ATOM     34  O   UNL     1      -0.454  -7.238  10.000  0.00  0.00    -0.275 OA
ATOM     35  N   UNL     1      -1.352  -5.882   8.491  0.00  0.00    -0.286 N 
ATOM     36  H   UNL     1      -2.246  -5.567   7.934  0.00  0.00    +0.155 HD
BRANCH  33  38
ATOM     37  C   UNL     1      -2.474  -8.912  10.392  0.00  0.00    +0.013 C 
ATOM     38  C   UNL     1      -2.669  -7.774   9.388  0.00  0.00    +0.093 C 
ENDBRANCH  33  38
ENDBRANCH  27  35
ENDBRANCH  24  30
ENDBRANCH  22  24
ENDBRANCH  21  22
ENDBRANCH   1  21
TORSDOF 8
