REMARK  Name = ZINC66908841
REMARK  9 active torsions:
REMARK  status: ('A' for Active; 'I' for Inactive)
REMARK    1  A    between atoms: C_1  and  N_2
REMARK    2  A    between atoms: N_2  and  C_3
REMARK    3  A    between atoms: N_2  and  C_4
REMARK    4  A    between atoms: C_4  and  C_5
REMARK    5  A    between atoms: C_9  and  C_11
REMARK    6  A    between atoms: C_11  and  N_12
REMARK    7  A    between atoms: N_15  and  C_16
REMARK    8  A    between atoms: C_16  and  C_17
REMARK    9  A    between atoms: C_17  and  O_27
REMARK                            x       y       z     vdW  Elec       q    Type
REMARK                         _______ _______ _______ _____ _____    ______ ____
ROOT
ATOM      1  N   UNL     1       0.197  -4.987   2.708  0.00  0.00    -0.295 N 
ATOM      2  C   UNL     1       0.475  -5.882   3.676  0.00  0.00    +0.300 C 
ATOM      3  O   UNL     1      -0.429  -6.446   4.261  0.00  0.00    -0.253 OA
ATOM      4  N   UNL     1       1.757  -6.154   3.994  0.00  0.00    -0.296 N 
ATOM      5  H   UNL     1       0.918  -4.537   2.241  0.00  0.00    +0.151 HD
ATOM      6  H   UNL     1       2.478  -5.704   3.527  0.00  0.00    +0.150 HD
ENDROOT
BRANCH   1   7
ATOM      7  C   UNL     1      -1.196  -4.692   2.362  0.00  0.00    +0.141 C 
BRANCH   7  12
ATOM      8  C   UNL     1      -1.304  -1.377   0.559  0.00  0.00    -0.064 A 
ATOM      9  C   UNL     1      -1.303  -1.782  -0.763  0.00  0.00    +0.002 A 
ATOM     10  C   UNL     1      -1.267  -3.128  -1.073  0.00  0.00    +0.001 A 
ATOM     11  C   UNL     1      -1.233  -4.070  -0.062  0.00  0.00    +0.005 A 
ATOM     12  C   UNL     1      -1.233  -3.665   1.260  0.00  0.00    -0.030 A 
ATOM     13  C   UNL     1      -1.264  -2.318   1.570  0.00  0.00    +0.007 A 
BRANCH   8  14
ATOM     14  C   UNL     1      -1.342   0.091   0.897  0.00  0.00    -0.044 C 
BRANCH  14  16
ATOM     15  C   UNL     1      -0.008   2.062   1.201  0.00  0.00    -0.096 C 
ATOM     16  N   UNL     1       0.030   0.609   0.990  0.00  0.00    +0.379 N 
ATOM     17  C   UNL     1       0.719  -0.032   2.118  0.00  0.00    -0.096 C 
ATOM     18  H   UNL     1       0.524   0.406   0.134  0.00  0.00    -0.082 HD
ENDBRANCH  14  16
ENDBRANCH   8  14
ENDBRANCH   7  12
ENDBRANCH   1   7
BRANCH   4  19
ATOM     19  C   UNL     1       2.060  -7.128   5.046  0.00  0.00    +0.145 C 
BRANCH  19  20
ATOM     20  C   UNL     1       3.572  -7.347   5.117  0.00  0.00    +0.107 C 
ATOM     21  C   UNL     1       4.081  -7.800   3.751  0.00  0.00    +0.041 C 
ATOM     22  C   UNL     1       5.548  -8.222   3.896  0.00  0.00    +0.008 C 
ATOM     23  C   UNL     1       5.598  -9.518   4.702  0.00  0.00    +0.035 C 
ATOM     24  C   UNL     1       4.808  -9.380   5.977  0.00  0.00    -0.041 A 
ATOM     25  C   UNL     1       3.875  -8.385   6.166  0.00  0.00    -0.011 A 
ATOM     26  C   UNL     1       3.175  -8.317   7.364  0.00  0.00    +0.007 A 
ATOM     27  C   UNL     1       3.409  -9.236   8.366  0.00  0.00    +0.000 A 
ATOM     28  C   UNL     1       4.349 -10.232   8.178  0.00  0.00    +0.000 A 
ATOM     29  C   UNL     1       5.044 -10.302   6.988  0.00  0.00    +0.004 A 
BRANCH  20  30
ATOM     30  O   UNL     1       4.210  -6.118   5.473  0.00  0.00    -0.382 OA
ATOM     31  H   UNL     1       3.930  -5.763   6.328  0.00  0.00    +0.211 HD
ENDBRANCH  20  30
ENDBRANCH  19  20
ENDBRANCH   4  19
TORSDOF 7
