REMARK  Name = ZINC02657040
REMARK  3 active torsions:
REMARK  status: ('A' for Active; 'I' for Inactive)
REMARK    1  A    between atoms: C_5  and  C_13
REMARK    2  A    between atoms: C_13  and  O_14
REMARK    3  A    between atoms: O_14  and  C_15
REMARK                            x       y       z     vdW  Elec       q    Type
REMARK                         _______ _______ _______ _____ _____    ______ ____
ROOT
ATOM      1  O   UNL     1      -4.965   4.593   1.293  0.00  0.00    -0.470 OA
ENDROOT
BRANCH   1   2
ATOM      2  C   UNL     1      -6.081   5.340   1.469  0.00  0.00    +0.227 A 
ATOM      3  C   UNL     1      -6.264   6.091   2.660  0.00  0.00    +0.073 A 
ATOM      4  C   UNL     1      -5.378   6.200   3.821  0.00  0.00    -0.023 A 
ATOM      5  C   UNL     1      -5.791   6.989   4.833  0.00  0.00    -0.004 A 
ATOM      6  S   UNL     1      -7.361   7.628   4.313  0.00  0.00    -0.073 S 
ATOM      7  C   UNL     1      -7.462   6.831   2.731  0.00  0.00    +0.116 A 
ATOM      8  N   UNL     1      -8.342   6.815   1.749  0.00  0.00    -0.228 NA
ATOM      9  C   UNL     1      -8.115   6.097   0.667  0.00  0.00    +0.226 A 
ATOM     10  N   UNL     1      -7.011   5.384   0.531  0.00  0.00    -0.201 NA
ATOM     11  C   UNL     1      -5.074   7.265   6.120  0.00  0.00    +0.043 C 
ATOM     12  C   UNL     1      -3.960   6.221   6.287  0.00  0.00    +0.005 C 
ATOM     13  C   UNL     1      -3.178   6.124   4.974  0.00  0.00    +0.005 C 
ATOM     14  C   UNL     1      -4.044   5.463   3.902  0.00  0.00    +0.037 C 
ENDBRANCH   1   2
BRANCH   1  15
ATOM     15  C   UNL     1      -4.856   3.867   0.068  0.00  0.00    +0.286 C 
BRANCH  15  20
ATOM     16  C   UNL     1       1.147   3.163   0.008  0.00  0.00    +0.020 A 
ATOM     17  C   UNL     1      -0.041   3.830   0.022  0.00  0.00    +0.048 A 
ATOM     18  C   UNL     1      -1.244   3.099   0.030  0.00  0.00    +0.141 A 
ATOM     19  N   UNL     1      -2.406   3.750   0.044  0.00  0.00    -0.231 NA
ATOM     20  C   UNL     1      -3.559   3.099   0.051  0.00  0.00    +0.086 A 
ATOM     21  C   UNL     1      -3.574   1.718   0.044  0.00  0.00    +0.097 A 
ATOM     22  C   UNL     1      -2.357   1.028   0.029  0.00  0.00    +0.259 A 
ATOM     23  O   UNL     1      -2.336  -0.193   0.022  0.00  0.00    -0.267 OA
ATOM     24  N   UNL     1      -1.206   1.733   0.017  0.00  0.00    -0.267 N 
ATOM     25  C   UNL     1      -0.013   1.076   0.008  0.00  0.00    +0.111 A 
ATOM     26  C   UNL     1       1.154   1.761   0.001  0.00  0.00    +0.035 A 
ATOM     27 BR   UNL     1       2.797   0.825  -0.019  0.00  0.00    -0.049 Br
ENDBRANCH  15  20
ENDBRANCH   1  15
TORSDOF 3
