REMARK  Name = ZINC00845083
REMARK  11 active torsions:
REMARK  status: ('A' for Active; 'I' for Inactive)
REMARK    1  A    between atoms: C_1  and  C_2
REMARK    2  A    between atoms: C_2  and  C_3
REMARK    3  A    between atoms: C_2  and  C_4
REMARK    4  A    between atoms: C_2  and  C_5
REMARK    5  A    between atoms: C_12  and  N_18
REMARK    6  A    between atoms: C_13  and  C_14
REMARK    7  A    between atoms: C_14  and  O_16
REMARK    8  A    between atoms: O_16  and  C_17
REMARK    9  A    between atoms: C_19  and  C_21
REMARK   10  A    between atoms: C_25  and  C_34
REMARK   11  A    between atoms: C_27  and  C_30
REMARK                            x       y       z     vdW  Elec       q    Type
REMARK                         _______ _______ _______ _____ _____    ______ ____
ROOT
ATOM      1  N   UNL     1      -0.011   0.966   0.007  0.00  0.00    -0.274 N 
ATOM      2  C   UNL     1      -1.187   1.624   0.017  0.00  0.00    +0.269 C 
ATOM      3  O   UNL     1      -1.204   2.839   0.023  0.00  0.00    -0.268 OA
ATOM      4  H   UNL     1       0.002  -0.004   0.002  0.00  0.00    +0.156 HD
ENDROOT
BRANCH   1  11
ATOM      5  C   UNL     1       5.484   4.204  -0.408  0.00  0.00    -0.000 C 
ATOM      6  C   UNL     1       5.863   2.972   0.418  0.00  0.00    +0.009 C 
ATOM      7  C   UNL     1       5.037   1.767  -0.036  0.00  0.00    +0.037 C 
ATOM      8  C   UNL     1       3.562   2.148  -0.020  0.00  0.00    -0.021 A 
ATOM      9  C   UNL     1       3.179   3.443  -0.009  0.00  0.00    -0.004 A 
ATOM     10  S   UNL     1       1.409   3.392   0.007  0.00  0.00    -0.077 S 
ATOM     11  C   UNL     1       1.179   1.675  -0.000  0.00  0.00    +0.087 A 
ATOM     12  C   UNL     1       2.477   1.181  -0.010  0.00  0.00    +0.091 A 
ATOM     13  C   UNL     1       4.068   4.649  -0.012  0.00  0.00    +0.046 C 
BRANCH   5  15
ATOM     14  C   UNL     1       7.886   4.884  -0.504  0.00  0.00    +0.011 C 
ATOM     15  C   UNL     1       6.474   5.336  -0.126  0.00  0.00    -0.035 C 
ATOM     16  C   UNL     1       6.093   6.565  -0.953  0.00  0.00    +0.011 C 
ATOM     17  C   UNL     1       6.433   5.689   1.362  0.00  0.00    +0.011 C 
ENDBRANCH   5  15
BRANCH  12  18
ATOM     18  C   UNL     1       2.743  -0.259  -0.013  0.00  0.00    +0.342 C 
ATOM     19  O   UNL     1       2.846  -0.856  -1.067  0.00  0.00    -0.245 OA
BRANCH  18  20
ATOM     20  O   UNL     1       2.873  -0.923   1.154  0.00  0.00    -0.464 OA
ATOM     21  C   UNL     1       3.135  -2.349   1.075  0.00  0.00    +0.280 C 
ENDBRANCH  18  20
ENDBRANCH  12  18
ENDBRANCH   1  11
BRANCH   2  22
ATOM     22  C   UNL     1      -2.457   0.867   0.018  0.00  0.00    +0.150 A 
ATOM     23  C   UNL     1      -3.740   1.426   0.028  0.00  0.00    +0.083 A 
ATOM     24  C   UNL     1      -4.652   0.381   0.026  0.00  0.00    +0.158 A 
ATOM     25  N   UNL     1      -5.991   0.355   0.032  0.00  0.00    -0.225 NA
ATOM     26  C   UNL     1      -6.645  -0.795   0.029  0.00  0.00    +0.110 A 
ATOM     27  C   UNL     1      -5.929  -2.017   0.019  0.00  0.00    +0.064 A 
ATOM     28  C   UNL     1      -4.579  -1.993   0.013  0.00  0.00    +0.149 A 
ATOM     29  N   UNL     1      -3.930  -0.787   0.016  0.00  0.00    -0.209 N 
ATOM     30  N   UNL     1      -2.571  -0.451   0.006  0.00  0.00    -0.160 NA
BRANCH  26  31
ATOM     31  C   UNL     1      -8.118  -0.805   0.036  0.00  0.00    +0.153 A 
ATOM     32  C   UNL     1      -8.926   0.292   0.051  0.00  0.00    +0.051 A 
ATOM     33  C   UNL     1     -10.251  -0.180   0.049  0.00  0.00    +0.042 A 
ATOM     34  C   UNL     1     -10.191  -1.527   0.041  0.00  0.00    +0.196 A 
ATOM     35  O   UNL     1      -8.902  -1.901   0.033  0.00  0.00    -0.461 OA
ENDBRANCH  26  31
BRANCH  28  36
ATOM     36  C   UNL     1      -3.794  -3.279   0.003  0.00  0.00    +0.434 C 
ATOM     37  F   UNL     1      -3.546  -3.684   1.319  0.00  0.00    -0.164 F 
ATOM     38  F   UNL     1      -4.529  -4.269  -0.659  0.00  0.00    -0.164 F 
ATOM     39  F   UNL     1      -2.579  -3.079  -0.661  0.00  0.00    -0.164 F 
ENDBRANCH  28  36
ENDBRANCH   2  22
TORSDOF 7
