REMARK  Name = ZINC59187789
REMARK  11 active torsions:
REMARK  status: ('A' for Active; 'I' for Inactive)
REMARK    1  A    between atoms: C_1  and  C_2
REMARK    2  A    between atoms: C_7  and  C_8
REMARK    3  A    between atoms: C_8  and  N_9
REMARK    4  A    between atoms: N_9  and  C_10
REMARK    5  A    between atoms: N_9  and  C_20
REMARK    6  A    between atoms: C_12  and  C_18
REMARK    7  A    between atoms: C_12  and  C_19
REMARK    8  A    between atoms: C_14  and  C_16
REMARK    9  A    between atoms: C_14  and  C_17
REMARK   10  A    between atoms: C_20  and  N_22
REMARK   11  A    between atoms: N_22  and  C_23
REMARK                            x       y       z     vdW  Elec       q    Type
REMARK                         _______ _______ _______ _____ _____    ______ ____
ROOT
ATOM      1  N   UNL     1      -1.644   0.004   2.734  0.00  0.00    -0.305 N 
ENDROOT
BRANCH   1   2
ATOM      2  C   UNL     1      -2.481  -0.990   3.417  0.00  0.00    +0.073 C 
ATOM      3  C   UNL     1      -2.849  -0.468   4.807  0.00  0.00    +0.009 C 
ATOM      4  C   UNL     1      -3.731  -1.487   5.526  0.00  0.00    -0.072 C 
ATOM      5  N   UNL     1      -4.900  -1.853   4.740  0.00  0.00    +0.386 N 
ATOM      6  C   UNL     1      -4.696  -2.174   3.337  0.00  0.00    -0.072 C 
ATOM      7  C   UNL     1      -3.771  -1.194   2.623  0.00  0.00    +0.009 C 
ATOM      8  C   UNL     1      -4.184  -3.604   3.151  0.00  0.00    -0.010 C 
ATOM      9  C   UNL     1      -6.075  -2.094   2.638  0.00  0.00    -0.010 C 
ATOM     10  C   UNL     1      -4.234  -0.821   6.828  0.00  0.00    -0.010 C 
ATOM     11  C   UNL     1      -2.905  -2.708   5.932  0.00  0.00    -0.010 C 
ATOM     12  H   UNL     1      -5.353  -2.651   5.191  0.00  0.00    -0.084 HD
ATOM     13  H   UNL     1      -5.579  -1.089   4.801  0.00  0.00    -0.084 HD
ENDBRANCH   1   2
BRANCH   1  14
ATOM     14  C   UNL     1      -2.131   1.235   2.481  0.00  0.00    +0.138 C 
ATOM     15  S   UNL     1      -3.677   1.681   3.065  0.00  0.00    -0.018 S 
BRANCH  14  16
ATOM     16  N   UNL     1      -1.400   2.115   1.768  0.00  0.00    -0.296 N 
ATOM     17  H   UNL     1      -1.653   2.329   0.856  0.00  0.00    +0.154 HD
BRANCH  16  18
ATOM     18  C   UNL     1      -0.277   2.721   2.342  0.00  0.00    +0.053 A 
ATOM     19  C   UNL     1       0.130   2.360   3.620  0.00  0.00    +0.025 A 
ATOM     20  C   UNL     1       1.239   2.959   4.186  0.00  0.00    +0.003 A 
ATOM     21  C   UNL     1       1.944   3.917   3.481  0.00  0.00    +0.021 A 
ATOM     22  C   UNL     1       1.542   4.280   2.208  0.00  0.00    +0.061 A 
ATOM     23  C   UNL     1       0.436   3.679   1.634  0.00  0.00    +0.080 A 
ATOM     24 CL   UNL     1      -0.064   4.128   0.033  0.00  0.00    -0.080 Cl
ATOM     25 CL   UNL     1       2.431   5.483   1.327  0.00  0.00    -0.082 Cl
ENDBRANCH  16  18
ENDBRANCH  14  16
ENDBRANCH   1  14
BRANCH   1  26
ATOM     26  C   UNL     1      -0.279  -0.342   2.327  0.00  0.00    +0.142 C 
BRANCH  26  33
ATOM     27  C   UNL     1       2.149  -1.342   1.122  0.00  0.00    +0.044 C 
ATOM     28  C   UNL     1       0.877  -1.279   0.315  0.00  0.00    -0.046 A 
ATOM     29  C   UNL     1       0.872  -1.705  -1.000  0.00  0.00    +0.003 A 
ATOM     30  C   UNL     1      -0.294  -1.648  -1.740  0.00  0.00    +0.000 A 
ATOM     31  C   UNL     1      -1.455  -1.165  -1.165  0.00  0.00    +0.000 A 
ATOM     32  C   UNL     1      -1.449  -0.739   0.150  0.00  0.00    +0.005 A 
ATOM     33  C   UNL     1      -0.284  -0.801   0.892  0.00  0.00    -0.027 A 
ENDBRANCH  26  33
ENDBRANCH   1  26
TORSDOF 6
