REMARK  Name = ZINC64074692
REMARK  8 active torsions:
REMARK  status: ('A' for Active; 'I' for Inactive)
REMARK    1  A    between atoms: C_1  and  C_2
REMARK    2  A    between atoms: C_6  and  C_20
REMARK    3  A    between atoms: C_8  and  C_17
REMARK    4  A    between atoms: N_10  and  C_11
REMARK    5  A    between atoms: C_11  and  C_12
REMARK    6  A    between atoms: N_22  and  C_23
REMARK    7  A    between atoms: C_23  and  C_24
REMARK    8  A    between atoms: C_24  and  C_25
REMARK                            x       y       z     vdW  Elec       q    Type
REMARK                         _______ _______ _______ _____ _____    ______ ____
ROOT
ATOM      1  C   UNL     1      -0.923  -4.181  -0.792  0.00  0.00    +0.225 C 
ATOM      2  O   UNL     1      -1.951  -4.259  -0.152  0.00  0.00    -0.275 OA
ATOM      3  N   UNL     1      -0.642  -5.105  -1.732  0.00  0.00    -0.315 N 
ATOM      4  H   UNL     1       0.180  -5.042  -2.243  0.00  0.00    +0.149 HD
ENDROOT
BRANCH   1  10
ATOM      5  C   UNL     1       0.935   1.216  -0.865  0.00  0.00    +0.060 C 
ATOM      6  C   UNL     1       0.612  -0.254  -0.788  0.00  0.00    +0.007 C 
ATOM      7  C   UNL     1       0.691  -1.027  -1.898  0.00  0.00    +0.065 C 
ATOM      8  C   UNL     1       0.412  -2.397  -1.842  0.00  0.00    +0.171 C 
ATOM      9  O   UNL     1       0.470  -3.066  -2.855  0.00  0.00    -0.292 OA
ATOM     10  C   UNL     1       0.040  -3.050  -0.535  0.00  0.00    +0.166 C 
ATOM     11  C   UNL     1      -0.622  -2.006   0.373  0.00  0.00    +0.096 C 
ATOM     12  N   UNL     1       0.243  -0.814   0.402  0.00  0.00    -0.324 N 
BRANCH  11  13
ATOM     13  C   UNL     1      -2.000  -1.637  -0.182  0.00  0.00    +0.011 C 
ATOM     14  C   UNL     1      -2.225  -0.185  -0.606  0.00  0.00    +0.006 C 
ATOM     15  C   UNL     1      -2.881  -0.720   0.668  0.00  0.00    +0.006 C 
ENDBRANCH  11  13
BRANCH  12  16
ATOM     16  C   UNL     1       0.694  -0.241   1.673  0.00  0.00    +0.147 C 
BRANCH  16  17
ATOM     17  C   UNL     1      -0.376   0.669   2.221  0.00  0.00    +0.007 A 
ATOM     18  C   UNL     1      -1.304   0.416   3.176  0.00  0.00    +0.013 A 
ATOM     19  C   UNL     1      -2.195   1.413   3.525  0.00  0.00    +0.008 A 
ATOM     20  C   UNL     1      -2.115   2.614   2.901  0.00  0.00    +0.045 A 
ATOM     21  S   UNL     1      -0.744   2.361   1.787  0.00  0.00    -0.100 S 
ENDBRANCH  16  17
ENDBRANCH  12  16
ENDBRANCH   1  10
BRANCH   3  22
ATOM     22  C   UNL     1      -1.578  -6.204  -1.981  0.00  0.00    +0.108 C 
BRANCH  22  23
ATOM     23  C   UNL     1      -1.025  -7.103  -3.088  0.00  0.00    +0.065 C 
BRANCH  23  24
ATOM     24  C   UNL     1      -2.002  -8.251  -3.349  0.00  0.00    +0.175 C 
ATOM     25  N   UNL     1      -2.144  -9.076  -2.143  0.00  0.00    -0.363 N 
ATOM     26  C   UNL     1      -1.751 -10.280  -2.444  0.00  0.00    +0.060 A 
ATOM     27  C   UNL     1      -1.661 -11.525  -1.668  0.00  0.00    +0.029 A 
ATOM     28  C   UNL     1      -1.204 -12.646  -2.260  0.00  0.00    +0.022 A 
ATOM     29  C   UNL     1      -0.803 -12.682  -3.609  0.00  0.00    +0.043 A 
ATOM     30  C   UNL     1      -0.846 -11.596  -4.410  0.00  0.00    +0.047 A 
ATOM     31  C   UNL     1      -1.327 -10.318  -3.871  0.00  0.00    +0.062 A 
ATOM     32  N   UNL     1      -1.474  -9.134  -4.397  0.00  0.00    -0.363 N 
ATOM     33 CL   UNL     1      -0.231 -14.182  -4.269  0.00  0.00    -0.083 Cl
ATOM     34  H   UNL     1      -2.470  -8.779  -1.279  0.00  0.00    +0.162 HD
ATOM     35  H   UNL     1      -1.273  -8.883  -5.312  0.00  0.00    +0.162 HD
ENDBRANCH  23  24
ENDBRANCH  22  23
ENDBRANCH   3  22
TORSDOF 7
