REMARK  Name = ZINC09216213
REMARK  9 active torsions:
REMARK  status: ('A' for Active; 'I' for Inactive)
REMARK    1  A    between atoms: C_1  and  O_2
REMARK    2  A    between atoms: O_2  and  C_3
REMARK    3  A    between atoms: C_3  and  C_4
REMARK    4  A    between atoms: C_4  and  C_5
REMARK    5  A    between atoms: C_5  and  N_6
REMARK    6  A    between atoms: C_11  and  C_28
REMARK    7  A    between atoms: C_28  and  C_29
REMARK    8  A    between atoms: C_32  and  O_36
REMARK    9  A    between atoms: C_33  and  O_35
REMARK                            x       y       z     vdW  Elec       q    Type
REMARK                         _______ _______ _______ _____ _____    ______ ____
ROOT
ATOM      1  N   UNL     1       4.915   4.881  -2.293  0.00  0.00    -0.242 N 
ATOM      2  C   UNL     1       5.139   5.918  -1.478  0.00  0.00    +0.224 C 
ATOM      3  O   UNL     1       6.189   6.517  -1.380  0.00  0.00    -0.275 OA
ATOM      4  C   UNL     1       3.881   6.225  -0.698  0.00  0.00    +0.073 C 
ATOM      5  C   UNL     1       4.104   5.863   0.786  0.00  0.00    -0.053 C 
ATOM      6  C   UNL     1       2.567   4.288   0.001  0.00  0.00    +0.050 C 
ATOM      7  C   UNL     1       2.870   5.166  -1.218  0.00  0.00    +0.088 C 
ATOM      8  C   UNL     1       3.676   4.380  -2.228  0.00  0.00    +0.225 C 
ATOM      9  O   UNL     1       3.264   3.443  -2.876  0.00  0.00    -0.275 OA
ATOM     10  C   UNL     1       1.135   3.834   0.013  0.00  0.00    -0.026 A 
ATOM     11  C   UNL     1      -0.070   4.500   0.028  0.00  0.00    +0.004 A 
ATOM     12  C   UNL     1      -1.256   3.786   0.035  0.00  0.00    +0.002 A 
ATOM     13  C   UNL     1      -1.227   2.403   0.021  0.00  0.00    +0.022 A 
ATOM     14  C   UNL     1      -0.021   1.732   0.012  0.00  0.00    +0.062 A 
ATOM     15  C   UNL     1       1.177   2.443   0.004  0.00  0.00    +0.054 A 
ATOM     16  N   UNL     1       2.502   2.000  -0.012  0.00  0.00    -0.285 N 
ATOM     17  C   UNL     1       3.380   3.022  -0.016  0.00  0.00    +0.211 C 
ATOM     18  O   UNL     1       4.589   2.938  -0.032  0.00  0.00    -0.277 OA
ATOM     19 CL   UNL     1       0.002  -0.004   0.002  0.00  0.00    -0.082 Cl
ATOM     20  H   UNL     1       2.760   1.065  -0.020  0.00  0.00    +0.155 HD
ATOM     21  N   UNL     1       2.901   5.111   1.151  0.00  0.00    +0.394 N 
ATOM     22  H   UNL     1       2.130   5.755   1.362  0.00  0.00    -0.083 HD
ATOM     23  H   UNL     1       3.087   4.519   1.969  0.00  0.00    -0.083 HD
ENDROOT
BRANCH   1  24
ATOM     24  C   UNL     1       5.943   4.337  -3.184  0.00  0.00    +0.118 C 
BRANCH  24  25
ATOM     25  C   UNL     1       5.880   5.055  -4.534  0.00  0.00    +0.047 C 
BRANCH  25  26
ATOM     26  C   UNL     1       6.953   4.487  -5.465  0.00  0.00    +0.161 C 
BRANCH  26  28
ATOM     27  C   UNL     1       7.860   4.700  -7.673  0.00  0.00    +0.193 C 
ATOM     28  O   UNL     1       6.894   5.158  -6.725  0.00  0.00    -0.383 OA
ENDBRANCH  26  28
ENDBRANCH  25  26
ENDBRANCH  24  25
ENDBRANCH   1  24
BRANCH   5  29
ATOM     29  C   UNL     1       4.248   7.133   1.628  0.00  0.00    +0.020 C 
BRANCH  29  30
ATOM     30  C   UNL     1       4.587   6.758   3.048  0.00  0.00    -0.045 A 
ATOM     31  C   UNL     1       3.574   6.548   3.966  0.00  0.00    +0.007 A 
ATOM     32  C   UNL     1       3.879   6.199   5.268  0.00  0.00    +0.049 A 
ATOM     33  C   UNL     1       5.202   6.070   5.659  0.00  0.00    +0.158 A 
ATOM     34  C   UNL     1       6.221   6.286   4.737  0.00  0.00    +0.158 A 
ATOM     35  C   UNL     1       5.909   6.630   3.431  0.00  0.00    +0.052 A 
BRANCH  34  36
ATOM     36  O   UNL     1       7.521   6.161   5.115  0.00  0.00    -0.503 OA
ATOM     37  H   UNL     1       7.915   6.980   5.446  0.00  0.00    +0.292 HD
ENDBRANCH  34  36
BRANCH  33  38
ATOM     38  O   UNL     1       5.504   5.731   6.941  0.00  0.00    -0.503 OA
ATOM     39  H   UNL     1       5.610   6.489   7.533  0.00  0.00    +0.292 HD
ENDBRANCH  33  38
ENDBRANCH  29  30
ENDBRANCH   5  29
TORSDOF 8
