REMARK  Name = ZINC67188402
REMARK  13 active torsions:
REMARK  status: ('A' for Active; 'I' for Inactive)
REMARK    1  A    between atoms: C_1  and  C_2
REMARK    2  A    between atoms: C_2  and  C_3
REMARK    3  A    between atoms: C_3  and  C_4
REMARK    4  A    between atoms: C_4  and  N_5
REMARK    5  A    between atoms: C_6  and  C_8
REMARK    6  A    between atoms: C_11  and  C_14
REMARK    7  A    between atoms: C_14  and  N_15
REMARK    8  A    between atoms: N_15  and  C_16
REMARK    9  A    between atoms: C_16  and  C_17
REMARK   10  A    between atoms: C_22  and  O_23
REMARK   11  A    between atoms: O_23  and  C_24
REMARK   12  A    between atoms: C_24  and  C_25
REMARK   13  A    between atoms: N_27  and  C_28
REMARK                            x       y       z     vdW  Elec       q    Type
REMARK                         _______ _______ _______ _____ _____    ______ ____
ROOT
ATOM      1  N   UNL     1       5.692  -5.829  -7.146  0.00  0.00    +0.384 N 
ATOM      2  H   UNL     1       6.076  -4.939  -6.868  0.00  0.00    -0.085 HD
ATOM      3  H   UNL     1       5.820  -6.498  -6.402  0.00  0.00    -0.085 HD
ENDROOT
BRANCH   1   4
ATOM      4  C   UNL     1       4.258  -5.678  -7.427  0.00  0.00    -0.046 C 
BRANCH   4   8
ATOM      5  C   UNL     1       2.256  -4.299  -3.909  0.00  0.00    +0.037 A 
ATOM      6  C   UNL     1       2.771  -3.382  -4.827  0.00  0.00    +0.013 A 
ATOM      7  C   UNL     1       3.416  -3.834  -5.959  0.00  0.00    +0.002 A 
ATOM      8  C   UNL     1       3.552  -5.192  -6.187  0.00  0.00    -0.064 A 
ATOM      9  C   UNL     1       3.043  -6.106  -5.281  0.00  0.00    +0.002 A 
ATOM     10  C   UNL     1       2.401  -5.667  -4.141  0.00  0.00    +0.013 A 
BRANCH   5  12
ATOM     11  N   UNL     1       1.425  -2.500  -2.470  0.00  0.00    -0.311 N 
ATOM     12  C   UNL     1       1.564  -3.822  -2.692  0.00  0.00    +0.244 C 
ATOM     13  O   UNL     1       1.120  -4.622  -1.892  0.00  0.00    -0.270 OA
ATOM     14  H   UNL     1       1.779  -1.861  -3.109  0.00  0.00    +0.149 HD
BRANCH  11  15
ATOM     15  C   UNL     1       0.739  -2.027  -1.265  0.00  0.00    +0.104 C 
BRANCH  15  16
ATOM     16  C   UNL     1       0.718  -0.497  -1.257  0.00  0.00    +0.018 C 
BRANCH  16  18
ATOM     17  C   UNL     1      -0.019   1.526   0.010  0.00  0.00    +0.004 C 
ATOM     18  C   UNL     1       0.002  -0.004   0.002  0.00  0.00    -0.002 C 
ENDBRANCH  16  18
ENDBRANCH  15  16
ENDBRANCH  11  15
ENDBRANCH   5  12
ENDBRANCH   4   8
ENDBRANCH   1   4
BRANCH   1  19
ATOM     19  C   UNL     1       6.379  -6.303  -8.355  0.00  0.00    -0.043 C 
BRANCH  19  20
ATOM     20  C   UNL     1       7.851  -6.459  -8.068  0.00  0.00    -0.023 A 
ATOM     21  C   UNL     1       8.739  -5.476  -8.459  0.00  0.00    +0.005 A 
ATOM     22  C   UNL     1      10.089  -5.618  -8.196  0.00  0.00    +0.000 A 
ATOM     23  C   UNL     1      10.553  -6.744  -7.541  0.00  0.00    +0.004 A 
ATOM     24  C   UNL     1       9.669  -7.729  -7.147  0.00  0.00    +0.046 A 
ATOM     25  C   UNL     1       8.313  -7.586  -7.405  0.00  0.00    +0.123 A 
BRANCH  25  26
ATOM     26  O   UNL     1       7.440  -8.551  -7.014  0.00  0.00    -0.483 OA
BRANCH  26  27
ATOM     27  C   UNL     1       7.987  -9.684  -6.336  0.00  0.00    +0.324 C 
BRANCH  27  28
ATOM     28  C   UNL     1       6.878 -10.642  -5.982  0.00  0.00    +0.250 C 
ATOM     29  O   UNL     1       5.732 -10.379  -6.280  0.00  0.00    -0.272 OA
ATOM     30  N   UNL     1       7.160 -11.789  -5.334  0.00  0.00    -0.316 N 
ATOM     31  C   UNL     1       6.082 -12.719  -4.989  0.00  0.00    +0.128 C 
ATOM     32  H   UNL     1       8.076 -11.999  -5.095  0.00  0.00    +0.148 HD
ENDBRANCH  27  28
ENDBRANCH  26  27
ENDBRANCH  25  26
ENDBRANCH  19  20
ENDBRANCH   1  19
TORSDOF 11
