REMARK  Name = ZINC63686725
REMARK  6 active torsions:
REMARK  status: ('A' for Active; 'I' for Inactive)
REMARK    1  A    between atoms: C_7  and  C_10
REMARK    2  A    between atoms: C_10  and  C_11
REMARK    3  A    between atoms: C_11  and  N_12
REMARK    4  A    between atoms: C_13  and  C_15
REMARK    5  A    between atoms: C_18  and  N_22
REMARK    6  A    between atoms: C_23  and  C_25
REMARK                            x       y       z     vdW  Elec       q    Type
REMARK                         _______ _______ _______ _____ _____    ______ ____
ROOT
ATOM      1  C   UNL     1      -1.694  -6.485  -2.622  0.00  0.00    +0.086 C 
ATOM      2  C   UNL     1      -2.126  -7.005  -3.789  0.00  0.00    +0.021 C 
ATOM      3  N   UNL     1      -1.656  -6.565  -4.975  0.00  0.00    -0.320 N 
ATOM      4  C   UNL     1      -1.752  -7.498  -6.120  0.00  0.00    +0.219 C 
ATOM      5  S   UNL     1      -3.248  -8.463  -5.638  0.00  0.00    -0.114 S 
ATOM      6  C   UNL     1      -3.161  -8.117  -3.830  0.00  0.00    +0.123 C 
ATOM      7  H   UNL     1      -1.274  -5.678  -5.073  0.00  0.00    +0.148 HD
ENDROOT
BRANCH   1   9
ATOM      8  N   UNL     1      -0.274  -4.946  -1.464  0.00  0.00    -0.311 N 
ATOM      9  C   UNL     1      -0.629  -5.555  -2.613  0.00  0.00    +0.238 C 
ATOM     10  O   UNL     1      -0.031  -5.303  -3.644  0.00  0.00    -0.271 OA
ATOM     11  H   UNL     1      -0.750  -5.147  -0.642  0.00  0.00    +0.149 HD
BRANCH   8  12
ATOM     12  C   UNL     1       0.829  -3.983  -1.455  0.00  0.00    +0.109 C 
BRANCH  12  13
ATOM     13  C   UNL     1       1.024  -3.443  -0.036  0.00  0.00    +0.052 C 
BRANCH  13  20
ATOM     14  C   UNL     1       1.147   1.131  -0.380  0.00  0.00    +0.001 A 
ATOM     15  C   UNL     1       2.443   1.664  -0.324  0.00  0.00    +0.002 A 
ATOM     16  C   UNL     1       3.542   0.894  -0.182  0.00  0.00    +0.026 A 
ATOM     17  C   UNL     1       3.422  -0.520  -0.082  0.00  0.00    +0.043 A 
ATOM     18  N   UNL     1       4.320  -1.464   0.058  0.00  0.00    -0.380 N 
ATOM     19  C   UNL     1       3.633  -2.760   0.107  0.00  0.00    +0.144 C 
ATOM     20  C   UNL     1       2.159  -2.452  -0.027  0.00  0.00    -0.040 C 
ATOM     21  C   UNL     1       2.065  -1.107  -0.138  0.00  0.00    -0.001 A 
ATOM     22  C   UNL     1       0.922  -0.200  -0.294  0.00  0.00    +0.010 A 
ATOM     23  H   UNL     1       5.279  -1.329   0.119  0.00  0.00    +0.160 HD
ENDBRANCH  13  20
ENDBRANCH  12  13
ENDBRANCH   8  12
ENDBRANCH   1   9
BRANCH   4  24
ATOM     24  N   UNL     1      -0.568  -8.358  -6.203  0.00  0.00    -0.284 N 
ATOM     25  C   UNL     1      -0.320  -9.055  -7.329  0.00  0.00    +0.246 C 
ATOM     26  O   UNL     1      -1.078  -8.971  -8.276  0.00  0.00    -0.270 OA
ATOM     27  H   UNL     1       0.036  -8.425  -5.447  0.00  0.00    +0.152 HD
BRANCH  25  28
ATOM     28  C   UNL     1       0.872  -9.922  -7.412  0.00  0.00    +0.040 A 
ATOM     29  C   UNL     1       1.741 -10.024  -6.323  0.00  0.00    +0.017 A 
ATOM     30  C   UNL     1       2.853 -10.834  -6.403  0.00  0.00    +0.050 A 
ATOM     31  C   UNL     1       3.114 -11.550  -7.563  0.00  0.00    +0.166 A 
ATOM     32  C   UNL     1       2.250 -11.452  -8.655  0.00  0.00    +0.167 A 
ATOM     33  C   UNL     1       1.131 -10.646  -8.579  0.00  0.00    +0.062 A 
ATOM     34  O   UNL     1       2.726 -12.245  -9.659  0.00  0.00    -0.453 OA
ATOM     35  C   UNL     1       4.100 -12.509  -9.322  0.00  0.00    +0.466 C 
ATOM     36  O   UNL     1       4.127 -12.405  -7.886  0.00  0.00    -0.453 OA
ENDBRANCH  25  28
ENDBRANCH   4  24
TORSDOF 6
