REMARK  Name = ZINC44737381
REMARK  11 active torsions:
REMARK  status: ('A' for Active; 'I' for Inactive)
REMARK    1  A    between atoms: C_1  and  C_2
REMARK    2  A    between atoms: C_2  and  C_3
REMARK    3  A    between atoms: C_3  and  C_4
REMARK    4  A    between atoms: C_4  and  C_5
REMARK    5  A    between atoms: C_5  and  C_6
REMARK    6  A    between atoms: C_6  and  C_7
REMARK    7  A    between atoms: C_11  and  C_20
REMARK    8  A    between atoms: N_22  and  C_23
REMARK    9  A    between atoms: C_23  and  C_25
REMARK   10  A    between atoms: C_23  and  C_26
REMARK   11  A    between atoms: C_31  and  C_35
REMARK                            x       y       z     vdW  Elec       q    Type
REMARK                         _______ _______ _______ _____ _____    ______ ____
ROOT
ATOM      1  C   UNL     1      -3.948  -4.674  -0.098  0.00  0.00    +0.216 C 
ATOM      2  O   UNL     1      -4.814  -3.825  -0.120  0.00  0.00    -0.276 OA
ATOM      3  N   UNL     1      -4.284  -5.979  -0.062  0.00  0.00    -0.300 N 
ATOM      4  C   UNL     1      -3.376  -7.150  -0.025  0.00  0.00    +0.121 C 
ATOM      5  C   UNL     1      -4.055  -8.139   0.949  0.00  0.00    +0.100 C 
ATOM      6  C   UNL     1      -5.544  -7.753   0.925  0.00  0.00    -0.004 C 
ATOM      7  C   UNL     1      -5.645  -6.567  -0.044  0.00  0.00    +0.115 C 
ATOM      8  C   UNL     1      -6.001  -7.329   2.318  0.00  0.00    -0.010 C 
ATOM      9  C   UNL     1      -7.497  -7.004   2.281  0.00  0.00    -0.082 C 
ATOM     10  N   UNL     1      -8.246  -8.187   1.838  0.00  0.00    +0.379 N 
ATOM     11  C   UNL     1      -7.866  -8.533   0.463  0.00  0.00    -0.082 C 
ATOM     12  C   UNL     1      -6.386  -8.921   0.422  0.00  0.00    -0.010 C 
ATOM     13  H   UNL     1      -8.038  -8.963   2.448  0.00  0.00    -0.086 HD
ATOM     14  H   UNL     1      -9.235  -7.990   1.873  0.00  0.00    -0.086 HD
ENDROOT
BRANCH   5  15
ATOM     15  C   UNL     1      -3.491  -7.981   2.337  0.00  0.00    +0.219 C 
ATOM     16  O   UNL     1      -3.080  -6.901   2.705  0.00  0.00    -0.275 OA
ATOM     17  N   UNL     1      -3.444  -9.039   3.170  0.00  0.00    -0.305 N 
ATOM     18  H   UNL     1      -3.773  -9.903   2.876  0.00  0.00    +0.149 HD
BRANCH  17  19
ATOM     19  C   UNL     1      -2.895  -8.885   4.520  0.00  0.00    +0.136 C 
ATOM     20  C   UNL     1      -1.374  -9.040   4.473  0.00  0.00    +0.036 C 
BRANCH  19  21
ATOM     21  C   UNL     1      -3.480  -9.940   5.423  0.00  0.00    +0.128 A 
ATOM     22  N   UNL     1      -3.942 -11.089   5.025  0.00  0.00    -0.231 NA
ATOM     23  C   UNL     1      -4.392 -11.796   6.094  0.00  0.00    +0.089 A 
ATOM     24  C   UNL     1      -4.973 -13.058   6.240  0.00  0.00    +0.030 A 
ATOM     25  C   UNL     1      -5.330 -13.504   7.481  0.00  0.00    +0.005 A 
ATOM     26  C   UNL     1      -5.121 -12.716   8.603  0.00  0.00    -0.048 A 
ATOM     27  C   UNL     1      -4.549 -11.467   8.483  0.00  0.00    +0.031 A 
ATOM     28  C   UNL     1      -4.180 -10.997   7.230  0.00  0.00    +0.067 A 
ATOM     29  N   UNL     1      -3.596  -9.832   6.774  0.00  0.00    -0.340 N 
ATOM     30  C   UNL     1      -5.522 -13.227   9.963  0.00  0.00    +0.044 C 
ATOM     31  H   UNL     1      -3.322  -9.076   7.316  0.00  0.00    +0.167 HD
ENDBRANCH  19  21
ENDBRANCH  17  19
ENDBRANCH   5  15
BRANCH   1  32
ATOM     32  C   UNL     1      -2.497  -4.270  -0.111  0.00  0.00    +0.096 C 
BRANCH  32  33
ATOM     33  C   UNL     1      -2.393  -2.744  -0.152  0.00  0.00    +0.009 C 
BRANCH  33  34
ATOM     34  C   UNL     1      -0.919  -2.333  -0.165  0.00  0.00    +0.000 C 
BRANCH  34  35
ATOM     35  C   UNL     1      -0.815  -0.807  -0.207  0.00  0.00    -0.000 C 
BRANCH  35  37
ATOM     36  C   UNL     1       0.763   1.129  -0.262  0.00  0.00    +0.004 C 
ATOM     37  C   UNL     1       0.659  -0.397  -0.220  0.00  0.00    -0.003 C 
ENDBRANCH  35  37
ENDBRANCH  34  35
ENDBRANCH  33  34
ENDBRANCH  32  33
ENDBRANCH   1  32
TORSDOF 8
