REMARK  Name = ZINC40940621
REMARK  6 active torsions:
REMARK  status: ('A' for Active; 'I' for Inactive)
REMARK    1  A    between atoms: C_3  and  C_21
REMARK    2  A    between atoms: C_6  and  N_7
REMARK    3  A    between atoms: C_9  and  C_14
REMARK    4  A    between atoms: C_14  and  N_15
REMARK    5  A    between atoms: C_24  and  C_27
REMARK    6  A    between atoms: C_27  and  C_35
REMARK                            x       y       z     vdW  Elec       q    Type
REMARK                         _______ _______ _______ _____ _____    ______ ____
ROOT
ATOM      1  C   UNL     1       2.719  -1.575   2.207  0.00  0.00    +0.024 A 
ATOM      2  C   UNL     1       3.364  -0.408   1.857  0.00  0.00    +0.013 A 
ATOM      3  C   UNL     1       4.674  -0.453   1.383  0.00  0.00    +0.019 A 
ATOM      4  C   UNL     1       5.329  -1.680   1.263  0.00  0.00    +0.133 A 
ATOM      5  C   UNL     1       4.678  -2.845   1.615  0.00  0.00    +0.062 A 
ATOM      6  C   UNL     1       3.372  -2.796   2.088  0.00  0.00    +0.042 A 
ATOM      7  F   UNL     1       6.598  -1.727   0.803  0.00  0.00    -0.205 F 
ENDROOT
BRANCH   6   8
ATOM      8  N   UNL     1       2.714  -3.977   2.444  0.00  0.00    -0.234 N 
ATOM      9  C   UNL     1       3.276  -5.341   2.378  0.00  0.00    +0.163 C 
ATOM     10  C   UNL     1       2.271  -6.151   3.232  0.00  0.00    +0.217 C 
ATOM     11  O   UNL     1       1.080  -5.346   3.137  0.00  0.00    -0.443 OA
ATOM     12  C   UNL     1       1.456  -4.075   2.914  0.00  0.00    +0.408 C 
ATOM     13  O   UNL     1       0.736  -3.116   3.112  0.00  0.00    -0.226 OA
BRANCH  10  14
ATOM     14  C   UNL     1       2.041  -7.540   2.633  0.00  0.00    +0.191 C 
BRANCH  14  15
ATOM     15  N   UNL     1       1.181  -8.320   3.526  0.00  0.00    -0.248 N 
ATOM     16  C   UNL     1       0.023  -8.928   3.179  0.00  0.00    +0.130 A 
ATOM     17  C   UNL     1      -0.437  -9.530   4.301  0.00  0.00    +0.156 A 
ATOM     18  N   UNL     1       0.450  -9.264   5.266  0.00  0.00    -0.138 NA
ATOM     19  N   UNL     1       1.400  -8.550   4.773  0.00  0.00    -0.066 NA
ENDBRANCH  14  15
ENDBRANCH  10  14
ENDBRANCH   6   8
BRANCH   3  20
ATOM     20  C   UNL     1       5.370   0.802   1.005  0.00  0.00    +0.003 A 
ATOM     21  C   UNL     1       6.651   1.077   1.492  0.00  0.00    +0.012 A 
ATOM     22  C   UNL     1       7.258   2.260   1.109  0.00  0.00    +0.025 A 
ATOM     23  C   UNL     1       6.584   3.125   0.266  0.00  0.00    +0.057 A 
ATOM     24  N   UNL     1       5.375   2.838  -0.177  0.00  0.00    -0.258 NA
ATOM     25  C   UNL     1       4.760   1.722   0.155  0.00  0.00    +0.119 A 
BRANCH  23  26
ATOM     26  C   UNL     1       7.241   4.415  -0.154  0.00  0.00    +0.091 C 
ATOM     27  C   UNL     1       6.949   4.929  -1.565  0.00  0.00    -0.004 C 
ATOM     28  C   UNL     1       8.331   4.336  -1.224  0.00  0.00    -0.004 C 
ATOM     29  C   UNL     1       8.432   3.046  -2.066  0.00  0.00    -0.078 C 
ATOM     30  N   UNL     1       7.497   3.264  -3.199  0.00  0.00    +0.379 N 
ATOM     31  C   UNL     1       6.297   3.958  -2.572  0.00  0.00    -0.078 C 
ATOM     32  H   UNL     1       7.922   3.853  -3.900  0.00  0.00    -0.086 HD
ATOM     33  H   UNL     1       7.217   2.381  -3.601  0.00  0.00    -0.086 HD
BRANCH  26  34
ATOM     34  C   UNL     1       7.412   5.441   0.937  0.00  0.00    +0.223 C 
ATOM     35  O   UNL     1       8.524   5.748   1.311  0.00  0.00    -0.275 OA
ATOM     36  N   UNL     1       6.329   6.016   1.496  0.00  0.00    -0.329 N 
ATOM     37  H   UNL     1       5.440   5.721   1.247  0.00  0.00    +0.145 HD
ATOM     38  H   UNL     1       6.440   6.726   2.149  0.00  0.00    +0.145 HD
ENDBRANCH  26  34
ENDBRANCH  23  26
ENDBRANCH   3  20
TORSDOF 6
