REMARK  Name = ZINC61042809
REMARK  10 active torsions:
REMARK  status: ('A' for Active; 'I' for Inactive)
REMARK    1  A    between atoms: C_1  and  N_2
REMARK    2  A    between atoms: N_2  and  C_3
REMARK    3  A    between atoms: N_2  and  C_4
REMARK    4  A    between atoms: C_4  and  C_5
REMARK    5  A    between atoms: C_4  and  C_20
REMARK    6  A    between atoms: C_5  and  N_6
REMARK    7  A    between atoms: N_9  and  C_10
REMARK    8  A    between atoms: C_14  and  C_16
REMARK    9  A    between atoms: C_23  and  O_26
REMARK   10  A    between atoms: O_26  and  C_27
REMARK                            x       y       z     vdW  Elec       q    Type
REMARK                         _______ _______ _______ _____ _____    ______ ____
ROOT
ATOM      1  N   UNL     1       0.205  -2.151   0.753  0.00  0.00    -0.301 N 
ATOM      2  C   UNL     1       0.641  -3.422   0.864  0.00  0.00    +0.300 C 
ATOM      3  O   UNL     1       0.253  -4.268   0.083  0.00  0.00    -0.253 OA
ATOM      4  N   UNL     1       1.508  -3.753   1.842  0.00  0.00    -0.297 N 
ATOM      5  H   UNL     1       0.515  -1.476   1.377  0.00  0.00    +0.150 HD
ATOM      6  H   UNL     1       1.818  -3.078   2.465  0.00  0.00    +0.151 HD
ENDROOT
BRANCH   4   7
ATOM      7  C   UNL     1       1.982  -5.134   1.962  0.00  0.00    +0.075 C 
ATOM      8  C   UNL     1       3.178  -5.346   1.032  0.00  0.00    +0.022 C 
ATOM      9  C   UNL     1       4.303  -4.385   1.420  0.00  0.00    +0.002 C 
ATOM     10  C   UNL     1       4.728  -4.654   2.865  0.00  0.00    +0.012 C 
ATOM     11  C   UNL     1       3.532  -4.442   3.796  0.00  0.00    +0.095 C 
ATOM     12  C   UNL     1       2.407  -5.403   3.408  0.00  0.00    +0.034 C 
BRANCH  11  13
ATOM     13  C   UNL     1       3.957  -4.710   5.241  0.00  0.00    +0.393 C 
ATOM     14  F   UNL     1       4.986  -3.831   5.596  0.00  0.00    -0.170 F 
ATOM     15  F   UNL     1       2.864  -4.517   6.092  0.00  0.00    -0.170 F 
ATOM     16  F   UNL     1       4.410  -6.029   5.356  0.00  0.00    -0.170 F 
ENDBRANCH  11  13
ENDBRANCH   4   7
BRANCH   1  17
ATOM     17  C   UNL     1      -0.737  -1.791  -0.309  0.00  0.00    +0.095 C 
BRANCH  17  18
ATOM     18  C   UNL     1      -1.168  -0.333  -0.135  0.00  0.00    -0.021 C 
BRANCH  18  19
ATOM     19  C   UNL     1      -1.944  -0.188   1.148  0.00  0.00    -0.059 A 
ATOM     20  C   UNL     1      -3.276  -0.557   1.194  0.00  0.00    +0.005 A 
ATOM     21  C   UNL     1      -3.990  -0.425   2.369  0.00  0.00    +0.046 A 
ATOM     22  C   UNL     1      -3.370   0.078   3.503  0.00  0.00    +0.120 A 
ATOM     23  C   UNL     1      -2.034   0.447   3.455  0.00  0.00    +0.046 A 
ATOM     24  C   UNL     1      -1.323   0.308   2.279  0.00  0.00    +0.005 A 
BRANCH  22  25
ATOM     25  O   UNL     1      -4.071   0.210   4.660  0.00  0.00    -0.495 OA
ATOM     26  C   UNL     1      -3.368   0.735   5.789  0.00  0.00    +0.277 C 
ENDBRANCH  22  25
ENDBRANCH  18  19
BRANCH  18  28
ATOM     27  C   UNL     1      -2.469   1.450  -1.076  0.00  0.00    -0.096 C 
ATOM     28  N   UNL     1      -2.014   0.066  -1.268  0.00  0.00    +0.382 N 
ATOM     29  C   UNL     1      -1.242  -0.027  -2.514  0.00  0.00    -0.096 C 
ATOM     30  H   UNL     1      -2.814  -0.547  -1.322  0.00  0.00    -0.082 HD
ENDBRANCH  18  28
ENDBRANCH  17  18
ENDBRANCH   1  17
TORSDOF 7
