REMARK  Name = ZINC35367858
REMARK  4 active torsions:
REMARK  status: ('A' for Active; 'I' for Inactive)
REMARK    1  A    between atoms: C_3  and  N_8
REMARK    2  A    between atoms: C_6  and  N_7
REMARK    3  A    between atoms: N_11  and  C_14
REMARK    4  A    between atoms: C_14  and  C_15
REMARK                            x       y       z     vdW  Elec       q    Type
REMARK                         _______ _______ _______ _____ _____    ______ ____
ROOT
ATOM      1  N   UNL     1       3.596   2.007  -0.022  0.00  0.00    -0.314 N 
ATOM      2  C   UNL     1       3.651   3.473  -0.119  0.00  0.00    +0.122 C 
ATOM      3  C   UNL     1       4.545   4.003   1.007  0.00  0.00    +0.104 C 
ATOM      4  N   UNL     1       5.848   3.327   0.952  0.00  0.00    -0.291 NA
ATOM      5  C   UNL     1       5.710   1.883   1.185  0.00  0.00    +0.104 C 
ATOM      6  C   UNL     1       4.864   1.268   0.072  0.00  0.00    +0.122 C 
ENDROOT
BRANCH   1   9
ATOM      7  C   UNL     1      -0.017   1.389   0.032  0.00  0.00    +0.027 A 
ATOM      8  C   UNL     1       1.191   2.064   0.024  0.00  0.00    +0.043 A 
ATOM      9  C   UNL     1       2.374   1.336  -0.013  0.00  0.00    +0.099 A 
ATOM     10  N   UNL     1       2.354   0.013  -0.042  0.00  0.00    -0.348 N 
ATOM     11  C   UNL     1       1.222  -0.663  -0.036  0.00  0.00    +0.106 A 
ATOM     12  C   UNL     1       0.002  -0.004   0.001  0.00  0.00    +0.041 A 
ATOM     13  H   UNL     1       3.194  -0.472  -0.067  0.00  0.00    +0.167 HD
BRANCH  12  14
ATOM     14  N   UNL     1      -1.196  -0.729   0.008  0.00  0.00    -0.357 N 
ATOM     15  H   UNL     1      -2.046  -0.262   0.034  0.00  0.00    +0.142 HD
ATOM     16  H   UNL     1      -1.176  -1.699  -0.013  0.00  0.00    +0.142 HD
ENDBRANCH  12  14
ENDBRANCH   1   9
BRANCH   4  17
ATOM     17  C   UNL     1       6.793   3.926   1.905  0.00  0.00    +0.181 C 
BRANCH  17  18
ATOM     18  C   UNL     1       8.175   3.381   1.652  0.00  0.00    +0.234 C 
ATOM     19  O   UNL     1       8.355   2.573   0.766  0.00  0.00    -0.274 OA
ATOM     20  N   UNL     1       9.210   3.791   2.411  0.00  0.00    -0.239 N 
ATOM     21  C   UNL     1      10.446   3.303   2.185  0.00  0.00    +0.303 C 
ATOM     22  O   UNL     1      10.627   2.494   1.296  0.00  0.00    -0.253 OA
ATOM     23  N   UNL     1      11.482   3.714   2.943  0.00  0.00    -0.313 N 
ATOM     24  H   UNL     1       9.066   4.437   3.119  0.00  0.00    +0.159 HD
ATOM     25  H   UNL     1      11.337   4.360   3.652  0.00  0.00    +0.146 HD
ATOM     26  H   UNL     1      12.371   3.363   2.781  0.00  0.00    +0.146 HD
ENDBRANCH  17  18
ENDBRANCH   4  17
TORSDOF 4
