REMARK  Name = ZINC66867196
REMARK  6 active torsions:
REMARK  status: ('A' for Active; 'I' for Inactive)
REMARK    1  A    between atoms: C_1  and  C_2
REMARK    2  A    between atoms: C_2  and  C_3
REMARK    3  A    between atoms: C_2  and  N_4
REMARK    4  A    between atoms: C_8  and  C_10
REMARK    5  A    between atoms: C_10  and  N_11
REMARK    6  A    between atoms: C_17  and  C_19
REMARK                            x       y       z     vdW  Elec       q    Type
REMARK                         _______ _______ _______ _____ _____    ______ ____
ROOT
ATOM      1  N   UNL     1      -6.444  -3.231  -2.962  0.00  0.00    -0.291 NA
ATOM      2  C   UNL     1      -5.794  -4.197  -3.857  0.00  0.00    +0.104 C 
ATOM      3  C   UNL     1      -5.768  -3.632  -5.281  0.00  0.00    +0.123 C 
ATOM      4  N   UNL     1      -7.139  -3.257  -5.660  0.00  0.00    -0.299 N 
ATOM      5  C   UNL     1      -7.905  -2.400  -4.743  0.00  0.00    +0.123 C 
ATOM      6  C   UNL     1      -7.847  -3.014  -3.340  0.00  0.00    +0.104 C 
ATOM      7  C   UNL     1      -7.678  -3.688  -6.818  0.00  0.00    +0.219 C 
ATOM      8  O   UNL     1      -8.837  -3.439  -7.077  0.00  0.00    -0.275 OA
ENDROOT
BRANCH   7   9
ATOM      9  C   UNL     1      -6.842  -4.479  -7.791  0.00  0.00    +0.075 C 
ATOM     10  C   UNL     1      -6.005  -3.520  -8.641  0.00  0.00    +0.013 C 
ATOM     11  C   UNL     1      -5.156  -4.323  -9.628  0.00  0.00    +0.001 C 
ATOM     12  C   UNL     1      -6.072  -5.144 -10.538  0.00  0.00    +0.000 C 
ATOM     13  C   UNL     1      -6.909  -6.102  -9.689  0.00  0.00    +0.001 C 
ATOM     14  C   UNL     1      -7.758  -5.299  -8.701  0.00  0.00    +0.013 C 
ENDBRANCH   7   9
BRANCH   1  15
ATOM     15  C   UNL     1      -6.337  -3.657  -1.560  0.00  0.00    +0.181 C 
BRANCH  15  20
ATOM     16  N   UNL     1      -2.916  -4.321   1.751  0.00  0.00    -0.297 N 
ATOM     17  C   UNL     1      -3.257  -3.966   0.497  0.00  0.00    +0.306 C 
ATOM     18  O   UNL     1      -2.398  -3.626  -0.293  0.00  0.00    -0.252 OA
ATOM     19  N   UNL     1      -4.550  -3.988   0.118  0.00  0.00    -0.239 N 
ATOM     20  C   UNL     1      -4.891  -3.633  -1.137  0.00  0.00    +0.234 C 
ATOM     21  O   UNL     1      -4.035  -3.294  -1.925  0.00  0.00    -0.274 OA
ATOM     22  H   UNL     1      -3.602  -4.592   2.382  0.00  0.00    +0.151 HD
ATOM     23  H   UNL     1      -5.236  -4.259   0.748  0.00  0.00    +0.159 HD
BRANCH  16  25
ATOM     24  C   UNL     1      -1.136  -2.885   2.618  0.00  0.00    +0.027 C 
ATOM     25  C   UNL     1      -1.510  -4.297   2.163  0.00  0.00    +0.068 C 
ATOM     26  C   UNL     1      -1.301  -5.277   3.319  0.00  0.00    +0.027 C 
ENDBRANCH  16  25
ENDBRANCH  15  20
ENDBRANCH   1  15
TORSDOF 4
