REMARK  Name = ZINC50369194
REMARK  5 active torsions:
REMARK  status: ('A' for Active; 'I' for Inactive)
REMARK    1  A    between atoms: C_1  and  O_2
REMARK    2  A    between atoms: O_2  and  C_3
REMARK    3  A    between atoms: C_8  and  N_10
REMARK    4  A    between atoms: N_10  and  C_11
REMARK    5  A    between atoms: C_20  and  N_21
REMARK                            x       y       z     vdW  Elec       q    Type
REMARK                         _______ _______ _______ _____ _____    ______ ____
ROOT
ATOM      1  C   UNL     1       0.572  -3.361   1.644  0.00  0.00    +0.059 A 
ATOM      2  C   UNL     1       1.954  -3.558   1.861  0.00  0.00    +0.022 A 
ATOM      3  C   UNL     1       2.916  -2.882   1.095  0.00  0.00    +0.027 A 
ATOM      4  C   UNL     1       4.240  -3.098   1.334  0.00  0.00    +0.019 A 
ATOM      5  C   UNL     1       4.651  -3.982   2.330  0.00  0.00    +0.017 A 
ATOM      6  C   UNL     1       3.744  -4.653   3.091  0.00  0.00    +0.027 A 
ATOM      7  C   UNL     1       2.369  -4.456   2.874  0.00  0.00    +0.048 A 
ATOM      8  N   UNL     1       1.458  -5.104   3.609  0.00  0.00    -0.359 N 
ATOM      9  C   UNL     1       0.170  -4.932   3.421  0.00  0.00    +0.107 A 
ATOM     10  C   UNL     1      -0.319  -4.062   2.448  0.00  0.00    +0.062 A 
ATOM     11 BR   UNL     1       5.536  -2.187   0.300  0.00  0.00    -0.050 Br
ATOM     12  H   UNL     1       1.757  -5.716   4.299  0.00  0.00    +0.165 HD
ENDROOT
BRANCH  10  13
ATOM     13  N   UNL     1      -1.702  -3.899   2.279  0.00  0.00    -0.355 N 
ATOM     14  H   UNL     1      -2.041  -3.367   1.542  0.00  0.00    +0.142 HD
ATOM     15  H   UNL     1      -2.319  -4.319   2.899  0.00  0.00    +0.142 HD
ENDBRANCH  10  13
BRANCH   1  16
ATOM     16  N   UNL     1       0.117  -2.488   0.660  0.00  0.00    -0.337 N 
ATOM     17  H   UNL     1       0.316  -2.663  -0.273  0.00  0.00    +0.147 HD
BRANCH  16  22
ATOM     18  C   UNL     1       0.227  -0.047   0.981  0.00  0.00    +0.138 C 
ATOM     19  C   UNL     1      -0.043   0.555  -0.420  0.00  0.00    +0.033 C 
ATOM     20  C   UNL     1      -1.560   0.307  -0.612  0.00  0.00    +0.004 C 
ATOM     21  C   UNL     1      -1.799  -1.081   0.017  0.00  0.00    +0.025 C 
ATOM     22  C   UNL     1      -0.663  -1.306   1.034  0.00  0.00    +0.099 C 
BRANCH  18  24
ATOM     23  C   UNL     1       2.414   0.619   1.700  0.00  0.00    +0.194 C 
ATOM     24  O   UNL     1       1.605  -0.403   1.116  0.00  0.00    -0.378 OA
ENDBRANCH  18  24
ENDBRANCH  16  22
ENDBRANCH   1  16
TORSDOF 4
