REMARK  Name = ZINC55325828
REMARK  9 active torsions:
REMARK  status: ('A' for Active; 'I' for Inactive)
REMARK    1  A    between atoms: C_1  and  C_2
REMARK    2  A    between atoms: C_2  and  N_3
REMARK    3  A    between atoms: C_9  and  C_11
REMARK    4  A    between atoms: C_11  and  C_12
REMARK    5  A    between atoms: N_14  and  C_15
REMARK    6  A    between atoms: C_15  and  C_16
REMARK    7  A    between atoms: N_18  and  C_19
REMARK    8  A    between atoms: C_19  and  C_20
REMARK    9  A    between atoms: C_19  and  C_26
REMARK                            x       y       z     vdW  Elec       q    Type
REMARK                         _______ _______ _______ _____ _____    ______ ____
ROOT
ATOM      1  C   UNL     1       0.877  -2.013   3.864  0.00  0.00    +0.200 C 
ENDROOT
BRANCH   1   4
ATOM      2  C   UNL     1       0.976  -2.091   1.431  0.00  0.00    +0.212 C 
ATOM      3  O   UNL     1      -0.170  -1.696   1.401  0.00  0.00    -0.276 OA
ATOM      4  N   UNL     1       1.592  -2.282   2.614  0.00  0.00    -0.307 N 
ATOM      5  H   UNL     1       2.509  -2.598   2.638  0.00  0.00    +0.149 HD
BRANCH   2   6
ATOM      6  C   UNL     1       1.712  -2.368   0.145  0.00  0.00    +0.089 C 
BRANCH   6  13
ATOM      7  N   UNL     1      -0.345  -2.948  -1.045  0.00  0.00    +0.388 N 
ATOM      8  C   UNL     1      -1.305  -2.500  -2.066  0.00  0.00    -0.059 C 
ATOM      9  C   UNL     1      -1.952  -1.196  -1.595  0.00  0.00    +0.085 C 
ATOM     10  N   UNL     1      -0.919  -0.243  -1.198  0.00  0.00    -0.318 N 
ATOM     11  C   UNL     1       0.338  -0.614  -0.930  0.00  0.00    +0.200 C 
ATOM     12  O   UNL     1       1.133   0.234  -0.583  0.00  0.00    -0.278 OA
ATOM     13  C   UNL     1       0.806  -2.037  -1.042  0.00  0.00    +0.028 C 
ATOM     14  H   UNL     1      -1.154   0.695  -1.125  0.00  0.00    +0.149 HD
ATOM     15  H   UNL     1      -0.786  -2.939  -0.138  0.00  0.00    -0.081 HD
BRANCH   7  17
ATOM     16  C   UNL     1      -1.067  -5.283  -1.215  0.00  0.00    -0.017 C 
ATOM     17  C   UNL     1       0.106  -4.311  -1.359  0.00  0.00    -0.081 C 
ENDBRANCH   7  17
ENDBRANCH   6  13
ENDBRANCH   2   6
ENDBRANCH   1   4
BRANCH   1  18
ATOM     18  C   UNL     1       1.782  -2.304   5.034  0.00  0.00    +0.231 C 
ATOM     19  O   UNL     1       2.913  -2.698   4.842  0.00  0.00    -0.274 OA
ATOM     20  N   UNL     1       1.335  -2.127   6.292  0.00  0.00    -0.303 N 
ATOM     21  H   UNL     1       0.430  -1.812   6.446  0.00  0.00    +0.150 HD
BRANCH  20  22
ATOM     22  C   UNL     1       2.214  -2.410   7.429  0.00  0.00    +0.134 C 
BRANCH  22  23
ATOM     23  C   UNL     1       3.068  -1.202   7.716  0.00  0.00    -0.023 A 
ATOM     24  C   UNL     1       2.521   0.065   7.643  0.00  0.00    +0.006 A 
ATOM     25  C   UNL     1       3.304   1.173   7.907  0.00  0.00    +0.000 A 
ATOM     26  C   UNL     1       4.635   1.014   8.244  0.00  0.00    +0.000 A 
ATOM     27  C   UNL     1       5.183  -0.253   8.318  0.00  0.00    +0.000 A 
ATOM     28  C   UNL     1       4.398  -1.361   8.059  0.00  0.00    +0.006 A 
ENDBRANCH  22  23
BRANCH  22  29
ATOM     29  C   UNL     1       1.380  -2.735   8.641  0.00  0.00    -0.023 A 
ATOM     30  C   UNL     1       0.221  -2.025   8.893  0.00  0.00    +0.006 A 
ATOM     31  C   UNL     1      -0.544  -2.323  10.005  0.00  0.00    +0.000 A 
ATOM     32  C   UNL     1      -0.151  -3.332  10.865  0.00  0.00    +0.000 A 
ATOM     33  C   UNL     1       1.008  -4.043  10.612  0.00  0.00    +0.000 A 
ATOM     34  C   UNL     1       1.771  -3.747   9.498  0.00  0.00    +0.006 A 
ENDBRANCH  22  29
ENDBRANCH  20  22
ENDBRANCH   1  18
TORSDOF 8
