REMARK  Name = ZINC34785205
REMARK  6 active torsions:
REMARK  status: ('A' for Active; 'I' for Inactive)
REMARK    1  A    between atoms: C_1  and  C_2
REMARK    2  A    between atoms: C_2  and  C_3
REMARK    3  A    between atoms: N_13  and  C_14
REMARK    4  A    between atoms: C_15  and  C_25
REMARK    5  A    between atoms: C_21  and  C_23
REMARK    6  A    between atoms: C_21  and  C_24
REMARK                            x       y       z     vdW  Elec       q    Type
REMARK                         _______ _______ _______ _____ _____    ______ ____
ROOT
ATOM      1  C   UNL     1       3.276  -7.354   2.595  0.00  0.00    +0.086 A 
ATOM      2  C   UNL     1       3.996  -7.989   3.597  0.00  0.00    +0.069 A 
ATOM      3  C   UNL     1       4.092  -9.433   3.527  0.00  0.00    -0.018 A 
ATOM      4  C   UNL     1       3.453  -9.982   2.469  0.00  0.00    +0.021 A 
ATOM      5  S   UNL     1       2.747  -8.609   1.611  0.00  0.00    -0.075 S 
ATOM      6  C   UNL     1       3.386 -11.441   2.144  0.00  0.00    +0.203 C 
ATOM      7  O   UNL     1       4.369 -12.116   2.945  0.00  0.00    -0.368 OA
ATOM      8  C   UNL     1       4.327 -11.758   4.329  0.00  0.00    +0.068 C 
ATOM      9  C   UNL     1       4.829 -10.322   4.519  0.00  0.00    +0.071 C 
ATOM     10  C   UNL     1       5.214 -12.715   5.128  0.00  0.00    +0.041 C 
ATOM     11  C   UNL     1       2.887 -11.863   4.836  0.00  0.00    +0.041 C 
ENDROOT
BRANCH   1  22
ATOM     12  C   UNL     1       0.732  -0.503   1.217  0.00  0.00    +0.215 C 
ATOM     13  O   UNL     1       1.188   0.287   2.017  0.00  0.00    -0.276 OA
ATOM     14  N   UNL     1       0.875  -1.827   1.422  0.00  0.00    -0.298 N 
ATOM     15  C   UNL     1       0.334  -2.796   0.459  0.00  0.00    +0.127 C 
ATOM     16  C   UNL     1       1.468  -3.724   0.007  0.00  0.00    +0.128 C 
ATOM     17  N   UNL     1       2.167  -4.225   1.198  0.00  0.00    -0.282 N 
ATOM     18  C   UNL     1       2.709  -3.256   2.162  0.00  0.00    +0.128 C 
ATOM     19  C   UNL     1       1.579  -2.329   2.611  0.00  0.00    +0.127 C 
ATOM     20  C   UNL     1       2.310  -5.550   1.404  0.00  0.00    +0.307 C 
ATOM     21  O   UNL     1       1.777  -6.342   0.651  0.00  0.00    -0.252 OA
ATOM     22  N   UNL     1       3.043  -5.995   2.443  0.00  0.00    -0.263 N 
ATOM     23  H   UNL     1       3.407  -5.366   3.085  0.00  0.00    +0.157 HD
BRANCH  12  25
ATOM     24  C   UNL     1      -0.013   1.526   0.002  0.00  0.00    +0.013 C 
ATOM     25  C   UNL     1       0.008  -0.004  -0.006  0.00  0.00    +0.092 C 
ENDBRANCH  12  25
ENDBRANCH   1  22
BRANCH   2  26
ATOM     26  C   UNL     1       4.632  -7.231   4.679  0.00  0.00    +0.244 C 
ATOM     27  O   UNL     1       4.018  -7.003   5.705  0.00  0.00    -0.270 OA
ATOM     28  N   UNL     1       5.897  -6.787   4.538  0.00  0.00    -0.325 N 
ATOM     29  H   UNL     1       6.386  -6.969   3.720  0.00  0.00    +0.145 HD
ATOM     30  H   UNL     1       6.318  -6.286   5.254  0.00  0.00    +0.145 HD
ENDBRANCH   2  26
TORSDOF 3
