REMARK  Name = ZINC43283554
REMARK  7 active torsions:
REMARK  status: ('A' for Active; 'I' for Inactive)
REMARK    1  A    between atoms: C_1  and  C_2
REMARK    2  A    between atoms: C_2  and  C_4
REMARK    3  A    between atoms: C_2  and  N_19
REMARK    4  A    between atoms: C_4  and  C_6
REMARK    5  A    between atoms: C_4  and  S_12
REMARK    6  A    between atoms: S_12  and  C_13
REMARK    7  A    between atoms: N_17  and  C_18
REMARK                            x       y       z     vdW  Elec       q    Type
REMARK                         _______ _______ _______ _____ _____    ______ ____
ROOT
ATOM      1  C   UNL     1       0.710  -0.417   1.294  0.00  0.00    +0.076 C 
ENDROOT
BRANCH   1   2
ATOM      2  C   UNL     1       0.967  -1.891   1.113  0.00  0.00    +0.003 A 
ATOM      3  C   UNL     1       0.577  -2.927   1.895  0.00  0.00    +0.013 A 
ATOM      4  C   UNL     1       0.931  -4.212   1.531  0.00  0.00    +0.023 A 
ATOM      5  C   UNL     1       1.658  -4.398   0.400  0.00  0.00    +0.055 A 
ATOM      6  S   UNL     1       1.856  -2.725  -0.190  0.00  0.00    -0.085 S 
ATOM      7 BR   UNL     1       2.290  -6.011  -0.357  0.00  0.00    -0.043 Br
ENDBRANCH   1   2
BRANCH   1   9
ATOM      8  C   UNL     1      -1.434  -0.578   0.021  0.00  0.00    -0.013 C 
ATOM      9  C   UNL     1      -0.072   0.116   0.092  0.00  0.00    -0.060 C 
BRANCH   9  10
ATOM     10  N   UNL     1      -0.268   1.565   0.238  0.00  0.00    +0.381 N 
ATOM     11  H   UNL     1      -0.785   1.750   1.084  0.00  0.00    -0.090 HD
ATOM     12  H   UNL     1       0.630   2.022   0.284  0.00  0.00    -0.090 HD
ATOM     13  H   UNL     1      -0.783   1.916  -0.555  0.00  0.00    -0.090 HD
ENDBRANCH   9  10
ENDBRANCH   1   9
BRANCH   1  14
ATOM     14  S   UNL     1       2.292   0.461   1.423  0.00  0.00    -0.079 S 
BRANCH  14  15
ATOM     15  C   UNL     1       2.968  -0.101   2.950  0.00  0.00    +0.192 A 
ATOM     16  N   UNL     1       2.380  -0.887   3.822  0.00  0.00    -0.123 NA
ATOM     17  N   UNL     1       3.162  -1.093   4.821  0.00  0.00    -0.137 NA
ATOM     18  C   UNL     1       4.285  -0.456   4.649  0.00  0.00    +0.225 A 
ATOM     19  N   UNL     1       4.205   0.194   3.448  0.00  0.00    -0.312 N 
ATOM     20  C   UNL     1       5.231   1.035   2.827  0.00  0.00    +0.152 C 
ENDBRANCH  14  15
ENDBRANCH   1  14
TORSDOF 5
