REMARK  Name = ZINC36548364
REMARK  9 active torsions:
REMARK  status: ('A' for Active; 'I' for Inactive)
REMARK    1  A    between atoms: C_1  and  C_2
REMARK    2  A    between atoms: C_2  and  C_3
REMARK    3  A    between atoms: C_3  and  C_4
REMARK    4  A    between atoms: C_4  and  N_5
REMARK    5  A    between atoms: C_6  and  C_8
REMARK    6  A    between atoms: C_8  and  C_10
REMARK    7  A    between atoms: C_8  and  N_24
REMARK    8  A    between atoms: N_24  and  C_25
REMARK    9  A    between atoms: C_32  and  C_34
REMARK                            x       y       z     vdW  Elec       q    Type
REMARK                         _______ _______ _______ _____ _____    ______ ____
ROOT
ATOM      1  C   UNL     1       3.131  -4.010  -3.600  0.00  0.00    +0.198 C 
ENDROOT
BRANCH   1   2
ATOM      2  C   UNL     1       2.035  -3.623  -4.559  0.00  0.00    -0.010 A 
ATOM      3  C   UNL     1       0.981  -4.448  -4.724  0.00  0.00    +0.015 A 
ATOM      4  C   UNL     1      -0.072  -4.129  -5.612  0.00  0.00    -0.017 A 
ATOM      5  C   UNL     1      -1.165  -4.993  -5.776  0.00  0.00    +0.008 A 
ATOM      6  C   UNL     1      -2.167  -4.661  -6.639  0.00  0.00    +0.001 A 
ATOM      7  C   UNL     1      -2.123  -3.474  -7.362  0.00  0.00    +0.001 A 
ATOM      8  C   UNL     1      -1.073  -2.612  -7.225  0.00  0.00    +0.009 A 
ATOM      9  C   UNL     1      -0.031  -2.924  -6.349  0.00  0.00    -0.010 A 
ATOM     10  C   UNL     1       1.115  -2.028  -6.170  0.00  0.00    -0.010 A 
ATOM     11  C   UNL     1       2.132  -2.400  -5.263  0.00  0.00    -0.012 A 
ATOM     12  C   UNL     1       3.230  -1.547  -5.080  0.00  0.00    +0.009 A 
ATOM     13  C   UNL     1       3.298  -0.374  -5.772  0.00  0.00    +0.001 A 
ATOM     14  C   UNL     1       2.292  -0.009  -6.659  0.00  0.00    +0.001 A 
ATOM     15  C   UNL     1       1.216  -0.823  -6.868  0.00  0.00    +0.009 A 
ENDBRANCH   1   2
BRANCH   1  17
ATOM     16  N   UNL     1       3.521  -2.326  -1.831  0.00  0.00    -0.313 N 
ATOM     17  C   UNL     1       2.845  -3.416  -2.244  0.00  0.00    +0.238 C 
ATOM     18  O   UNL     1       2.008  -3.919  -1.526  0.00  0.00    -0.273 OA
ATOM     19  H   UNL     1       4.191  -1.923  -2.405  0.00  0.00    +0.149 HD
BRANCH  16  20
ATOM     20  C   UNL     1       3.243  -1.748  -0.513  0.00  0.00    +0.104 C 
BRANCH  20  21
ATOM     21  C   UNL     1       4.139  -0.528  -0.293  0.00  0.00    +0.018 C 
BRANCH  21  23
ATOM     22  C   UNL     1       4.745   1.296   1.304  0.00  0.00    +0.004 C 
ATOM     23  C   UNL     1       3.849   0.075   1.083  0.00  0.00    -0.002 C 
ENDBRANCH  21  23
ENDBRANCH  20  21
ENDBRANCH  16  20
ENDBRANCH   1  17
BRANCH   1  24
ATOM     24  N   UNL     1       3.191  -5.470  -3.490  0.00  0.00    -0.252 N 
ATOM     25  C   UNL     1       3.551  -6.212  -4.556  0.00  0.00    +0.241 C 
ATOM     26  O   UNL     1       3.676  -7.413  -4.445  0.00  0.00    -0.273 OA
BRANCH  24  27
ATOM     27  C   UNL     1       2.874  -6.095  -2.278  0.00  0.00    +0.056 A 
ATOM     28  C   UNL     1       1.566  -6.483  -2.017  0.00  0.00    +0.025 A 
ATOM     29  C   UNL     1       1.256  -7.098  -0.820  0.00  0.00    +0.002 A 
ATOM     30  C   UNL     1       2.246  -7.329   0.118  0.00  0.00    +0.002 A 
ATOM     31  C   UNL     1       3.549  -6.944  -0.138  0.00  0.00    +0.022 A 
ATOM     32  C   UNL     1       3.867  -6.333  -1.337  0.00  0.00    +0.062 A 
ATOM     33 CL   UNL     1       5.505  -5.856  -1.661  0.00  0.00    -0.082 Cl
ENDBRANCH  24  27
BRANCH  25  34
ATOM     34  C   UNL     1       3.800  -5.548  -5.886  0.00  0.00    +0.160 C 
ATOM     35  C   UNL     1       2.569  -5.715  -6.805  0.00  0.00    +0.041 C 
ATOM     36  C   UNL     1       2.937  -6.991  -7.597  0.00  0.00    +0.098 C 
ATOM     37  C   UNL     1       4.449  -7.034  -7.549  0.00  0.00    +0.214 C 
ATOM     38  O   UNL     1       5.147  -7.710  -8.274  0.00  0.00    -0.276 OA
ATOM     39  N   UNL     1       4.906  -6.212  -6.586  0.00  0.00    -0.304 N 
ATOM     40  H   UNL     1       5.844  -6.075  -6.381  0.00  0.00    +0.149 HD
ENDBRANCH  25  34
ENDBRANCH   1  24
TORSDOF 8
