REMARK  Name = ZINC09672723
REMARK  8 active torsions:
REMARK  status: ('A' for Active; 'I' for Inactive)
REMARK    1  A    between atoms: C_1  and  N_67
REMARK    2  A    between atoms: C_2  and  C_3
REMARK    3  A    between atoms: C_2  and  N_67
REMARK    4  A    between atoms: C_8  and  N_9
REMARK    5  A    between atoms: C_15  and  N_16
REMARK    6  A    between atoms: C_15  and  N_67
REMARK    7  A    between atoms: C_19  and  C_23
REMARK    8  A    between atoms: C_19  and  C_29
REMARK                            x       y       z     vdW  Elec       q    Type
REMARK                         _______ _______ _______ _____ _____    ______ ____
ROOT
ATOM      1  N   UNL     1       0.946   1.870  -0.620  0.00  0.00    -0.241 N 
ATOM      2  C   UNL     1      -0.243   1.246  -0.738  0.00  0.00    +0.254 C 
ATOM      3  O   UNL     1      -0.472   0.214  -1.331  0.00  0.00    -0.272 OA
ATOM      4  C   UNL     1      -1.235   2.107   0.018  0.00  0.00    +0.164 C 
ATOM      5  N   UNL     1      -0.411   3.216   0.530  0.00  0.00    -0.278 N 
ATOM      6  C   UNL     1       0.845   2.991   0.103  0.00  0.00    +0.308 C 
ATOM      7  O   UNL     1       1.783   3.724   0.348  0.00  0.00    -0.252 OA
ATOM      8  H   UNL     1      -0.716   3.965   1.067  0.00  0.00    +0.152 HD
ENDROOT
BRANCH   4   9
ATOM      9  C   UNL     1      -2.305   2.623  -0.909  0.00  0.00    -0.011 A 
ATOM     10  C   UNL     1      -2.957   1.753  -1.763  0.00  0.00    +0.006 A 
ATOM     11  C   UNL     1      -3.942   2.225  -2.610  0.00  0.00    +0.000 A 
ATOM     12  C   UNL     1      -4.269   3.568  -2.610  0.00  0.00    +0.000 A 
ATOM     13  C   UNL     1      -3.613   4.439  -1.760  0.00  0.00    +0.000 A 
ATOM     14  C   UNL     1      -2.631   3.966  -0.909  0.00  0.00    +0.006 A 
ENDBRANCH   4   9
BRANCH   4  15
ATOM     15  C   UNL     1      -1.846   1.334   1.159  0.00  0.00    -0.011 A 
ATOM     16  C   UNL     1      -2.404   0.090   0.930  0.00  0.00    +0.006 A 
ATOM     17  C   UNL     1      -2.961  -0.621   1.976  0.00  0.00    +0.000 A 
ATOM     18  C   UNL     1      -2.968  -0.084   3.250  0.00  0.00    +0.000 A 
ATOM     19  C   UNL     1      -2.415   1.163   3.478  0.00  0.00    +0.000 A 
ATOM     20  C   UNL     1      -1.854   1.871   2.432  0.00  0.00    +0.006 A 
ENDBRANCH   4  15
BRANCH   1  21
ATOM     21  C   UNL     1       2.195   1.381  -1.209  0.00  0.00    +0.043 C 
BRANCH  21  23
ATOM     22  C   UNL     1       1.560   1.175  -3.536  0.00  0.00    -0.093 C 
ATOM     23  N   UNL     1       2.340   1.963  -2.559  0.00  0.00    +0.391 N 
ATOM     24  H   UNL     1       1.983   2.926  -2.547  0.00  0.00    -0.079 HD
BRANCH  23  25
ATOM     25  C   UNL     1       3.765   1.985  -2.950  0.00  0.00    -0.039 C 
BRANCH  25  26
ATOM     26  C   UNL     1       3.908   2.778  -4.224  0.00  0.00    -0.043 A 
ATOM     27  C   UNL     1       4.045   2.124  -5.433  0.00  0.00    +0.003 A 
ATOM     28  C   UNL     1       4.171   2.851  -6.603  0.00  0.00    +0.000 A 
ATOM     29  C   UNL     1       4.172   4.234  -6.565  0.00  0.00    +0.002 A 
ATOM     30  C   UNL     1       4.041   4.893  -5.358  0.00  0.00    +0.023 A 
ATOM     31  C   UNL     1       3.909   4.166  -4.182  0.00  0.00    +0.031 A 
BRANCH  31  32
ATOM     32  N   UNL     1       3.776   4.830  -2.960  0.00  0.00    -0.330 N 
ATOM     33  C   UNL     1       2.532   5.609  -2.916  0.00  0.00    +0.105 C 
ATOM     34  C   UNL     1       2.349   6.202  -1.518  0.00  0.00    +0.019 C 
ATOM     35  C   UNL     1       3.547   7.098  -1.188  0.00  0.00    +0.003 C 
ATOM     36  C   UNL     1       4.833   6.274  -1.288  0.00  0.00    +0.019 C 
ATOM     37  C   UNL     1       4.944   5.678  -2.693  0.00  0.00    +0.105 C 
ENDBRANCH  31  32
ENDBRANCH  25  26
ENDBRANCH  23  25
ENDBRANCH  21  23
ENDBRANCH   1  21
TORSDOF 7
