REMARK  Name = ZINC41585538
REMARK  9 active torsions:
REMARK  status: ('A' for Active; 'I' for Inactive)
REMARK    1  A    between atoms: C_1  and  C_2
REMARK    2  A    between atoms: C_4  and  O_36
REMARK    3  A    between atoms: C_5  and  C_22
REMARK    4  A    between atoms: C_11  and  C_12
REMARK    5  A    between atoms: C_15  and  C_18
REMARK    6  A    between atoms: C_18  and  C_19
REMARK    7  A    between atoms: C_18  and  C_20
REMARK    8  A    between atoms: C_22  and  N_23
REMARK    9  A    between atoms: N_26  and  C_29
REMARK                            x       y       z     vdW  Elec       q    Type
REMARK                         _______ _______ _______ _____ _____    ______ ____
ROOT
ATOM      1  C   UNL     1      -1.298   1.286   0.075  0.00  0.00    +0.045 C 
ATOM      2  C   UNL     1      -1.025  -0.196   0.084  0.00  0.00    -0.033 A 
ATOM      3  C   UNL     1      -1.094  -0.912  -1.078  0.00  0.00    +0.050 A 
ATOM      4  C   UNL     1      -0.842  -2.281  -1.072  0.00  0.00    +0.122 A 
ATOM      5  C   UNL     1      -0.519  -2.933   0.108  0.00  0.00    +0.020 A 
ATOM      6  C   UNL     1      -0.445  -2.220   1.298  0.00  0.00    +0.145 A 
ATOM      7  C   UNL     1      -0.696  -0.839   1.278  0.00  0.00    +0.071 A 
ATOM      8  C   UNL     1      -0.537  -0.368   2.666  0.00  0.00    +0.232 C 
ATOM      9  O   UNL     1      -0.671   0.767   3.089  0.00  0.00    -0.283 OA
ATOM     10  C   UNL     1      -0.181  -1.576   3.427  0.00  0.00    +0.176 C 
ATOM     11  C   UNL     1       0.067  -1.641   4.759  0.00  0.00    +0.058 C 
ATOM     12  O   UNL     1      -0.155  -2.614   2.557  0.00  0.00    -0.451 OA
ENDROOT
BRANCH  11  13
ATOM     13  C   UNL     1       0.163  -0.406   5.549  0.00  0.00    -0.021 A 
ATOM     14  C   UNL     1      -0.343  -0.364   6.854  0.00  0.00    +0.008 A 
ATOM     15  C   UNL     1      -0.248   0.799   7.588  0.00  0.00    +0.004 A 
ATOM     16  C   UNL     1       0.344   1.923   7.039  0.00  0.00    -0.045 A 
ATOM     17  C   UNL     1       0.847   1.890   5.750  0.00  0.00    +0.004 A 
ATOM     18  C   UNL     1       0.765   0.734   5.004  0.00  0.00    +0.008 A 
BRANCH  16  19
ATOM     19  C   UNL     1       0.443   3.190   7.850  0.00  0.00    +0.013 C 
ATOM     20  C   UNL     1       1.914   3.577   8.013  0.00  0.00    +0.012 C 
ATOM     21  C   UNL     1      -0.304   4.315   7.130  0.00  0.00    +0.012 C 
ENDBRANCH  16  19
ENDBRANCH  11  13
BRANCH   4  22
ATOM     22  O   UNL     1      -0.913  -2.983  -2.231  0.00  0.00    -0.506 OA
ATOM     23  H   UNL     1      -0.077  -3.030  -2.715  0.00  0.00    +0.292 HD
ENDBRANCH   4  22
BRANCH   5  24
ATOM     24  C   UNL     1      -0.249  -4.416   0.099  0.00  0.00    -0.035 C 
BRANCH  24  25
ATOM     25  N   UNL     1       1.182  -4.652  -0.135  0.00  0.00    +0.385 N 
ATOM     26  C   UNL     1       1.542  -4.173  -1.476  0.00  0.00    -0.059 C 
ATOM     27  C   UNL     1       3.054  -4.314  -1.679  0.00  0.00    +0.086 C 
ATOM     28  N   UNL     1       3.433  -5.710  -1.410  0.00  0.00    -0.333 N 
ATOM     29  C   UNL     1       2.972  -6.324  -0.155  0.00  0.00    +0.086 C 
ATOM     30  C   UNL     1       1.464  -6.088  -0.024  0.00  0.00    -0.059 C 
ATOM     31  H   UNL     1       1.721  -4.150   0.554  0.00  0.00    -0.081 HD
BRANCH  28  32
ATOM     32  C   UNL     1       4.209  -6.432  -2.321  0.00  0.00    +0.030 A 
ATOM     33  C   UNL     1       4.739  -5.799  -3.438  0.00  0.00    +0.026 A 
ATOM     34  C   UNL     1       5.506  -6.515  -4.336  0.00  0.00    +0.040 A 
ATOM     35  C   UNL     1       5.748  -7.862  -4.124  0.00  0.00    +0.124 A 
ATOM     36  C   UNL     1       5.221  -8.494  -3.011  0.00  0.00    +0.040 A 
ATOM     37  C   UNL     1       4.457  -7.782  -2.107  0.00  0.00    +0.026 A 
ATOM     38  F   UNL     1       6.498  -8.559  -5.004  0.00  0.00    -0.205 F 
ENDBRANCH  28  32
ENDBRANCH  24  25
ENDBRANCH   5  24
TORSDOF 6
