REMARK  Name = ZINC07278767
REMARK  5 active torsions:
REMARK  status: ('A' for Active; 'I' for Inactive)
REMARK    1  A    between atoms: C_1  and  N_2
REMARK    2  A    between atoms: C_3  and  C_5
REMARK    3  A    between atoms: C_8  and  N_11
REMARK    4  A    between atoms: C_12  and  C_14
REMARK    5  A    between atoms: C_14  and  N_15
REMARK                            x       y       z     vdW  Elec       q    Type
REMARK                         _______ _______ _______ _____ _____    ______ ____
ROOT
ATOM      1  C   UNL     1      -1.925  -2.095  -2.407  0.00  0.00    +0.214 C 
ENDROOT
BRANCH   1   2
ATOM      2  N   UNL     1      -1.537  -1.454  -1.149  0.00  0.00    -0.215 N 
ATOM      3  C   UNL     1      -0.417  -0.716  -0.986  0.00  0.00    +0.251 C 
ATOM      4  O   UNL     1       0.427  -0.467  -1.819  0.00  0.00    -0.272 OA
ATOM      5  C   UNL     1      -0.442  -0.270   0.453  0.00  0.00    +0.138 C 
ATOM      6  C   UNL     1      -0.449   1.261   0.559  0.00  0.00    +0.045 C 
ATOM      7  C   UNL     1       1.049   1.579   0.770  0.00  0.00    +0.038 C 
ATOM      8  C   UNL     1       1.638   0.329   1.390  0.00  0.00    -0.042 A 
ATOM      9  C   UNL     1       0.775  -0.739   1.202  0.00  0.00    -0.012 A 
ATOM     10  C   UNL     1       1.117  -1.990   1.687  0.00  0.00    +0.006 A 
ATOM     11  C   UNL     1       2.310  -2.176   2.358  0.00  0.00    +0.000 A 
ATOM     12  C   UNL     1       3.168  -1.110   2.547  0.00  0.00    +0.000 A 
ATOM     13  C   UNL     1       2.832   0.139   2.063  0.00  0.00    +0.004 A 
ATOM     14  N   UNL     1      -1.671  -0.848   0.997  0.00  0.00    -0.281 N 
ATOM     15  C   UNL     1      -2.248  -1.526  -0.016  0.00  0.00    +0.310 C 
ATOM     16  O   UNL     1      -3.295  -2.135   0.088  0.00  0.00    -0.252 OA
ATOM     17  H   UNL     1      -2.004  -0.761   1.904  0.00  0.00    +0.152 HD
ENDBRANCH   1   2
BRANCH   1  19
ATOM     18  N   UNL     1      -1.570  -4.266  -3.538  0.00  0.00    -0.284 N 
ATOM     19  C   UNL     1      -1.343  -3.484  -2.464  0.00  0.00    +0.235 C 
ATOM     20  O   UNL     1      -0.669  -3.897  -1.544  0.00  0.00    -0.274 OA
ATOM     21  H   UNL     1      -2.170  -3.966  -4.239  0.00  0.00    +0.155 HD
BRANCH  18  25
ATOM     22  C   UNL     1       0.305  -7.973  -3.848  0.00  0.00    +0.037 A 
ATOM     23  C   UNL     1      -0.981  -7.794  -4.364  0.00  0.00    +0.015 A 
ATOM     24  C   UNL     1      -1.598  -6.567  -4.260  0.00  0.00    +0.024 A 
ATOM     25  C   UNL     1      -0.942  -5.508  -3.641  0.00  0.00    +0.033 A 
ATOM     26  C   UNL     1       0.340  -5.681  -3.131  0.00  0.00    +0.024 A 
ATOM     27  C   UNL     1       0.961  -6.907  -3.227  0.00  0.00    +0.015 A 
BRANCH  22  30
ATOM     28  C   UNL     1       2.869 -10.762  -3.568  0.00  0.00    +0.128 C 
ATOM     29  N   UNL     1       2.210  -9.458  -3.459  0.00  0.00    -0.314 N 
ATOM     30  C   UNL     1       0.970  -9.287  -3.958  0.00  0.00    +0.244 C 
ATOM     31  O   UNL     1       0.398 -10.214  -4.497  0.00  0.00    -0.270 OA
ATOM     32  H   UNL     1       2.666  -8.719  -3.028  0.00  0.00    +0.149 HD
ENDBRANCH  22  30
ENDBRANCH  18  25
ENDBRANCH   1  19
TORSDOF 4
