REMARK  Name = ZINC67065062
REMARK  11 active torsions:
REMARK  status: ('A' for Active; 'I' for Inactive)
REMARK    1  A    between atoms: C_1  and  C_2
REMARK    2  A    between atoms: C_2  and  C_4
REMARK    3  A    between atoms: C_2  and  N_18
REMARK    4  A    between atoms: C_7  and  N_11
REMARK    5  A    between atoms: N_14  and  C_17
REMARK    6  A    between atoms: N_21  and  N_22
REMARK    7  A    between atoms: C_23  and  C_25
REMARK    8  A    between atoms: C_25  and  C_26
REMARK    9  A    between atoms: C_26  and  C_27
REMARK   10  A    between atoms: C_27  and  C_28
REMARK   11  A    between atoms: C_27  and  C_29
REMARK                            x       y       z     vdW  Elec       q    Type
REMARK                         _______ _______ _______ _____ _____    ______ ____
ROOT
ATOM      1  C   UNL     1      -0.019   1.526   0.010  0.00  0.00    +0.033 C 
ATOM      2  C   UNL     1       0.002  -0.004   0.002  0.00  0.00    +0.102 C 
ENDROOT
BRANCH   2   3
ATOM      3  C   UNL     1      -1.412  -0.526   0.013  0.00  0.00    -0.025 A 
ATOM      4  C   UNL     1      -2.121  -0.570   1.199  0.00  0.00    +0.007 A 
ATOM      5  C   UNL     1      -3.418  -1.048   1.213  0.00  0.00    +0.026 A 
ATOM      6  C   UNL     1      -4.009  -1.484   0.035  0.00  0.00    +0.065 A 
ATOM      7  C   UNL     1      -3.293  -1.438  -1.157  0.00  0.00    +0.145 A 
ATOM      8  C   UNL     1      -1.998  -0.953  -1.164  0.00  0.00    +0.045 A 
ATOM      9  F   UNL     1      -3.864  -1.861  -2.306  0.00  0.00    -0.204 F 
BRANCH   6  10
ATOM     10  N   UNL     1      -5.321  -1.969   0.046  0.00  0.00    -0.331 N 
ATOM     11  C   UNL     1      -5.598  -3.395   0.273  0.00  0.00    +0.086 C 
ATOM     12  C   UNL     1      -6.539  -3.889  -0.831  0.00  0.00    -0.060 C 
ATOM     13  N   UNL     1      -7.735  -3.038  -0.870  0.00  0.00    +0.380 N 
ATOM     14  C   UNL     1      -7.362  -1.669  -1.250  0.00  0.00    -0.060 C 
ATOM     15  C   UNL     1      -6.463  -1.065  -0.161  0.00  0.00    +0.086 C 
ATOM     16  C   UNL     1      -8.685  -3.576  -1.853  0.00  0.00    -0.096 C 
ATOM     17  H   UNL     1      -8.168  -3.026   0.041  0.00  0.00    -0.082 HD
ENDBRANCH   6  10
ENDBRANCH   2   3
BRANCH   2  18
ATOM     18  N   UNL     1       0.711  -0.489   1.189  0.00  0.00    -0.292 N 
ATOM     19  C   UNL     1       2.054  -0.600   1.174  0.00  0.00    +0.316 C 
ATOM     20  O   UNL     1       2.677  -0.297   0.175  0.00  0.00    -0.251 OA
ATOM     21  N   UNL     1       2.706  -1.046   2.266  0.00  0.00    -0.218 N 
ATOM     22  H   UNL     1       0.213  -0.731   1.986  0.00  0.00    +0.151 HD
ATOM     23  H   UNL     1       3.672  -1.126   2.255  0.00  0.00    +0.174 HD
BRANCH  21  24
ATOM     24  N   UNL     1       1.987  -1.396   3.416  0.00  0.00    -0.233 N 
ATOM     25  C   UNL     1       2.639  -1.842   4.508  0.00  0.00    +0.229 C 
ATOM     26  O   UNL     1       3.848  -1.941   4.495  0.00  0.00    -0.274 OA
ATOM     27  H   UNL     1       1.020  -1.316   3.427  0.00  0.00    +0.173 HD
BRANCH  25  28
ATOM     28  C   UNL     1       1.866  -2.218   5.746  0.00  0.00    +0.097 C 
BRANCH  28  29
ATOM     29  C   UNL     1       2.837  -2.689   6.830  0.00  0.00    +0.012 C 
BRANCH  29  30
ATOM     30  C   UNL     1       2.052  -3.071   8.087  0.00  0.00    -0.017 C 
ATOM     31  C   UNL     1       1.164  -4.279   7.786  0.00  0.00    +0.007 C 
ATOM     32  C   UNL     1       3.029  -3.422   9.211  0.00  0.00    +0.007 C 
ENDBRANCH  29  30
ENDBRANCH  28  29
ENDBRANCH  25  28
ENDBRANCH  21  24
ENDBRANCH   2  18
TORSDOF 7
