REMARK  Name = ZINC37398462
REMARK  11 active torsions:
REMARK  status: ('A' for Active; 'I' for Inactive)
REMARK    1  A    between atoms: C_1  and  C_2
REMARK    2  A    between atoms: C_2  and  C_3
REMARK    3  A    between atoms: C_3  and  C_5
REMARK    4  A    between atoms: C_3  and  N_6
REMARK    5  A    between atoms: C_7  and  C_9
REMARK    6  A    between atoms: C_12  and  C_15
REMARK    7  A    between atoms: C_15  and  S_16
REMARK    8  A    between atoms: S_16  and  C_17
REMARK    9  A    between atoms: C_20  and  C_29
REMARK   10  A    between atoms: N_21  and  C_22
REMARK   11  A    between atoms: C_25  and  C_28
REMARK                            x       y       z     vdW  Elec       q    Type
REMARK                         _______ _______ _______ _____ _____    ______ ____
ROOT
ATOM      1  C   UNL     1      -6.917   3.496   7.922  0.00  0.00    +0.197 A 
ATOM      2  N   UNL     1      -7.281   2.579   8.790  0.00  0.00    -0.122 NA
ATOM      3  N   UNL     1      -7.826   3.130   9.815  0.00  0.00    -0.127 NA
ATOM      4  C   UNL     1      -7.846   4.436   9.667  0.00  0.00    +0.176 A 
ATOM      5  N   UNL     1      -7.258   4.713   8.450  0.00  0.00    -0.270 N 
ENDROOT
BRANCH   5   6
ATOM      6  C   UNL     1      -7.055   5.974   7.873  0.00  0.00    +0.051 A 
ATOM      7  C   UNL     1      -6.190   6.881   8.471  0.00  0.00    +0.026 A 
ATOM      8  C   UNL     1      -5.991   8.123   7.900  0.00  0.00    +0.005 A 
ATOM      9  C   UNL     1      -6.653   8.463   6.735  0.00  0.00    -0.050 A 
ATOM     10  C   UNL     1      -7.516   7.563   6.138  0.00  0.00    +0.005 A 
ATOM     11  C   UNL     1      -7.714   6.317   6.701  0.00  0.00    +0.026 A 
ATOM     12  C   UNL     1      -6.434   9.819   6.115  0.00  0.00    +0.044 C 
ENDBRANCH   5   6
BRANCH   4  13
ATOM     13  C   UNL     1      -8.388   5.417  10.620  0.00  0.00    +0.057 A 
ATOM     14  C   UNL     1      -8.715   5.249  11.942  0.00  0.00    +0.019 A 
ATOM     15  C   UNL     1      -9.211   6.326  12.642  0.00  0.00    +0.008 A 
ATOM     16  C   UNL     1      -9.361   7.517  12.007  0.00  0.00    +0.046 A 
ATOM     17  S   UNL     1      -8.784   7.139  10.361  0.00  0.00    -0.094 S 
ENDBRANCH   4  13
BRANCH   1  18
ATOM     18  S   UNL     1      -6.131   3.213   6.371  0.00  0.00    -0.081 S 
BRANCH  18  19
ATOM     19  C   UNL     1      -5.970   1.408   6.284  0.00  0.00    +0.112 C 
BRANCH  19  23
ATOM     20  C   UNL     1      -4.078   0.322   2.606  0.00  0.00    +0.037 A 
ATOM     21  C   UNL     1      -3.308   0.570   3.743  0.00  0.00    +0.013 A 
ATOM     22  C   UNL     1      -3.925   0.921   4.927  0.00  0.00    +0.005 A 
ATOM     23  C   UNL     1      -5.303   1.025   4.987  0.00  0.00    -0.037 A 
ATOM     24  C   UNL     1      -6.072   0.780   3.864  0.00  0.00    +0.005 A 
ATOM     25  C   UNL     1      -5.467   0.435   2.672  0.00  0.00    +0.013 A 
BRANCH  20  27
ATOM     26  N   UNL     1      -2.082  -0.162   1.273  0.00  0.00    -0.309 N 
ATOM     27  C   UNL     1      -3.424  -0.053   1.334  0.00  0.00    +0.244 C 
ATOM     28  O   UNL     1      -4.096  -0.264   0.344  0.00  0.00    -0.270 OA
ATOM     29  H   UNL     1      -1.545   0.006   2.063  0.00  0.00    +0.149 HD
BRANCH  26  30
ATOM     30  C   UNL     1      -1.433  -0.534   0.013  0.00  0.00    +0.070 C 
ATOM     31  C   UNL     1      -1.416  -2.058  -0.121  0.00  0.00    +0.028 C 
BRANCH  30  33
ATOM     32  C   UNL     1      -0.019   1.526   0.010  0.00  0.00    +0.005 C 
ATOM     33  C   UNL     1       0.002  -0.004   0.002  0.00  0.00    +0.018 C 
ENDBRANCH  30  33
ENDBRANCH  26  30
ENDBRANCH  20  27
ENDBRANCH  19  23
ENDBRANCH  18  19
ENDBRANCH   1  18
TORSDOF 8
