REMARK  Name = ZINC16557565
REMARK  9 active torsions:
REMARK  status: ('A' for Active; 'I' for Inactive)
REMARK    1  A    between atoms: C_1  and  C_2
REMARK    2  A    between atoms: C_2  and  N_51
REMARK    3  A    between atoms: C_3  and  C_4
REMARK    4  A    between atoms: C_3  and  N_51
REMARK    5  A    between atoms: C_13  and  C_15
REMARK    6  A    between atoms: C_17  and  C_18
REMARK    7  A    between atoms: C_17  and  N_51
REMARK    8  A    between atoms: N_20  and  C_21
REMARK    9  A    between atoms: C_26  and  C_27
REMARK                            x       y       z     vdW  Elec       q    Type
REMARK                         _______ _______ _______ _____ _____    ______ ____
ROOT
ATOM      1  N   UNL     1       3.306   7.574  -0.374  0.00  0.00    +0.388 N 
ATOM      2  H   UNL     1       2.700   7.765  -1.181  0.00  0.00    -0.081 HD
ENDROOT
BRANCH   1   4
ATOM      3  C   UNL     1       2.237   9.581   0.527  0.00  0.00    -0.017 C 
ATOM      4  C   UNL     1       2.688   8.152   0.838  0.00  0.00    -0.081 C 
ENDBRANCH   1   4
BRANCH   1   5
ATOM      5  C   UNL     1       4.628   8.191  -0.610  0.00  0.00    -0.041 C 
BRANCH   5   6
ATOM      6  C   UNL     1       5.106   7.802  -1.985  0.00  0.00    -0.046 A 
ATOM      7  C   UNL     1       6.047   6.838  -2.149  0.00  0.00    +0.094 A 
ATOM      8  C   UNL     1       6.476   6.490  -3.449  0.00  0.00    +0.337 A 
ATOM      9  O   UNL     1       7.318   5.621  -3.583  0.00  0.00    -0.245 OA
ATOM     10  O   UNL     1       5.982   7.096  -4.540  0.00  0.00    -0.422 OA
ATOM     11  C   UNL     1       5.047   8.065  -4.445  0.00  0.00    +0.140 A 
ATOM     12  C   UNL     1       4.572   8.459  -3.182  0.00  0.00    +0.020 A 
ATOM     13  C   UNL     1       3.606   9.464  -3.081  0.00  0.00    +0.032 A 
ATOM     14  C   UNL     1       3.124  10.063  -4.225  0.00  0.00    +0.045 A 
ATOM     15  C   UNL     1       3.595   9.672  -5.471  0.00  0.00    -0.029 A 
ATOM     16  C   UNL     1       4.549   8.683  -5.585  0.00  0.00    +0.051 A 
ATOM     17  C   UNL     1       3.058  10.337  -6.713  0.00  0.00    +0.045 C 
ATOM     18 CL   UNL     1       1.924  11.311  -4.107  0.00  0.00    -0.083 Cl
ENDBRANCH   5   6
ENDBRANCH   1   5
BRANCH   1  19
ATOM     19  C   UNL     1       3.451   6.111  -0.219  0.00  0.00    +0.019 C 
BRANCH  19  20
ATOM     20  C   UNL     1       2.079   5.486  -0.201  0.00  0.00    +0.201 C 
ATOM     21  O   UNL     1       1.093   6.186  -0.290  0.00  0.00    -0.278 OA
ATOM     22  N   UNL     1       1.950   4.150  -0.086  0.00  0.00    -0.287 N 
ATOM     23  H   UNL     1       2.734   3.597   0.059  0.00  0.00    +0.155 HD
BRANCH  22  24
ATOM     24  C   UNL     1       0.684   3.559  -0.175  0.00  0.00    +0.038 A 
ATOM     25  C   UNL     1      -0.358   4.238  -0.793  0.00  0.00    +0.043 A 
ATOM     26  C   UNL     1      -1.607   3.652  -0.879  0.00  0.00    +0.043 A 
ATOM     27  C   UNL     1      -1.817   2.388  -0.355  0.00  0.00    +0.020 A 
ATOM     28  C   UNL     1      -0.782   1.713   0.265  0.00  0.00    +0.006 A 
ATOM     29  C   UNL     1       0.468   2.294   0.354  0.00  0.00    -0.029 A 
ATOM     30  C   UNL     1       1.597   1.554   1.024  0.00  0.00    +0.045 C 
ATOM     31 CL   UNL     1      -2.911   4.500  -1.651  0.00  0.00    -0.083 Cl
ENDBRANCH  22  24
ENDBRANCH  19  20
ENDBRANCH   1  19
TORSDOF 6
