REMARK  Name = ZINC42601304
REMARK  7 active torsions:
REMARK  status: ('A' for Active; 'I' for Inactive)
REMARK    1  A    between atoms: C_1  and  C_2
REMARK    2  A    between atoms: C_8  and  N_10
REMARK    3  A    between atoms: N_10  and  C_11
REMARK    4  A    between atoms: N_10  and  C_12
REMARK    5  A    between atoms: C_12  and  C_13
REMARK    6  A    between atoms: N_15  and  C_16
REMARK    7  A    between atoms: C_19  and  N_23
REMARK                            x       y       z     vdW  Elec       q    Type
REMARK                         _______ _______ _______ _____ _____    ______ ____
ROOT
ATOM      1  C   UNL     1       0.271  -0.006   5.127  0.00  0.00    +0.201 C 
ATOM      2  O   UNL     1      -0.904   0.291   5.190  0.00  0.00    -0.278 OA
ATOM      3  N   UNL     1       1.016  -0.050   6.250  0.00  0.00    -0.286 N 
ATOM      4  H   UNL     1       1.939  -0.345   6.208  0.00  0.00    +0.155 HD
ENDROOT
BRANCH   3   5
ATOM      5  C   UNL     1       0.456   0.330   7.478  0.00  0.00    +0.052 A 
ATOM      6  C   UNL     1      -0.912   0.212   7.684  0.00  0.00    +0.026 A 
ATOM      7  C   UNL     1      -1.463   0.587   8.893  0.00  0.00    +0.024 A 
ATOM      8  C   UNL     1      -0.649   1.082   9.904  0.00  0.00    +0.026 A 
ATOM      9  C   UNL     1       0.720   1.199   9.699  0.00  0.00    +0.044 A 
ATOM     10  C   UNL     1       1.272   0.819   8.491  0.00  0.00    +0.064 A 
ATOM     11 CL   UNL     1       2.983   0.960   8.236  0.00  0.00    -0.082 Cl
BRANCH   8  12
ATOM     12  N   UNL     1      -1.208   1.462  11.129  0.00  0.00    -0.358 N 
ATOM     13  H   UNL     1      -2.164   1.380  11.272  0.00  0.00    +0.142 HD
ATOM     14  H   UNL     1      -0.639   1.807  11.835  0.00  0.00    +0.142 HD
ENDBRANCH   8  12
ENDBRANCH   3   5
BRANCH   1  15
ATOM     15  C   UNL     1       0.896  -0.326   3.794  0.00  0.00    +0.019 C 
BRANCH  15  16
ATOM     16  N   UNL     1      -0.116  -0.208   2.737  0.00  0.00    +0.386 N 
ATOM     17  C   UNL     1      -0.556   1.190   2.634  0.00  0.00    -0.095 C 
ATOM     18  H   UNL     1      -0.907  -0.794   2.961  0.00  0.00    -0.081 HD
BRANCH  16  25
ATOM     19  C   UNL     1      -0.494  -2.920   1.786  0.00  0.00    +0.006 C 
ATOM     20  C   UNL     1       0.787  -2.129   1.516  0.00  0.00    -0.028 C 
ATOM     21  C   UNL     1       1.389  -2.574   0.181  0.00  0.00    +0.002 C 
ATOM     22  C   UNL     1       2.671  -1.783  -0.089  0.00  0.00    +0.000 C 
ATOM     23  C   UNL     1       2.345  -0.289  -0.150  0.00  0.00    -0.002 C 
ATOM     24  C   UNL     1       1.743   0.156   1.185  0.00  0.00    -0.015 C 
ATOM     25  C   UNL     1       0.461  -0.635   1.456  0.00  0.00    -0.065 C 
ENDBRANCH  16  25
ENDBRANCH  15  16
ENDBRANCH   1  15
TORSDOF 5
