REMARK  Name = ZINC06820718
REMARK  4 active torsions:
REMARK  status: ('A' for Active; 'I' for Inactive)
REMARK    1  A    between atoms: C_1  and  C_2
REMARK    2  A    between atoms: C_2  and  C_4
REMARK    3  A    between atoms: N_6  and  C_23
REMARK    4  A    between atoms: N_13  and  C_16
REMARK                            x       y       z     vdW  Elec       q    Type
REMARK                         _______ _______ _______ _____ _____    ______ ____
ROOT
ATOM      1  C   UNL     1      -1.208  -0.725   0.010  0.00  0.00    +0.116 C 
ATOM      2  N   UNL     1      -2.447  -0.232   0.018  0.00  0.00    -0.179 NA
ATOM      3  N   UNL     1      -3.386  -1.134  -0.096  0.00  0.00    -0.210 N 
ATOM      4  C   UNL     1      -2.777  -2.307  -0.697  0.00  0.00    +0.202 C 
ATOM      5  C   UNL     1      -1.376  -2.148   0.004  0.00  0.00    +0.161 C 
ATOM      6  C   UNL     1      -0.788  -3.439  -0.203  0.00  0.00    +0.238 C 
ATOM      7  O   UNL     1       0.387  -3.695  -0.360  0.00  0.00    -0.274 OA
ATOM      8  N   UNL     1      -1.839  -4.324  -0.186  0.00  0.00    -0.208 N 
ATOM      9  C   UNL     1      -3.069  -3.694  -0.211  0.00  0.00    +0.250 C 
ATOM     10  O   UNL     1      -4.150  -4.153   0.087  0.00  0.00    -0.273 OA
ENDROOT
BRANCH   8  11
ATOM     11  C   UNL     1      -1.685  -5.717  -0.152  0.00  0.00    +0.045 A 
ATOM     12  C   UNL     1      -2.803  -6.540  -0.143  0.00  0.00    +0.024 A 
ATOM     13  C   UNL     1      -2.649  -7.912  -0.110  0.00  0.00    +0.003 A 
ATOM     14  C   UNL     1      -1.382  -8.467  -0.086  0.00  0.00    +0.020 A 
ATOM     15  C   UNL     1      -0.266  -7.650  -0.095  0.00  0.00    +0.043 A 
ATOM     16  C   UNL     1      -0.414  -6.276  -0.133  0.00  0.00    +0.044 A 
ATOM     17 CL   UNL     1       1.322  -8.350  -0.064  0.00  0.00    -0.083 Cl
ENDBRANCH   8  11
BRANCH   3  18
ATOM     18  C   UNL     1      -4.721  -0.995   0.288  0.00  0.00    +0.071 A 
ATOM     19  C   UNL     1      -5.738  -1.230  -0.630  0.00  0.00    +0.026 A 
ATOM     20  C   UNL     1      -7.057  -1.093  -0.247  0.00  0.00    +0.002 A 
ATOM     21  C   UNL     1      -7.369  -0.721   1.048  0.00  0.00    +0.002 A 
ATOM     22  C   UNL     1      -6.361  -0.486   1.965  0.00  0.00    +0.022 A 
ATOM     23  C   UNL     1      -5.038  -0.627   1.591  0.00  0.00    +0.064 A 
ATOM     24 CL   UNL     1      -3.772  -0.339   2.744  0.00  0.00    -0.082 Cl
ENDBRANCH   3  18
BRANCH   1  26
ATOM     25  C   UNL     1      -0.018   1.503   0.010  0.00  0.00    +0.093 C 
ATOM     26  C   UNL     1       0.002  -0.004   0.002  0.00  0.00    +0.176 C 
ATOM     27  O   UNL     1       1.062  -0.597  -0.011  0.00  0.00    -0.291 OA
ENDBRANCH   1  26
TORSDOF 3
