REMARK  Name = ZINC33726816
REMARK  9 active torsions:
REMARK  status: ('A' for Active; 'I' for Inactive)
REMARK    1  A    between atoms: C_1  and  C_2
REMARK    2  A    between atoms: C_2  and  C_3
REMARK    3  A    between atoms: C_4  and  C_30
REMARK    4  A    between atoms: C_5  and  N_10
REMARK    5  A    between atoms: C_7  and  C_9
REMARK    6  A    between atoms: N_19  and  C_20
REMARK    7  A    between atoms: C_25  and  C_26
REMARK    8  A    between atoms: C_30  and  C_31
REMARK    9  A    between atoms: C_34  and  C_37
REMARK                            x       y       z     vdW  Elec       q    Type
REMARK                         _______ _______ _______ _____ _____    ______ ____
ROOT
ATOM      1  N   UNL     1      -5.841   0.960  -2.341  0.00  0.00    -0.313 N 
ATOM      2  C   UNL     1      -6.256  -0.352  -2.836  0.00  0.00    +0.108 C 
ATOM      3  C   UNL     1      -5.337  -1.452  -2.490  0.00  0.00    +0.038 C 
ATOM      4  C   UNL     1      -5.262  -1.608  -0.951  0.00  0.00    +0.111 C 
ATOM      5  N   UNL     1      -4.573  -0.469  -0.383  0.00  0.00    -0.284 N 
ATOM      6  C   UNL     1      -5.270   0.766   0.032  0.00  0.00    +0.128 C 
ATOM      7  C   UNL     1      -6.340   1.182  -1.000  0.00  0.00    +0.125 C 
ATOM      8  C   UNL     1      -3.237  -0.541  -0.220  0.00  0.00    +0.307 C 
ATOM      9  O   UNL     1      -2.642   0.365   0.332  0.00  0.00    -0.252 OA
ATOM     10  N   UNL     1      -2.560  -1.616  -0.669  0.00  0.00    -0.269 N 
ATOM     11  H   UNL     1      -3.087  -2.404  -1.227  0.00  0.00    +0.156 HD
ENDROOT
BRANCH   1  14
ATOM     12  C   UNL     1      -6.011   4.151  -4.126  0.00  0.00    +0.024 A 
ATOM     13  C   UNL     1      -5.563   3.180  -3.252  0.00  0.00    +0.016 A 
ATOM     14  C   UNL     1      -6.254   1.968  -3.197  0.00  0.00    +0.128 A 
ATOM     15  N   UNL     1      -7.318   1.798  -3.977  0.00  0.00    -0.219 NA
ATOM     16  C   UNL     1      -7.714   2.755  -4.792  0.00  0.00    +0.106 A 
ATOM     17  N   UNL     1      -7.080   3.908  -4.870  0.00  0.00    -0.347 N 
ATOM     18  C   UNL     1      -8.925   2.524  -5.659  0.00  0.00    +0.086 C 
ATOM     19  H   UNL     1      -7.451   4.673  -5.568  0.00  0.00    +0.167 HD
BRANCH  12  21
ATOM     20  C   UNL     1      -5.847   6.433  -3.170  0.00  0.00    +0.010 C 
ATOM     21  C   UNL     1      -5.297   5.474  -4.227  0.00  0.00    +0.050 C 
ENDBRANCH  12  21
BRANCH  13  22
ATOM     22  C   UNL     1      -4.355   3.420  -2.384  0.00  0.00    +0.075 C 
BRANCH  22  23
ATOM     23  C   UNL     1      -3.135   2.833  -3.046  0.00  0.00    -0.043 A 
ATOM     24  C   UNL     1      -2.777   1.521  -2.796  0.00  0.00    +0.004 A 
ATOM     25  C   UNL     1      -1.661   0.981  -3.407  0.00  0.00    +0.003 A 
ATOM     26  C   UNL     1      -0.898   1.755  -4.261  0.00  0.00    -0.050 A 
ATOM     27  C   UNL     1      -1.253   3.068  -4.508  0.00  0.00    +0.003 A 
ATOM     28  C   UNL     1      -2.372   3.607  -3.900  0.00  0.00    +0.004 A 
ATOM     29  C   UNL     1       0.322   1.168  -4.924  0.00  0.00    +0.044 C 
ENDBRANCH  22  23
ENDBRANCH  13  22
ENDBRANCH   1  14
BRANCH  10  30
ATOM     30  C   UNL     1      -1.187  -1.730  -0.426  0.00  0.00    +0.046 A 
ATOM     31  C   UNL     1      -0.411  -0.589  -0.266  0.00  0.00    +0.024 A 
ATOM     32  C   UNL     1       0.944  -0.705  -0.026  0.00  0.00    +0.002 A 
ATOM     33  C   UNL     1       1.529  -1.955   0.055  0.00  0.00    +0.001 A 
ATOM     34  C   UNL     1       0.759  -3.093  -0.099  0.00  0.00    +0.014 A 
ATOM     35  C   UNL     1      -0.596  -2.984  -0.345  0.00  0.00    +0.076 A 
BRANCH  35  36
ATOM     36  C   UNL     1      -1.434  -4.225  -0.518  0.00  0.00    +0.419 C 
ATOM     37  F   UNL     1      -0.621  -5.357  -0.394  0.00  0.00    -0.166 F 
ATOM     38  F   UNL     1      -2.429  -4.256   0.465  0.00  0.00    -0.166 F 
ATOM     39  F   UNL     1      -2.028  -4.213  -1.784  0.00  0.00    -0.166 F 
ENDBRANCH  35  36
ENDBRANCH  10  30
TORSDOF 6
