REMARK  Name = ZINC31155434
REMARK  11 active torsions:
REMARK  status: ('A' for Active; 'I' for Inactive)
REMARK    1  A    between atoms: C_1  and  C_2
REMARK    2  A    between atoms: C_5  and  N_9
REMARK    3  A    between atoms: C_10  and  C_12
REMARK    4  A    between atoms: C_12  and  C_14
REMARK    5  A    between atoms: C_12  and  N_15
REMARK    6  A    between atoms: N_15  and  C_16
REMARK    7  A    between atoms: N_15  and  C_17
REMARK    8  A    between atoms: C_17  and  C_18
REMARK    9  A    between atoms: N_20  and  C_21
REMARK   10  A    between atoms: C_22  and  C_28
REMARK   11  A    between atoms: C_26  and  C_27
REMARK                            x       y       z     vdW  Elec       q    Type
REMARK                         _______ _______ _______ _____ _____    ______ ____
ROOT
ATOM      1  N   UNL     1       4.281  -2.255  -1.030  0.00  0.00    +0.391 N 
ATOM      2  C   UNL     1       2.909  -2.338  -0.510  0.00  0.00    -0.094 C 
ATOM      3  H   UNL     1       4.271  -2.617  -2.069  0.00  0.00    -0.080 HD
ENDROOT
BRANCH   1   4
ATOM      4  C   UNL     1       4.756  -0.865  -1.041  0.00  0.00    +0.017 C 
ATOM      5  C   UNL     1       4.713  -0.300   0.380  0.00  0.00    -0.004 C 
BRANCH   4   7
ATOM      6  N   UNL     1       4.119   1.276  -2.102  0.00  0.00    -0.286 N 
ATOM      7  C   UNL     1       3.872  -0.038  -1.938  0.00  0.00    +0.203 C 
ATOM      8  O   UNL     1       2.937  -0.556  -2.511  0.00  0.00    -0.277 OA
ATOM      9  H   UNL     1       5.014   1.728  -1.650  0.00  0.00    +0.155 HD
BRANCH   6  14
ATOM     10  C   UNL     1       0.543   4.479  -5.128  0.00  0.00    +0.044 C 
ATOM     11  C   UNL     1       1.492   3.628  -4.324  0.00  0.00    -0.049 A 
ATOM     12  C   UNL     1       1.681   2.300  -4.658  0.00  0.00    +0.005 A 
ATOM     13  C   UNL     1       2.547   1.516  -3.920  0.00  0.00    +0.025 A 
ATOM     14  C   UNL     1       3.237   2.067  -2.848  0.00  0.00    +0.052 A 
ATOM     15  C   UNL     1       3.050   3.403  -2.518  0.00  0.00    +0.062 A 
ATOM     16  C   UNL     1       2.178   4.180  -3.257  0.00  0.00    +0.025 A 
ATOM     17 CL   UNL     1       3.910   4.096  -1.179  0.00  0.00    -0.082 Cl
ENDBRANCH   6  14
ENDBRANCH   4   7
ENDBRANCH   1   4
BRANCH   1  18
ATOM     18  C   UNL     1       5.189  -3.116  -0.260  0.00  0.00    +0.020 C 
BRANCH  18  19
ATOM     19  C   UNL     1       4.812  -4.560  -0.472  0.00  0.00    +0.201 C 
ATOM     20  O   UNL     1       3.879  -4.843  -1.194  0.00  0.00    -0.278 OA
ATOM     21  N   UNL     1       5.511  -5.536   0.140  0.00  0.00    -0.287 N 
ATOM     22  H   UNL     1       6.297  -5.277   0.865  0.00  0.00    +0.155 HD
BRANCH  21  23
ATOM     23  C   UNL     1       5.239  -6.878  -0.148  0.00  0.00    +0.039 A 
ATOM     24  C   UNL     1       3.956  -7.380   0.027  0.00  0.00    -0.029 A 
ATOM     25  C   UNL     1       3.688  -8.704  -0.263  0.00  0.00    +0.005 A 
ATOM     26  C   UNL     1       4.699  -9.531  -0.716  0.00  0.00    +0.001 A 
ATOM     27  C   UNL     1       5.979  -9.036  -0.885  0.00  0.00    +0.005 A 
ATOM     28  C   UNL     1       6.251  -7.712  -0.603  0.00  0.00    -0.029 A 
ATOM     29  C   UNL     1       7.646  -7.172  -0.789  0.00  0.00    +0.045 C 
ATOM     30  C   UNL     1       2.855  -6.480   0.526  0.00  0.00    +0.045 C 
ENDBRANCH  21  23
ENDBRANCH  18  19
ENDBRANCH   1  18
TORSDOF 6
