REMARK  Name = ZINC42954547
REMARK  10 active torsions:
REMARK  status: ('A' for Active; 'I' for Inactive)
REMARK    1  A    between atoms: C_1  and  C_2
REMARK    2  A    between atoms: C_2  and  C_3
REMARK    3  A    between atoms: C_3  and  C_5
REMARK    4  A    between atoms: C_3  and  N_23
REMARK    5  A    between atoms: C_5  and  C_7
REMARK    6  A    between atoms: C_5  and  N_14
REMARK    7  A    between atoms: N_14  and  C_15
REMARK    8  A    between atoms: N_14  and  C_16
REMARK    9  A    between atoms: C_16  and  C_17
REMARK   10  A    between atoms: N_20  and  C_22
REMARK                            x       y       z     vdW  Elec       q    Type
REMARK                         _______ _______ _______ _____ _____    ______ ____
ROOT
ATOM      1  C   UNL     1      -1.500  -2.105   0.168  0.00  0.00    -0.052 C 
ENDROOT
BRANCH   1   2
ATOM      2  C   UNL     1      -2.919  -2.604   0.074  0.00  0.00    -0.062 A 
ATOM      3  C   UNL     1      -3.771  -2.471   1.155  0.00  0.00    +0.003 A 
ATOM      4  C   UNL     1      -5.072  -2.929   1.070  0.00  0.00    +0.015 A 
ATOM      5  C   UNL     1      -5.522  -3.519  -0.098  0.00  0.00    +0.018 A 
ATOM      6  C   UNL     1      -4.670  -3.651  -1.179  0.00  0.00    +0.015 A 
ATOM      7  C   UNL     1      -3.370  -3.189  -1.094  0.00  0.00    +0.003 A 
ATOM      8 BR   UNL     1      -7.303  -4.145  -0.215  0.00  0.00    -0.050 Br
ENDBRANCH   1   2
BRANCH   1   9
ATOM      9  N   UNL     1      -0.955  -2.424   1.494  0.00  0.00    +0.384 N 
ATOM     10  C   UNL     1       0.414  -1.901   1.600  0.00  0.00    -0.095 C 
ATOM     11  H   UNL     1      -1.532  -2.002   2.206  0.00  0.00    -0.081 HD
BRANCH   9  12
ATOM     12  C   UNL     1      -0.938  -3.881   1.679  0.00  0.00    -0.040 C 
BRANCH  12  13
ATOM     13  C   UNL     1      -0.495  -4.205   3.083  0.00  0.00    -0.026 A 
ATOM     14  C   UNL     1       0.823  -4.407   3.504  0.00  0.00    +0.136 A 
ATOM     15  N   UNL     1       0.807  -4.665   4.786  0.00  0.00    -0.180 NA
ATOM     16  N   UNL     1      -0.523  -4.635   5.223  0.00  0.00    -0.274 N 
ATOM     17  C   UNL     1      -1.303  -4.345   4.160  0.00  0.00    +0.109 A 
ATOM     18  C   UNL     1      -0.987  -4.870   6.592  0.00  0.00    +0.172 C 
ENDBRANCH  12  13
ENDBRANCH   9  12
ENDBRANCH   1   9
BRANCH   1  19
ATOM     19  C   UNL     1      -1.478  -0.589  -0.041  0.00  0.00    -0.085 C 
BRANCH  19  20
ATOM     20  N   UNL     1      -2.285   0.061   1.000  0.00  0.00    +0.379 N 
ATOM     21  H   UNL     1      -3.236  -0.273   0.945  0.00  0.00    -0.090 HD
ATOM     22  H   UNL     1      -1.904  -0.159   1.908  0.00  0.00    -0.090 HD
ATOM     23  H   UNL     1      -2.271   1.060   0.862  0.00  0.00    -0.090 HD
ENDBRANCH  19  20
BRANCH  19  25
ATOM     24  C   UNL     1      -1.889   1.240  -1.693  0.00  0.00    +0.002 C 
ATOM     25  C   UNL     1      -2.056  -0.256  -1.418  0.00  0.00    -0.021 C 
ENDBRANCH  19  25
ENDBRANCH   1  19
TORSDOF 7
