REMARK  Name = ZINC38614272
REMARK  8 active torsions:
REMARK  status: ('A' for Active; 'I' for Inactive)
REMARK    1  A    between atoms: C_4  and  C_7
REMARK    2  A    between atoms: C_7  and  N_8
REMARK    3  A    between atoms: N_8  and  C_9
REMARK    4  A    between atoms: N_8  and  C_16
REMARK    5  A    between atoms: C_9  and  C_10
REMARK    6  A    between atoms: C_18  and  C_29
REMARK    7  A    between atoms: C_30  and  C_31
REMARK    8  A    between atoms: C_30  and  C_33
REMARK                            x       y       z     vdW  Elec       q    Type
REMARK                         _______ _______ _______ _____ _____    ______ ____
ROOT
ATOM      1  C   UNL     1       4.889   0.996   1.997  0.00  0.00    +0.193 C 
ATOM      2  C   UNL     1       4.247   0.299   3.197  0.00  0.00    +0.139 C 
ATOM      3  C   UNL     1       3.848   1.338   4.215  0.00  0.00    +0.235 C 
ATOM      4  O   UNL     1       2.837   1.195   4.869  0.00  0.00    -0.274 OA
ATOM      5  N   UNL     1       4.622   2.426   4.395  0.00  0.00    -0.231 N 
ATOM      6  C   UNL     1       4.343   3.295   5.420  0.00  0.00    +0.085 C 
ATOM      7  C   UNL     1       5.174   4.317   5.698  0.00  0.00    +0.016 C 
ATOM      8  C   UNL     1       6.344   4.512   4.940  0.00  0.00    +0.005 C 
ATOM      9  C   UNL     1       6.607   3.701   3.884  0.00  0.00    +0.044 C 
ATOM     10  C   UNL     1       5.695   2.664   3.561  0.00  0.00    +0.128 C 
ATOM     11  N   UNL     1       5.862   1.984   2.456  0.00  0.00    -0.249 NA
ENDROOT
BRANCH   2  12
ATOM     12  C   UNL     1       5.235  -0.658   3.812  0.00  0.00    +0.007 C 
ATOM     13  C   UNL     1       4.805  -1.775   4.393  0.00  0.00    +0.068 C 
BRANCH  13  14
ATOM     14  C   UNL     1       5.797  -2.779   4.921  0.00  0.00    +0.216 C 
ATOM     15  N   UNL     1       5.629  -4.065   4.232  0.00  0.00    -0.359 N 
ATOM     16  C   UNL     1       5.319  -4.953   5.132  0.00  0.00    +0.060 A 
ATOM     17  C   UNL     1       5.033  -6.392   5.059  0.00  0.00    +0.027 A 
ATOM     18  C   UNL     1       4.735  -7.070   6.185  0.00  0.00    +0.002 A 
ATOM     19  C   UNL     1       4.684  -6.454   7.449  0.00  0.00    +0.002 A 
ATOM     20  C   UNL     1       4.930  -5.141   7.628  0.00  0.00    +0.027 A 
ATOM     21  C   UNL     1       5.266  -4.302   6.470  0.00  0.00    +0.060 A 
ATOM     22  N   UNL     1       5.545  -3.036   6.345  0.00  0.00    -0.359 N 
ATOM     23  H   UNL     1       5.729  -4.223   3.281  0.00  0.00    +0.162 HD
ATOM     24  H   UNL     1       5.579  -2.383   7.061  0.00  0.00    +0.162 HD
ENDBRANCH  13  14
BRANCH  13  25
ATOM     25  C   UNL     1       3.400  -2.023   4.517  0.00  0.00    +0.098 C 
ATOM     26  N   UNL     1       2.286  -2.220   4.615  0.00  0.00    -0.191 NA
ENDBRANCH  13  25
ENDBRANCH   2  12
BRANCH   1  27
ATOM     27  N   UNL     1       5.566  -0.003   1.159  0.00  0.00    -0.272 NA
BRANCH  27  28
ATOM     28  C   UNL     1       6.979  -0.136   1.538  0.00  0.00    +0.122 C 
BRANCH  28  32
ATOM     29  C   UNL     1       9.307   2.737  -0.600  0.00  0.00    +0.000 A 
ATOM     30  C   UNL     1       8.872   3.016   0.683  0.00  0.00    +0.000 A 
ATOM     31  C   UNL     1       8.119   2.086   1.374  0.00  0.00    +0.005 A 
ATOM     32  C   UNL     1       7.800   0.878   0.784  0.00  0.00    -0.033 A 
ATOM     33  C   UNL     1       8.234   0.599  -0.499  0.00  0.00    +0.005 A 
ATOM     34  C   UNL     1       8.989   1.529  -1.190  0.00  0.00    +0.000 A 
ENDBRANCH  28  32
ENDBRANCH  27  28
BRANCH  27  35
ATOM     35  C   UNL     1       4.879  -1.299   1.225  0.00  0.00    +0.122 C 
BRANCH  35  36
ATOM     36  C   UNL     1       5.228  -2.115   0.007  0.00  0.00    -0.033 A 
ATOM     37  C   UNL     1       4.530  -1.932  -1.172  0.00  0.00    +0.005 A 
ATOM     38  C   UNL     1       4.850  -2.681  -2.288  0.00  0.00    +0.000 A 
ATOM     39  C   UNL     1       5.869  -3.613  -2.227  0.00  0.00    +0.000 A 
ATOM     40  C   UNL     1       6.568  -3.796  -1.048  0.00  0.00    +0.000 A 
ATOM     41  C   UNL     1       6.250  -3.044   0.068  0.00  0.00    +0.005 A 
ENDBRANCH  35  36
ENDBRANCH  27  35
ENDBRANCH   1  27
TORSDOF 8
