REMARK  Name = ZINC06193071
REMARK  19 active torsions:
REMARK  status: ('A' for Active; 'I' for Inactive)
REMARK    1  A    between atoms: C_1  and  C_2
REMARK    2  A    between atoms: C_2  and  N_69
REMARK    3  A    between atoms: C_3  and  C_4
REMARK    4  A    between atoms: C_3  and  N_69
REMARK    5  A    between atoms: C_5  and  C_6
REMARK    6  A    between atoms: C_5  and  N_69
REMARK    7  A    between atoms: C_6  and  C_7
REMARK    8  A    between atoms: C_7  and  N_8
REMARK    9  A    between atoms: N_8  and  C_9
REMARK   10  A    between atoms: C_9  and  N_11
REMARK   11  A    between atoms: N_11  and  C_12
REMARK   12  A    between atoms: N_11  and  C_16
REMARK   13  A    between atoms: C_12  and  C_13
REMARK   14  A    between atoms: C_13  and  N_71
REMARK   15  A    between atoms: C_14  and  N_71
REMARK   16  A    between atoms: C_15  and  N_71
REMARK   17  A    between atoms: C_16  and  C_17
REMARK   18  A    between atoms: C_20  and  C_30
REMARK   19  A    between atoms: C_23  and  C_29
REMARK                            x       y       z     vdW  Elec       q    Type
REMARK                         _______ _______ _______ _____ _____    ______ ____
ROOT
ATOM      1  N   UNL     1      -0.013  -0.012   0.024  0.00  0.00    -0.310 N 
ENDROOT
BRANCH   1   2
ATOM      2  C   UNL     1      -1.012  -0.694  -0.570  0.00  0.00    +0.133 C 
ATOM      3  S   UNL     1      -0.977  -2.405  -0.606  0.00  0.00    -0.019 S 
BRANCH   2   4
ATOM      4  N   UNL     1      -2.039  -0.029  -1.134  0.00  0.00    -0.326 N 
ATOM      5  H   UNL     1      -2.059   0.941  -1.113  0.00  0.00    +0.148 HD
BRANCH   4   6
ATOM      6  C   UNL     1      -3.126  -0.770  -1.779  0.00  0.00    +0.101 C 
BRANCH   6   7
ATOM      7  C   UNL     1      -4.156   0.215  -2.335  0.00  0.00    +0.000 C 
BRANCH   7   8
ATOM      8  C   UNL     1      -5.290  -0.559  -3.009  0.00  0.00    -0.077 C 
BRANCH   8   9
ATOM      9  N   UNL     1      -6.342   0.398  -3.413  0.00  0.00    +0.379 N 
ATOM     10  H   UNL     1      -6.479   1.081  -2.658  0.00  0.00    -0.082 HD
BRANCH   9  12
ATOM     11  C   UNL     1      -6.925   2.246  -4.907  0.00  0.00    -0.017 C 
ATOM     12  C   UNL     1      -5.931   1.113  -4.639  0.00  0.00    -0.082 C 
ENDBRANCH   9  12
BRANCH   9  13
ATOM     13  C   UNL     1      -7.614  -0.318  -3.648  0.00  0.00    -0.082 C 
ATOM     14  C   UNL     1      -8.247  -0.650  -2.295  0.00  0.00    -0.017 C 
ENDBRANCH   9  13
ENDBRANCH   8   9
ENDBRANCH   7   8
ENDBRANCH   6   7
ENDBRANCH   4   6
ENDBRANCH   2   4
ENDBRANCH   1   2
BRANCH   1  15
ATOM     15  C   UNL     1      -0.043   1.452   0.055  0.00  0.00    +0.088 C 
BRANCH  15  16
ATOM     16  C   UNL     1      -0.768   1.921   1.318  0.00  0.00    -0.060 C 
BRANCH  16  19
ATOM     17  C   UNL     1      -1.621   3.922   0.256  0.00  0.00    -0.097 C 
ATOM     18  C   UNL     1      -1.272   3.878   2.652  0.00  0.00    -0.097 C 
ATOM     19  N   UNL     1      -0.772   3.399   1.346  0.00  0.00    +0.377 N 
ATOM     20  H   UNL     1       0.189   3.737   1.212  0.00  0.00    -0.083 HD
ENDBRANCH  16  19
ENDBRANCH  15  16
ENDBRANCH   1  15
BRANCH   1  21
ATOM     21  C   UNL     1       1.104  -0.735   0.638  0.00  0.00    +0.147 C 
BRANCH  21  22
ATOM     22  C   UNL     1       0.782  -1.024   2.082  0.00  0.00    +0.035 A 
ATOM     23  C   UNL     1       0.241  -2.218   2.427  0.00  0.00    +0.020 A 
ATOM     24  C   UNL     1      -0.059  -2.467   3.838  0.00  0.00    +0.002 A 
ATOM     25  C   UNL     1      -0.618  -3.680   4.256  0.00  0.00    -0.041 A 
ATOM     26  C   UNL     1      -0.887  -3.881   5.580  0.00  0.00    +0.004 A 
ATOM     27  C   UNL     1      -0.611  -2.893   6.515  0.00  0.00    +0.005 A 
ATOM     28  C   UNL     1      -0.060  -1.691   6.127  0.00  0.00    -0.026 A 
ATOM     29  C   UNL     1       0.222  -1.463   4.784  0.00  0.00    +0.052 A 
ATOM     30  N   UNL     1       0.773  -0.270   4.367  0.00  0.00    -0.322 N 
ATOM     31  H   UNL     1       0.969   0.443   5.040  0.00  0.00    +0.169 HD
ATOM     32  C   UNL     1       1.051  -0.052   3.070  0.00  0.00    +0.254 A 
ATOM     33  O   UNL     1       1.542   1.013   2.738  0.00  0.00    -0.268 OA
ATOM     34  C   UNL     1       0.234  -0.628   7.153  0.00  0.00    +0.046 C 
ATOM     35  C   UNL     1      -0.922  -4.759   3.249  0.00  0.00    +0.044 C 
ENDBRANCH  21  22
ENDBRANCH   1  21
TORSDOF 13
