REMARK  Name = ZINC34953242
REMARK  10 active torsions:
REMARK  status: ('A' for Active; 'I' for Inactive)
REMARK    1  A    between atoms: C_1  and  C_2
REMARK    2  A    between atoms: C_5  and  C_35
REMARK    3  A    between atoms: C_6  and  C_8
REMARK    4  A    between atoms: C_8  and  C_9
REMARK    5  A    between atoms: C_10  and  C_27
REMARK    6  A    between atoms: C_19  and  C_26
REMARK    7  A    between atoms: C_20  and  C_22
REMARK    8  A    between atoms: C_22  and  O_24
REMARK    9  A    between atoms: O_24  and  C_25
REMARK   10  A    between atoms: C_30  and  O_33
REMARK                            x       y       z     vdW  Elec       q    Type
REMARK                         _______ _______ _______ _____ _____    ______ ____
ROOT
ATOM      1  C   UNL     1      -0.087  -2.407   3.688  0.00  0.00    +0.077 C 
ATOM      2  C   UNL     1      -0.051  -0.917   3.935  0.00  0.00    +0.152 C 
ATOM      3  N   UNL     1      -0.171  -0.740   5.387  0.00  0.00    -0.232 N 
ATOM      4  C   UNL     1      -0.266  -1.960   5.946  0.00  0.00    +0.293 C 
ATOM      5  O   UNL     1      -0.378  -2.175   7.137  0.00  0.00    -0.266 OA
ATOM      6  C   UNL     1      -0.221  -3.000   4.898  0.00  0.00    +0.250 C 
ATOM      7  O   UNL     1      -0.297  -4.334   5.113  0.00  0.00    -0.282 OA
ATOM      8  C   UNL     1      -0.183   0.466   6.061  0.00  0.00    +0.169 A 
ATOM      9  N   UNL     1      -0.283   0.675   7.362  0.00  0.00    -0.229 NA
ATOM     10  C   UNL     1      -0.281   1.883   7.863  0.00  0.00    +0.062 A 
ATOM     11  C   UNL     1      -0.169   2.928   6.954  0.00  0.00    +0.120 A 
ATOM     12  S   UNL     1      -0.068   2.018   5.420  0.00  0.00    -0.045 S 
ATOM     13  C   UNL     1      -0.395   2.129   9.346  0.00  0.00    +0.067 C 
ENDROOT
BRANCH   2  14
ATOM     14  C   UNL     1       1.254  -0.342   3.449  0.00  0.00    -0.022 A 
ATOM     15  C   UNL     1       2.419  -0.583   4.153  0.00  0.00    +0.009 A 
ATOM     16  C   UNL     1       3.617  -0.057   3.709  0.00  0.00    +0.046 A 
ATOM     17  C   UNL     1       3.650   0.714   2.557  0.00  0.00    +0.117 A 
ATOM     18  C   UNL     1       2.479   0.955   1.852  0.00  0.00    +0.046 A 
ATOM     19  C   UNL     1       1.285   0.422   2.296  0.00  0.00    +0.009 A 
BRANCH  17  20
ATOM     20  O   UNL     1       4.827   1.234   2.119  0.00  0.00    -0.507 OA
ATOM     21  H   UNL     1       5.309   0.657   1.510  0.00  0.00    +0.292 HD
ENDBRANCH  17  20
ENDBRANCH   2  14
BRANCH   1  22
ATOM     22  C   UNL     1       0.000  -3.080   2.389  0.00  0.00    +0.195 C 
ATOM     23  O   UNL     1       0.051  -4.294   2.336  0.00  0.00    -0.287 OA
BRANCH  22  29
ATOM     24  C   UNL     1       2.534  -1.178  -1.467  0.00  0.00    +0.044 C 
ATOM     25  C   UNL     1       1.243  -1.366  -0.714  0.00  0.00    -0.050 A 
ATOM     26  C   UNL     1       0.077  -0.791  -1.188  0.00  0.00    +0.003 A 
ATOM     27  C   UNL     1      -1.114  -0.958  -0.503  0.00  0.00    +0.004 A 
ATOM     28  C   UNL     1      -1.146  -1.700   0.659  0.00  0.00    -0.040 A 
ATOM     29  C   UNL     1       0.027  -2.283   1.144  0.00  0.00    +0.025 A 
ATOM     30  C   UNL     1       1.224  -2.115   0.444  0.00  0.00    +0.015 A 
ATOM     31  C   UNL     1      -2.443  -1.880   1.405  0.00  0.00    +0.044 C 
ENDBRANCH  22  29
ENDBRANCH   1  22
BRANCH  11  32
ATOM     32  C   UNL     1      -0.138   4.370   7.188  0.00  0.00    +0.347 C 
ATOM     33  O   UNL     1      -0.216   4.804   8.322  0.00  0.00    -0.244 OA
BRANCH  32  34
ATOM     34  O   UNL     1      -0.021   5.220   6.147  0.00  0.00    -0.464 OA
ATOM     35  C   UNL     1       0.003   6.616   6.449  0.00  0.00    +0.280 C 
ENDBRANCH  32  34
ENDBRANCH  11  32
TORSDOF 6
