REMARK  Name = ZINC60364117
REMARK  7 active torsions:
REMARK  status: ('A' for Active; 'I' for Inactive)
REMARK    1  A    between atoms: C_1  and  C_2
REMARK    2  A    between atoms: C_5  and  C_9
REMARK    3  A    between atoms: C_6  and  O_8
REMARK    4  A    between atoms: N_11  and  C_12
REMARK    5  A    between atoms: C_12  and  C_13
REMARK    6  A    between atoms: C_13  and  C_14
REMARK    7  A    between atoms: C_14  and  N_16
REMARK                            x       y       z     vdW  Elec       q    Type
REMARK                         _______ _______ _______ _____ _____    ______ ____
ROOT
ATOM      1  C   UNL     1       0.059  -4.252  -0.036  0.00  0.00    +0.248 C 
ATOM      2  O   UNL     1       0.072  -4.870   1.011  0.00  0.00    -0.270 OA
ATOM      3  N   UNL     1       0.062  -4.915  -1.209  0.00  0.00    -0.311 N 
ATOM      4  H   UNL     1       0.051  -4.423  -2.045  0.00  0.00    +0.149 HD
ENDROOT
BRANCH   1   9
ATOM      5  C   UNL     1      -0.018   1.503   0.010  0.00  0.00    +0.044 C 
ATOM      6  C   UNL     1       0.002  -0.004   0.002  0.00  0.00    -0.047 A 
ATOM      7  C   UNL     1       0.006  -0.686  -1.204  0.00  0.00    +0.004 A 
ATOM      8  C   UNL     1       0.024  -2.064  -1.224  0.00  0.00    +0.017 A 
ATOM      9  C   UNL     1       0.040  -2.777  -0.022  0.00  0.00    +0.078 A 
ATOM     10  C   UNL     1       0.036  -2.084   1.195  0.00  0.00    +0.129 A 
ATOM     11  C   UNL     1       0.023  -0.697   1.196  0.00  0.00    +0.049 A 
BRANCH  10  12
ATOM     12  O   UNL     1       0.050  -2.766   2.368  0.00  0.00    -0.506 OA
ATOM     13  H   UNL     1       0.938  -2.952   2.704  0.00  0.00    +0.292 HD
ENDBRANCH  10  12
ENDBRANCH   1   9
BRANCH   3  14
ATOM     14  C   UNL     1       0.082  -6.380  -1.223  0.00  0.00    +0.114 C 
BRANCH  14  15
ATOM     15  C   UNL     1       0.081  -6.877  -2.670  0.00  0.00    +0.116 C 
BRANCH  15  16
ATOM     16  C   UNL     1       0.101  -8.384  -2.684  0.00  0.00    +0.240 C 
ATOM     17  O   UNL     1       0.114  -9.001  -1.637  0.00  0.00    -0.274 OA
BRANCH  16  18
ATOM     18  N   UNL     1       0.104  -9.039  -3.842  0.00  0.00    -0.159 NA
ATOM     19  C   UNL     1       0.121 -10.367  -3.855  0.00  0.00    +0.146 C 
ATOM     20  N   UNL     1       0.126 -11.154  -4.954  0.00  0.00    -0.325 N 
ATOM     21  C   UNL     1       0.146 -12.595  -4.814  0.00  0.00    +0.114 C 
ATOM     22  C   UNL     1       0.160 -13.010  -3.327  0.00  0.00    +0.095 C 
ATOM     23  S   UNL     1       0.149 -11.367  -2.510  0.00  0.00    -0.092 S 
ATOM     24  H   UNL     1       0.116 -10.753  -5.838  0.00  0.00    +0.148 HD
ENDBRANCH  16  18
ENDBRANCH  15  16
ENDBRANCH  14  15
ENDBRANCH   3  14
TORSDOF 6
