REMARK  Name = ZINC43592956
REMARK  8 active torsions:
REMARK  status: ('A' for Active; 'I' for Inactive)
REMARK    1  A    between atoms: C_1  and  C_2
REMARK    2  A    between atoms: C_2  and  C_3
REMARK    3  A    between atoms: C_2  and  N_4
REMARK    4  A    between atoms: C_7  and  C_10
REMARK    5  A    between atoms: C_10  and  N_11
REMARK    6  A    between atoms: N_11  and  S_12
REMARK    7  A    between atoms: S_12  and  C_15
REMARK    8  A    between atoms: C_18  and  N_22
REMARK                            x       y       z     vdW  Elec       q    Type
REMARK                         _______ _______ _______ _____ _____    ______ ____
ROOT
ATOM      1  S   UNL     1       4.633  -5.181  -2.500  0.00  0.00    +0.061 S 
ATOM      2  O   UNL     1       5.571  -5.198  -3.568  0.00  0.00    -0.153 OA
ATOM      3  O   UNL     1       5.028  -5.052  -1.141  0.00  0.00    -0.153 OA
ENDROOT
BRANCH   1   4
ATOM      4  C   UNL     1       3.710  -6.677  -2.617  0.00  0.00    +0.140 A 
ATOM      5  C   UNL     1       4.005  -7.595  -3.607  0.00  0.00    +0.033 A 
ATOM      6  C   UNL     1       3.284  -8.769  -3.701  0.00  0.00    +0.025 A 
ATOM      7  C   UNL     1       2.259  -9.028  -2.800  0.00  0.00    +0.027 A 
ATOM      8  C   UNL     1       1.963  -8.105  -1.805  0.00  0.00    +0.063 A 
ATOM      9  C   UNL     1       2.693  -6.933  -1.712  0.00  0.00    +0.151 A 
ATOM     10  F   UNL     1       2.409  -6.037  -0.742  0.00  0.00    -0.203 F 
BRANCH   7  11
ATOM     11  N   UNL     1       1.528 -10.214  -2.893  0.00  0.00    -0.358 N 
ATOM     12  H   UNL     1       1.736 -10.858  -3.588  0.00  0.00    +0.142 HD
ATOM     13  H   UNL     1       0.813 -10.394  -2.263  0.00  0.00    +0.142 HD
ENDBRANCH   7  11
ENDBRANCH   1   4
BRANCH   1  14
ATOM     14  N   UNL     1       3.587  -3.934  -2.809  0.00  0.00    -0.190 NA
ATOM     15  H   UNL     1       3.711  -3.381  -3.596  0.00  0.00    +0.148 HD
BRANCH  14  16
ATOM     16  C   UNL     1       2.475  -3.667  -1.894  0.00  0.00    +0.107 C 
BRANCH  16  20
ATOM     17  N   UNL     1       0.690  -0.478  -1.207  0.00  0.00    +0.381 N 
ATOM     18  C   UNL     1       2.104  -0.047  -1.190  0.00  0.00    -0.078 C 
ATOM     19  C   UNL     1       2.928  -1.178  -1.833  0.00  0.00    -0.016 C 
ATOM     20  C   UNL     1       1.900  -2.279  -2.182  0.00  0.00    -0.014 C 
ATOM     21  C   UNL     1       0.719  -1.963  -1.231  0.00  0.00    -0.074 C 
ATOM     22  H   UNL     1       0.227  -0.126  -2.031  0.00  0.00    -0.081 HD
BRANCH  17  24
ATOM     23  C   UNL     1      -0.019   1.526   0.010  0.00  0.00    -0.014 C 
ATOM     24  C   UNL     1       0.002  -0.004   0.002  0.00  0.00    -0.075 C 
ATOM     25  C   UNL     1      -1.433  -0.534   0.013  0.00  0.00    -0.014 C 
ENDBRANCH  17  24
ENDBRANCH  16  20
ENDBRANCH  14  16
ENDBRANCH   1  14
TORSDOF 6
