REMARK  Name = ZINC08829247
REMARK  14 active torsions:
REMARK  status: ('A' for Active; 'I' for Inactive)
REMARK    1  A    between atoms: C_1  and  C_2
REMARK    2  A    between atoms: C_5  and  N_9
REMARK    3  A    between atoms: C_6  and  C_8
REMARK    4  A    between atoms: N_9  and  C_10
REMARK    5  A    between atoms: C_10  and  C_12
REMARK    6  A    between atoms: C_10  and  C_17
REMARK    7  A    between atoms: N_19  and  C_20
REMARK    8  A    between atoms: C_20  and  C_21
REMARK    9  A    between atoms: C_21  and  C_22
REMARK   10  A    between atoms: C_22  and  C_23
REMARK   11  A    between atoms: C_22  and  C_24
REMARK   12  A    between atoms: C_25  and  C_27
REMARK   13  A    between atoms: C_30  and  C_32
REMARK   14  A    between atoms: C_32  and  N_74
REMARK                            x       y       z     vdW  Elec       q    Type
REMARK                         _______ _______ _______ _____ _____    ______ ____
ROOT
ATOM      1  N   UNL     1      -0.109   5.679   6.826  0.00  0.00    -0.248 N 
ATOM      2  C   UNL     1      -0.835   5.304   7.898  0.00  0.00    +0.287 C 
ATOM      3  O   UNL     1      -1.010   6.082   8.817  0.00  0.00    -0.266 OA
ENDROOT
BRANCH   1   8
ATOM      4  C   UNL     1       0.704   2.054   2.540  0.00  0.00    +0.044 C 
ATOM      5  C   UNL     1       0.488   3.017   3.679  0.00  0.00    -0.050 A 
ATOM      6  C   UNL     1       1.371   3.035   4.744  0.00  0.00    +0.005 A 
ATOM      7  C   UNL     1       1.178   3.920   5.787  0.00  0.00    +0.024 A 
ATOM      8  C   UNL     1       0.091   4.785   5.770  0.00  0.00    +0.041 A 
ATOM      9  C   UNL     1      -0.792   4.764   4.699  0.00  0.00    -0.029 A 
ATOM     10  C   UNL     1      -0.592   3.880   3.657  0.00  0.00    +0.008 A 
ATOM     11  C   UNL     1      -1.970   5.705   4.674  0.00  0.00    +0.045 C 
ENDBRANCH   1   8
BRANCH   2  12
ATOM     12  C   UNL     1      -1.415   3.959   7.956  0.00  0.00    +0.190 A 
ATOM     13  C   UNL     1      -2.168   3.453   8.977  0.00  0.00    +0.055 A 
ATOM     14  C   UNL     1      -2.514   2.142   8.612  0.00  0.00    +0.043 A 
ATOM     15  C   UNL     1      -1.957   1.906   7.404  0.00  0.00    +0.090 A 
ATOM     16  O   UNL     1      -1.299   3.004   7.010  0.00  0.00    -0.457 OA
BRANCH  15  17
ATOM     17  C   UNL     1      -2.064   0.620   6.624  0.00  0.00    -0.003 C 
BRANCH  17  23
ATOM     18  C   UNL     1      -3.258  -0.455   4.811  0.00  0.00    -0.050 C 
ATOM     19  C   UNL     1      -4.534  -0.397   3.968  0.00  0.00    +0.141 C 
ATOM     20  O   UNL     1      -4.603   0.868   3.304  0.00  0.00    -0.383 OA
ATOM     21  C   UNL     1      -4.598   1.987   4.194  0.00  0.00    +0.141 C 
ATOM     22  C   UNL     1      -3.322   1.953   5.040  0.00  0.00    -0.050 C 
ATOM     23  N   UNL     1      -3.271   0.669   5.771  0.00  0.00    +0.387 N 
ATOM     24  H   UNL     1      -4.104   0.591   6.366  0.00  0.00    -0.081 HD
ENDBRANCH  17  23
ENDBRANCH  15  17
ENDBRANCH   2  12
BRANCH   1  25
ATOM     25  C   UNL     1       0.471   7.023   6.768  0.00  0.00    +0.204 C 
BRANCH  25  26
ATOM     26  C   UNL     1       0.063   7.691   5.480  0.00  0.00    +0.019 A 
ATOM     27  C   UNL     1      -0.672   8.815   5.297  0.00  0.00    +0.013 A 
ATOM     28  C   UNL     1      -0.925   9.248   4.009  0.00  0.00    +0.008 A 
ATOM     29  C   UNL     1      -0.430   8.536   2.967  0.00  0.00    +0.045 A 
ATOM     30  S   UNL     1       0.430   7.212   3.800  0.00  0.00    -0.099 S 
ENDBRANCH  25  26
BRANCH  25  31
ATOM     31  C   UNL     1       1.973   6.926   6.830  0.00  0.00    +0.239 C 
ATOM     32  O   UNL     1       2.520   5.860   6.639  0.00  0.00    -0.273 OA
ATOM     33  N   UNL     1       2.709   8.023   7.096  0.00  0.00    -0.313 N 
ATOM     34  H   UNL     1       2.272   8.875   7.249  0.00  0.00    +0.149 HD
BRANCH  33  35
ATOM     35  C   UNL     1       4.170   7.928   7.156  0.00  0.00    +0.104 C 
BRANCH  35  36
ATOM     36  C   UNL     1       4.758   9.304   7.473  0.00  0.00    +0.022 C 
BRANCH  36  37
ATOM     37  C   UNL     1       6.284   9.205   7.535  0.00  0.00    -0.016 C 
ATOM     38  C   UNL     1       6.878  10.601   7.727  0.00  0.00    +0.007 C 
ATOM     39  C   UNL     1       6.689   8.312   8.709  0.00  0.00    +0.007 C 
ENDBRANCH  36  37
ENDBRANCH  35  36
ENDBRANCH  33  35
ENDBRANCH  25  31
ENDBRANCH   1  25
TORSDOF 10
