REMARK  Name = ZINC67481927
REMARK  7 active torsions:
REMARK  status: ('A' for Active; 'I' for Inactive)
REMARK    1  A    between atoms: C_4  and  C_7
REMARK    2  A    between atoms: C_7  and  N_8
REMARK    3  A    between atoms: C_12  and  C_14
REMARK    4  A    between atoms: C_14  and  N_15
REMARK    5  A    between atoms: N_18  and  C_19
REMARK    6  A    between atoms: C_19  and  C_20
REMARK    7  A    between atoms: C_19  and  C_23
REMARK                            x       y       z     vdW  Elec       q    Type
REMARK                         _______ _______ _______ _____ _____    ______ ____
ROOT
ATOM      1  N   UNL     1       1.289  -4.739  -5.175  0.00  0.00    -0.301 N 
ATOM      2  C   UNL     1       0.029  -4.661  -5.649  0.00  0.00    +0.301 C 
ATOM      3  O   UNL     1      -0.436  -5.582  -6.292  0.00  0.00    -0.253 OA
ATOM      4  N   UNL     1      -0.713  -3.562  -5.410  0.00  0.00    -0.281 N 
ATOM      5  H   UNL     1       1.661  -4.004  -4.662  0.00  0.00    +0.150 HD
ATOM      6  H   UNL     1      -0.342  -2.827  -4.898  0.00  0.00    +0.151 HD
ENDROOT
BRANCH   1   7
ATOM      7  C   UNL     1       2.096  -5.933  -5.434  0.00  0.00    +0.090 C 
BRANCH   7  12
ATOM      8  N   UNL     1       3.326  -5.465  -3.356  0.00  0.00    +0.383 N 
ATOM      9  C   UNL     1       4.009  -6.521  -2.580  0.00  0.00    -0.078 C 
ATOM     10  C   UNL     1       4.032  -7.752  -3.520  0.00  0.00    -0.020 C 
ATOM     11  C   UNL     1       4.268  -7.086  -4.901  0.00  0.00    -0.016 C 
ATOM     12  C   UNL     1       3.475  -5.767  -4.792  0.00  0.00    -0.051 C 
ATOM     13  H   UNL     1       2.346  -5.447  -3.113  0.00  0.00    -0.081 HD
BRANCH   8  14
ATOM     14  C   UNL     1       3.934  -4.161  -3.060  0.00  0.00    -0.075 C 
BRANCH  14  18
ATOM     15  C   UNL     1       2.638  -1.936   0.418  0.00  0.00    +0.000 C 
ATOM     16  C   UNL     1       4.140  -2.133   0.207  0.00  0.00    +0.000 C 
ATOM     17  C   UNL     1       4.406  -2.499  -1.255  0.00  0.00    +0.002 C 
ATOM     18  C   UNL     1       3.668  -3.795  -1.598  0.00  0.00    -0.028 C 
ATOM     19  C   UNL     1       2.166  -3.598  -1.387  0.00  0.00    +0.002 C 
ATOM     20  C   UNL     1       1.900  -3.232   0.075  0.00  0.00    +0.000 C 
ENDBRANCH  14  18
ENDBRANCH   8  14
ENDBRANCH   7  12
ENDBRANCH   1   7
BRANCH   4  21
ATOM     21  C   UNL     1      -2.082  -3.477  -5.925  0.00  0.00    +0.246 C 
BRANCH  21  22
ATOM     22  C   UNL     1      -2.882  -2.527  -5.071  0.00  0.00    +0.240 C 
ATOM     23  O   UNL     1      -2.322  -1.641  -4.461  0.00  0.00    -0.273 OA
ATOM     24  N   UNL     1      -4.220  -2.662  -4.985  0.00  0.00    -0.327 N 
ATOM     25  H   UNL     1      -4.660  -3.413  -5.414  0.00  0.00    +0.145 HD
ATOM     26  H   UNL     1      -4.743  -2.009  -4.494  0.00  0.00    +0.145 HD
ENDBRANCH  21  22
BRANCH  21  27
ATOM     27  C   UNL     1      -2.054  -2.973  -7.345  0.00  0.00    +0.240 C 
ATOM     28  O   UNL     1      -1.114  -2.314  -7.737  0.00  0.00    -0.273 OA
ATOM     29  N   UNL     1      -3.074  -3.255  -8.181  0.00  0.00    -0.327 N 
ATOM     30  H   UNL     1      -3.790  -3.841  -7.891  0.00  0.00    +0.145 HD
ATOM     31  H   UNL     1      -3.091  -2.873  -9.072  0.00  0.00    +0.145 HD
ENDBRANCH  21  27
ENDBRANCH   4  21
TORSDOF 7
