REMARK  Name = ZINC67401133
REMARK  9 active torsions:
REMARK  status: ('A' for Active; 'I' for Inactive)
REMARK    1  A    between atoms: C_1  and  O_2
REMARK    2  A    between atoms: O_2  and  C_3
REMARK    3  A    between atoms: C_6  and  C_9
REMARK    4  A    between atoms: C_9  and  C_11
REMARK    5  A    between atoms: C_9  and  O_28
REMARK    6  A    between atoms: C_11  and  N_12
REMARK    7  A    between atoms: C_15  and  C_18
REMARK    8  A    between atoms: C_18  and  C_20
REMARK    9  A    between atoms: C_18  and  O_27
REMARK                            x       y       z     vdW  Elec       q    Type
REMARK                         _______ _______ _______ _____ _____    ______ ____
ROOT
ATOM      1  N   UNL     1       4.528  -3.432  -5.223  0.00  0.00    +0.382 N 
ATOM      2  C   UNL     1       3.762  -4.577  -5.731  0.00  0.00    -0.078 C 
ATOM      3  C   UNL     1       4.350  -5.035  -7.068  0.00  0.00    -0.012 C 
ATOM      4  C   UNL     1       5.810  -5.447  -6.862  0.00  0.00    +0.019 C 
ATOM      5  C   UNL     1       6.583  -4.269  -6.262  0.00  0.00    -0.012 C 
ATOM      6  C   UNL     1       5.912  -3.839  -4.955  0.00  0.00    -0.078 C 
ATOM      7  H   UNL     1       4.522  -2.694  -5.910  0.00  0.00    -0.082 HD
ENDROOT
BRANCH   1   8
ATOM      8  C   UNL     1       3.913  -2.947  -3.980  0.00  0.00    -0.042 C 
BRANCH   8   9
ATOM      9  C   UNL     1       4.610  -1.660  -3.534  0.00  0.00    +0.128 C 
BRANCH   9  13
ATOM     10  C   UNL     1       2.853  -0.275   0.107  0.00  0.00    +0.120 A 
ATOM     11  C   UNL     1       4.051  -0.975   0.135  0.00  0.00    +0.046 A 
ATOM     12  C   UNL     1       4.616  -1.422  -1.043  0.00  0.00    +0.009 A 
ATOM     13  C   UNL     1       3.990  -1.172  -2.251  0.00  0.00    -0.021 A 
ATOM     14  C   UNL     1       2.797  -0.474  -2.282  0.00  0.00    +0.009 A 
ATOM     15  C   UNL     1       2.224  -0.030  -1.105  0.00  0.00    +0.046 A 
BRANCH  10  17
ATOM     16  C   UNL     1       2.998  -0.123   2.475  0.00  0.00    +0.277 C 
ATOM     17  O   UNL     1       2.295   0.165   1.264  0.00  0.00    -0.495 OA
ENDBRANCH  10  17
ENDBRANCH   9  13
BRANCH   9  18
ATOM     18  O   UNL     1       4.459  -0.662  -4.546  0.00  0.00    -0.389 OA
ATOM     19  H   UNL     1       3.539  -0.436  -4.741  0.00  0.00    +0.210 HD
ENDBRANCH   9  18
ENDBRANCH   8   9
ENDBRANCH   1   8
BRANCH   4  20
ATOM     20  C   UNL     1       6.428  -5.831  -8.209  0.00  0.00    +0.147 C 
BRANCH  20  21
ATOM     21  C   UNL     1       7.825  -6.352  -7.990  0.00  0.00    -0.019 A 
ATOM     22  C   UNL     1       8.870  -5.468  -7.796  0.00  0.00    +0.007 A 
ATOM     23  C   UNL     1      10.151  -5.946  -7.595  0.00  0.00    +0.020 A 
ATOM     24  C   UNL     1      10.388  -7.309  -7.589  0.00  0.00    +0.041 A 
ATOM     25  C   UNL     1       9.342  -8.193  -7.783  0.00  0.00    +0.020 A 
ATOM     26  C   UNL     1       8.060  -7.714  -7.978  0.00  0.00    +0.007 A 
ATOM     27 CL   UNL     1      11.997  -7.909  -7.338  0.00  0.00    -0.084 Cl
ENDBRANCH  20  21
BRANCH  20  28
ATOM     28  O   UNL     1       6.476  -4.681  -9.056  0.00  0.00    -0.387 OA
ATOM     29  H   UNL     1       7.000  -3.951  -8.699  0.00  0.00    +0.210 HD
ENDBRANCH  20  28
ENDBRANCH   4  20
TORSDOF 8
