REMARK  Name = ZINC38361534
REMARK  15 active torsions:
REMARK  status: ('A' for Active; 'I' for Inactive)
REMARK    1  A    between atoms: C_1  and  C_2
REMARK    2  A    between atoms: C_2  and  C_4
REMARK    3  A    between atoms: C_2  and  N_17
REMARK    4  A    between atoms: N_6  and  C_7
REMARK    5  A    between atoms: C_10  and  S_13
REMARK    6  A    between atoms: S_13  and  N_16
REMARK    7  A    between atoms: N_17  and  C_18
REMARK    8  A    between atoms: C_18  and  C_20
REMARK    9  A    between atoms: C_18  and  C_30
REMARK   10  A    between atoms: C_23  and  C_26
REMARK   11  A    between atoms: C_26  and  C_27
REMARK   12  A    between atoms: C_27  and  C_28
REMARK   13  A    between atoms: C_27  and  C_29
REMARK   14  A    between atoms: C_30  and  C_31
REMARK   15  A    between atoms: C_30  and  C_32
REMARK                            x       y       z     vdW  Elec       q    Type
REMARK                         _______ _______ _______ _____ _____    ______ ____
ROOT
ATOM      1  C   UNL     1      -3.335  -0.131  -0.601  0.00  0.00    -0.004 C 
ATOM      2  C   UNL     1      -2.001   0.567  -0.326  0.00  0.00    +0.014 C 
ENDROOT
BRANCH   2   3
ATOM      3  C   UNL     1      -1.081   0.373  -1.504  0.00  0.00    +0.203 C 
ATOM      4  O   UNL     1      -0.017  -0.190  -1.357  0.00  0.00    -0.277 OA
ATOM      5  N   UNL     1      -1.441   0.826  -2.722  0.00  0.00    -0.287 N 
ATOM      6  H   UNL     1      -2.259   1.337  -2.827  0.00  0.00    +0.155 HD
BRANCH   5   7
ATOM      7  C   UNL     1      -0.635   0.559  -3.834  0.00  0.00    +0.033 A 
ATOM      8  C   UNL     1      -0.555   1.478  -4.872  0.00  0.00    +0.025 A 
ATOM      9  C   UNL     1       0.242   1.211  -5.968  0.00  0.00    +0.030 A 
ATOM     10  C   UNL     1       0.958   0.030  -6.033  0.00  0.00    +0.105 A 
ATOM     11  C   UNL     1       0.879  -0.888  -5.002  0.00  0.00    +0.030 A 
ATOM     12  C   UNL     1       0.090  -0.624  -3.900  0.00  0.00    +0.025 A 
BRANCH  10  13
ATOM     13  S   UNL     1       1.973  -0.306  -7.434  0.00  0.00    +0.056 S 
ATOM     14  O   UNL     1       2.112  -1.719  -7.504  0.00  0.00    -0.153 OA
ATOM     15  O   UNL     1       1.449   0.462  -8.508  0.00  0.00    -0.153 OA
BRANCH  13  16
ATOM     16  N   UNL     1       3.478   0.302  -7.106  0.00  0.00    -0.204 NA
ATOM     17  H   UNL     1       4.264  -0.116  -7.490  0.00  0.00    +0.144 HD
ATOM     18  H   UNL     1       3.572   1.076  -6.529  0.00  0.00    +0.144 HD
ENDBRANCH  13  16
ENDBRANCH  10  13
ENDBRANCH   5   7
ENDBRANCH   2   3
BRANCH   2  19
ATOM     19  N   UNL     1      -1.385  -0.011   0.876  0.00  0.00    +0.391 N 
ATOM     20  H   UNL     1      -1.352  -1.015   0.788  0.00  0.00    -0.084 HD
ATOM     21  H   UNL     1      -0.448   0.349   0.979  0.00  0.00    -0.084 HD
BRANCH  19  22
ATOM     22  C   UNL     1      -2.181   0.351   2.056  0.00  0.00    -0.037 C 
BRANCH  22  23
ATOM     23  C   UNL     1      -3.477  -0.419   2.044  0.00  0.00    -0.061 A 
ATOM     24  C   UNL     1      -3.488  -1.746   1.658  0.00  0.00    +0.002 A 
ATOM     25  C   UNL     1      -4.676  -2.453   1.647  0.00  0.00    +0.004 A 
ATOM     26  C   UNL     1      -5.853  -1.831   2.021  0.00  0.00    -0.047 A 
ATOM     27  C   UNL     1      -5.841  -0.504   2.408  0.00  0.00    +0.004 A 
ATOM     28  C   UNL     1      -4.653   0.201   2.423  0.00  0.00    +0.002 A 
BRANCH  26  29
ATOM     29  C   UNL     1      -7.148  -2.601   2.008  0.00  0.00    +0.038 C 
BRANCH  29  30
ATOM     30  C   UNL     1      -7.363  -3.262   3.371  0.00  0.00    -0.013 C 
ATOM     31  C   UNL     1      -7.545  -2.182   4.439  0.00  0.00    +0.007 C 
ATOM     32  C   UNL     1      -8.612  -4.144   3.319  0.00  0.00    +0.007 C 
ENDBRANCH  29  30
ENDBRANCH  26  29
ENDBRANCH  22  23
BRANCH  22  33
ATOM     33  C   UNL     1      -1.397   0.010   3.325  0.00  0.00    -0.027 C 
ATOM     34  C   UNL     1      -0.138   0.877   3.395  0.00  0.00    +0.006 C 
ATOM     35  C   UNL     1      -2.270   0.279   4.552  0.00  0.00    +0.006 C 
ENDBRANCH  22  33
ENDBRANCH  19  22
ENDBRANCH   2  19
TORSDOF 10
