REMARK  Name = ZINC60369214
REMARK  6 active torsions:
REMARK  status: ('A' for Active; 'I' for Inactive)
REMARK    1  A    between atoms: C_4  and  N_17
REMARK    2  A    between atoms: C_5  and  C_7
REMARK    3  A    between atoms: C_7  and  N_8
REMARK    4  A    between atoms: C_12  and  C_14
REMARK    5  A    between atoms: C_18  and  C_20
REMARK    6  A    between atoms: C_20  and  C_21
REMARK                            x       y       z     vdW  Elec       q    Type
REMARK                         _______ _______ _______ _____ _____    ______ ____
ROOT
ATOM      1  C   UNL     1       0.647   1.526  -0.809  0.00  0.00    +0.000 A 
ATOM      2  C   UNL     1       1.944   2.002  -0.883  0.00  0.00    +0.002 A 
ATOM      3  C   UNL     1       2.995   1.214  -0.458  0.00  0.00    +0.023 A 
ATOM      4  C   UNL     1       2.750  -0.057   0.045  0.00  0.00    +0.035 A 
ATOM      5  C   UNL     1       1.447  -0.531   0.119  0.00  0.00    -0.043 A 
ATOM      6  C   UNL     1       0.399   0.261  -0.309  0.00  0.00    +0.003 A 
ENDROOT
BRANCH   4   7
ATOM      7  N   UNL     1       3.813  -0.857   0.477  0.00  0.00    -0.285 N 
ATOM      8  C   UNL     1       5.068  -0.589   0.067  0.00  0.00    +0.218 C 
ATOM      9  O   UNL     1       5.265   0.285  -0.751  0.00  0.00    -0.275 OA
ATOM     10  H   UNL     1       3.647  -1.605   1.072  0.00  0.00    +0.155 HD
BRANCH   8  11
ATOM     11  C   UNL     1       6.228  -1.374   0.625  0.00  0.00    +0.103 C 
BRANCH  11  12
ATOM     12  C   UNL     1       7.531  -0.874  -0.002  0.00  0.00    +0.020 C 
ATOM     13  C   UNL     1       8.726  -1.722   0.491  0.00  0.00    +0.012 C 
ATOM     14  C   UNL     1       9.835  -0.651   0.606  0.00  0.00    +0.027 C 
ATOM     15  C   UNL     1       9.093   0.651   0.800  0.00  0.00    -0.031 C 
ATOM     16  C   UNL     1       7.835   0.531   0.466  0.00  0.00    -0.027 C 
ENDBRANCH  11  12
ENDBRANCH   8  11
ENDBRANCH   4   7
BRANCH   5  17
ATOM     17  C   UNL     1       1.176  -1.910   0.664  0.00  0.00    -0.040 C 
BRANCH  17  18
ATOM     18  N   UNL     1       1.503  -2.913  -0.357  0.00  0.00    +0.390 N 
ATOM     19  C   UNL     1       0.575  -2.780  -1.501  0.00  0.00    -0.077 C 
ATOM     20  C   UNL     1       0.330  -4.231  -1.983  0.00  0.00    -0.020 C 
ATOM     21  C   UNL     1       0.303  -5.007  -0.640  0.00  0.00    -0.008 C 
ATOM     22  C   UNL     1       1.355  -4.266   0.211  0.00  0.00    +0.019 C 
ATOM     23  H   UNL     1       2.451  -2.780  -0.675  0.00  0.00    -0.080 HD
BRANCH  22  24
ATOM     24  C   UNL     1       2.672  -4.995   0.146  0.00  0.00    +0.197 C 
ATOM     25  O   UNL     1       3.646  -4.448  -0.326  0.00  0.00    -0.278 OA
ATOM     26  N   UNL     1       2.768  -6.256   0.614  0.00  0.00    -0.331 N 
ATOM     27  H   UNL     1       1.989  -6.694   0.992  0.00  0.00    +0.145 HD
ATOM     28  H   UNL     1       3.616  -6.725   0.573  0.00  0.00    +0.145 HD
ENDBRANCH  22  24
ENDBRANCH  17  18
ENDBRANCH   5  17
TORSDOF 6
