REMARK  Name = ZINC03379635
REMARK  10 active torsions:
REMARK  status: ('A' for Active; 'I' for Inactive)
REMARK    1  A    between atoms: C_1  and  C_2
REMARK    2  A    between atoms: C_2  and  C_4
REMARK    3  A    between atoms: C_2  and  N_50
REMARK    4  A    between atoms: C_7  and  S_16
REMARK    5  A    between atoms: N_8  and  C_9
REMARK    6  A    between atoms: S_16  and  C_17
REMARK    7  A    between atoms: C_17  and  C_18
REMARK    8  A    between atoms: N_20  and  C_21
REMARK    9  A    between atoms: C_28  and  N_50
REMARK   10  A    between atoms: C_29  and  N_50
REMARK                            x       y       z     vdW  Elec       q    Type
REMARK                         _______ _______ _______ _____ _____    ______ ____
ROOT
ATOM      1  C   UNL     1       1.205   1.745   0.053  0.00  0.00    +0.125 A 
ATOM      2  N   UNL     1      -0.012   1.280   0.059  0.00  0.00    -0.135 NA
ATOM      3  N   UNL     1       0.004  -0.005   0.042  0.00  0.00    -0.122 NA
ATOM      4  C   UNL     1       1.245  -0.436   0.025  0.00  0.00    +0.197 A 
ATOM      5  N   UNL     1       2.052   0.669   0.031  0.00  0.00    -0.275 N 
ENDROOT
BRANCH   5   6
ATOM      6  C   UNL     1       3.454   0.694   0.018  0.00  0.00    +0.050 A 
ATOM      7  C   UNL     1       4.151   1.206   1.104  0.00  0.00    +0.028 A 
ATOM      8  C   UNL     1       5.532   1.225   1.091  0.00  0.00    +0.022 A 
ATOM      9  C   UNL     1       6.221   0.744  -0.008  0.00  0.00    +0.041 A 
ATOM     10  C   UNL     1       5.529   0.238  -1.095  0.00  0.00    +0.022 A 
ATOM     11  C   UNL     1       4.148   0.212  -1.084  0.00  0.00    +0.028 A 
ATOM     12 CL   UNL     1       7.957   0.776  -0.025  0.00  0.00    -0.084 Cl
ENDBRANCH   5   6
BRANCH   1  14
ATOM     13  C   UNL     1       1.369   3.806  -1.315  0.00  0.00    -0.005 C 
ATOM     14  C   UNL     1       1.607   3.197   0.068  0.00  0.00    -0.003 C 
BRANCH  14  17
ATOM     15  C   UNL     1       1.248   5.312   1.192  0.00  0.00    -0.096 C 
ATOM     16  C   UNL     1      -0.627   3.849   0.737  0.00  0.00    -0.096 C 
ATOM     17  N   UNL     1       0.807   3.905   1.090  0.00  0.00    +0.382 N 
ATOM     18  H   UNL     1       0.945   3.446   1.998  0.00  0.00    -0.082 HD
ENDBRANCH  14  17
ENDBRANCH   1  14
BRANCH   4  19
ATOM     19  S   UNL     1       1.770  -2.117  -0.002  0.00  0.00    -0.076 S 
BRANCH  19  20
ATOM     20  C   UNL     1       0.162  -2.949   0.003  0.00  0.00    +0.173 C 
BRANCH  20  21
ATOM     21  C   UNL     1       0.368  -4.441  -0.019  0.00  0.00    +0.228 C 
ATOM     22  O   UNL     1       1.491  -4.898  -0.035  0.00  0.00    -0.275 OA
ATOM     23  N   UNL     1      -0.696  -5.269  -0.019  0.00  0.00    -0.284 N 
ATOM     24  H   UNL     1      -1.592  -4.906   0.060  0.00  0.00    +0.155 HD
BRANCH  23  25
ATOM     25  C   UNL     1      -0.508  -6.651  -0.134  0.00  0.00    +0.047 A 
ATOM     26  C   UNL     1       0.603  -7.252   0.444  0.00  0.00    +0.024 A 
ATOM     27  C   UNL     1       0.784  -8.617   0.333  0.00  0.00    +0.002 A 
ATOM     28  C   UNL     1      -0.135  -9.383  -0.361  0.00  0.00    +0.001 A 
ATOM     29  C   UNL     1      -1.239  -8.788  -0.942  0.00  0.00    +0.017 A 
ATOM     30  C   UNL     1      -1.428  -7.423  -0.831  0.00  0.00    +0.039 A 
ATOM     31 BR   UNL     1      -2.938  -6.609  -1.626  0.00  0.00    -0.048 Br
ENDBRANCH  23  25
ENDBRANCH  20  21
ENDBRANCH  19  20
ENDBRANCH   4  19
TORSDOF 7
