REMARK  Name = ZINC44252137
REMARK  9 active torsions:
REMARK  status: ('A' for Active; 'I' for Inactive)
REMARK    1  A    between atoms: C_1  and  C_2
REMARK    2  A    between atoms: C_5  and  N_8
REMARK    3  A    between atoms: N_8  and  C_9
REMARK    4  A    between atoms: N_8  and  C_16
REMARK    5  A    between atoms: C_12  and  C_15
REMARK    6  A    between atoms: C_19  and  C_22
REMARK    7  A    between atoms: C_22  and  C_24
REMARK    8  A    between atoms: C_22  and  N_28
REMARK    9  A    between atoms: C_24  and  C_25
REMARK                            x       y       z     vdW  Elec       q    Type
REMARK                         _______ _______ _______ _____ _____    ______ ____
ROOT
ATOM      1  C   UNL     1       0.800  -4.615   1.078  0.00  0.00    +0.039 A 
ATOM      2  C   UNL     1       0.159  -4.909   2.276  0.00  0.00    +0.024 A 
ATOM      3  C   UNL     1       0.893  -5.349   3.359  0.00  0.00    +0.004 A 
ATOM      4  C   UNL     1       2.264  -5.498   3.253  0.00  0.00    -0.061 A 
ATOM      5  C   UNL     1       2.905  -5.206   2.063  0.00  0.00    +0.004 A 
ATOM      6  C   UNL     1       2.176  -4.770   0.974  0.00  0.00    +0.024 A 
ENDROOT
BRANCH   1   7
ATOM      7  N   UNL     1       0.059  -4.169  -0.021  0.00  0.00    -0.269 N 
BRANCH   7  12
ATOM      8  C   UNL     1      -0.522   1.391  -0.981  0.00  0.00    +0.044 C 
ATOM      9  C   UNL     1      -0.367  -0.086  -0.726  0.00  0.00    -0.050 A 
ATOM     10  C   UNL     1      -0.863  -0.999  -1.639  0.00  0.00    +0.005 A 
ATOM     11  C   UNL     1      -0.723  -2.354  -1.408  0.00  0.00    +0.024 A 
ATOM     12  C   UNL     1      -0.084  -2.798  -0.258  0.00  0.00    +0.039 A 
ATOM     13  C   UNL     1       0.412  -1.878   0.657  0.00  0.00    +0.024 A 
ATOM     14  C   UNL     1       0.274  -0.525   0.418  0.00  0.00    +0.005 A 
ENDBRANCH   7  12
BRANCH   7  15
ATOM     15  C   UNL     1      -0.538  -5.093  -0.883  0.00  0.00    +0.039 A 
ATOM     16  C   UNL     1       0.190  -5.634  -1.936  0.00  0.00    +0.024 A 
ATOM     17  C   UNL     1      -0.403  -6.547  -2.786  0.00  0.00    +0.005 A 
ATOM     18  C   UNL     1      -1.719  -6.923  -2.589  0.00  0.00    -0.050 A 
ATOM     19  C   UNL     1      -2.446  -6.387  -1.542  0.00  0.00    +0.005 A 
ATOM     20  C   UNL     1      -1.858  -5.478  -0.685  0.00  0.00    +0.024 A 
ATOM     21  C   UNL     1      -2.363  -7.919  -3.519  0.00  0.00    +0.044 C 
ENDBRANCH   7  15
ENDBRANCH   1   7
BRANCH   4  22
ATOM     22  C   UNL     1       3.062  -5.978   4.438  0.00  0.00    -0.035 C 
BRANCH  22  23
ATOM     23  N   UNL     1       4.323  -5.229   4.515  0.00  0.00    +0.383 N 
ATOM     24  H   UNL     1       4.124  -4.245   4.620  0.00  0.00    -0.089 HD
ATOM     25  H   UNL     1       4.858  -5.550   5.309  0.00  0.00    -0.089 HD
ATOM     26  H   UNL     1       4.854  -5.376   3.670  0.00  0.00    -0.089 HD
ENDBRANCH  22  23
BRANCH  22  27
ATOM     27  C   UNL     1       3.364  -7.469   4.279  0.00  0.00    +0.084 C 
BRANCH  27  28
ATOM     28  C   UNL     1       4.054  -7.977   5.519  0.00  0.00    +0.209 C 
ATOM     29  O   UNL     1       4.282  -7.221   6.439  0.00  0.00    -0.276 OA
ATOM     30  N   UNL     1       4.418  -9.272   5.605  0.00  0.00    -0.329 N 
ATOM     31  H   UNL     1       4.236  -9.877   4.869  0.00  0.00    +0.145 HD
ATOM     32  H   UNL     1       4.862  -9.599   6.403  0.00  0.00    +0.145 HD
ENDBRANCH  27  28
ENDBRANCH  22  27
ENDBRANCH   4  22
TORSDOF 7
