REMARK  Name = ZINC36159221
REMARK  10 active torsions:
REMARK  status: ('A' for Active; 'I' for Inactive)
REMARK    1  A    between atoms: C_1  and  C_2
REMARK    2  A    between atoms: C_2  and  C_3
REMARK    3  A    between atoms: C_3  and  C_4
REMARK    4  A    between atoms: C_4  and  C_6
REMARK    5  A    between atoms: C_4  and  O_26
REMARK    6  A    between atoms: C_6  and  N_7
REMARK    7  A    between atoms: N_7  and  C_8
REMARK    8  A    between atoms: N_7  and  C_11
REMARK    9  A    between atoms: C_8  and  C_9
REMARK   10  A    between atoms: C_11  and  C_12
REMARK                            x       y       z     vdW  Elec       q    Type
REMARK                         _______ _______ _______ _____ _____    ______ ____
ROOT
ATOM      1  C   UNL     1       3.515  -4.413  -3.238  0.00  0.00    +0.094 A 
ATOM      2  N   UNL     1       4.395  -4.911  -4.145  0.00  0.00    -0.312 N 
ATOM      3  H   UNL     1       4.058  -5.326  -4.955  0.00  0.00    +0.170 HD
ATOM      4  C   UNL     1       5.724  -4.841  -3.943  0.00  0.00    +0.260 A 
ATOM      5  O   UNL     1       6.502  -5.292  -4.766  0.00  0.00    -0.267 OA
ATOM      6  C   UNL     1       6.207  -4.225  -2.743  0.00  0.00    +0.075 A 
ATOM      7  C   UNL     1       7.602  -4.039  -2.317  0.00  0.00    -0.023 A 
ATOM      8  C   UNL     1       7.801  -3.428  -1.137  0.00  0.00    -0.004 A 
ATOM      9  S   UNL     1       6.170  -3.064  -0.528  0.00  0.00    -0.073 S 
ATOM     10  C   UNL     1       5.226  -3.741  -1.867  0.00  0.00    +0.116 A 
ATOM     11  N   UNL     1       3.927  -3.842  -2.138  0.00  0.00    -0.229 NA
ATOM     12  C   UNL     1       9.262  -3.297  -0.803  0.00  0.00    +0.043 C 
ATOM     13  C   UNL     1       9.966  -4.301  -1.743  0.00  0.00    +0.010 C 
ATOM     14  C   UNL     1       8.969  -4.383  -2.916  0.00  0.00    +0.037 C 
ENDROOT
BRANCH   1  15
ATOM     15  C   UNL     1       2.036  -4.516  -3.509  0.00  0.00    -0.003 C 
BRANCH  15  16
ATOM     16  N   UNL     1       1.296  -3.792  -2.467  0.00  0.00    +0.388 N 
ATOM     17  H   UNL     1       1.585  -4.121  -1.558  0.00  0.00    -0.081 HD
BRANCH  16  18
ATOM     18  C   UNL     1       1.576  -2.354  -2.578  0.00  0.00    -0.046 C 
BRANCH  18  19
ATOM     19  C   UNL     1       0.906  -1.613  -1.419  0.00  0.00    +0.098 C 
BRANCH  19  20
ATOM     20  O   UNL     1       1.502  -2.020  -0.186  0.00  0.00    -0.394 OA
ATOM     21  H   UNL     1       2.450  -1.840  -0.129  0.00  0.00    +0.210 HD
ENDBRANCH  19  20
BRANCH  19  22
ATOM     22  C   UNL     1       1.091  -0.105  -1.603  0.00  0.00    +0.029 C 
BRANCH  22  24
ATOM     23  C   UNL     1       0.502   2.147  -0.697  0.00  0.00    +0.004 C 
ATOM     24  C   UNL     1       0.317   0.640  -0.514  0.00  0.00    -0.001 C 
ENDBRANCH  22  24
ENDBRANCH  19  22
ENDBRANCH  18  19
ENDBRANCH  16  18
BRANCH  16  25
ATOM     25  C   UNL     1      -0.144  -4.025  -2.638  0.00  0.00    -0.051 C 
BRANCH  25  26
ATOM     26  C   UNL     1      -0.451  -5.479  -2.384  0.00  0.00    -0.053 C 
ATOM     27  C   UNL     1      -1.358  -5.812  -1.499  0.00  0.00    +0.002 C 
ENDBRANCH  25  26
ENDBRANCH  16  25
ENDBRANCH  15  16
ENDBRANCH   1  15
TORSDOF 9
