REMARK  Name = ZINC24897529
REMARK  8 active torsions:
REMARK  status: ('A' for Active; 'I' for Inactive)
REMARK    1  A    between atoms: C_1  and  O_2
REMARK    2  A    between atoms: O_2  and  C_3
REMARK    3  A    between atoms: C_5  and  O_30
REMARK    4  A    between atoms: C_7  and  C_9
REMARK    5  A    between atoms: C_9  and  N_10
REMARK    6  A    between atoms: N_13  and  C_16
REMARK    7  A    between atoms: C_16  and  C_17
REMARK    8  A    between atoms: O_30  and  C_31
REMARK                            x       y       z     vdW  Elec       q    Type
REMARK                         _______ _______ _______ _____ _____    ______ ____
ROOT
ATOM      1  N   UNL     1       5.127   8.439  -0.946  0.00  0.00    -0.293 NA
ATOM      2  C   UNL     1       4.234   8.322  -2.107  0.00  0.00    +0.100 C 
ATOM      3  C   UNL     1       2.914   7.682  -1.669  0.00  0.00    +0.100 C 
ATOM      4  N   UNL     1       3.184   6.363  -1.081  0.00  0.00    -0.293 NA
ATOM      5  C   UNL     1       4.077   6.480   0.080  0.00  0.00    +0.100 C 
ATOM      6  C   UNL     1       5.396   7.120  -0.357  0.00  0.00    +0.100 C 
ENDROOT
BRANCH   1   7
ATOM      7  C   UNL     1       6.377   9.119  -1.310  0.00  0.00    +0.161 C 
BRANCH   7  12
ATOM      8  C   UNL     1       8.228   9.873   1.774  0.00  0.00    +0.221 A 
ATOM      9  C   UNL     1       9.111   8.802   1.848  0.00  0.00    +0.134 A 
ATOM     10  C   UNL     1       9.063   7.838   0.847  0.00  0.00    +0.221 A 
ATOM     11  N   UNL     1       8.181   7.974  -0.138  0.00  0.00    -0.196 NA
ATOM     12  C   UNL     1       7.360   9.005  -0.173  0.00  0.00    +0.150 A 
ATOM     13  N   UNL     1       7.378   9.941   0.754  0.00  0.00    -0.196 NA
BRANCH   8  15
ATOM     14  C   UNL     1       7.297  11.904   2.578  0.00  0.00    +0.279 C 
ATOM     15  O   UNL     1       8.236  10.837   2.727  0.00  0.00    -0.479 OA
ENDBRANCH   8  15
BRANCH  10  16
ATOM     16  O   UNL     1       9.903   6.776   0.876  0.00  0.00    -0.479 OA
ATOM     17  C   UNL     1       9.790   5.830  -0.190  0.00  0.00    +0.279 C 
ENDBRANCH  10  16
ENDBRANCH   7  12
ENDBRANCH   1   7
BRANCH   4  18
ATOM     18  C   UNL     1       1.933   5.683  -0.716  0.00  0.00    +0.157 C 
BRANCH  18  19
ATOM     19  C   UNL     1       2.228   4.252  -0.349  0.00  0.00    +0.135 C 
ATOM     20  N   UNL     1       3.453   3.874  -0.409  0.00  0.00    -0.117 NA
ATOM     21  S   UNL     1       3.885   2.318  -0.032  0.00  0.00    +0.102 S 
ATOM     22  O   UNL     1       4.370   2.338   1.304  0.00  0.00    -0.146 OA
ATOM     23  O   UNL     1       4.657   1.830  -1.120  0.00  0.00    -0.146 OA
ATOM     24  C   UNL     1       2.383   1.392  -0.016  0.00  0.00    +0.135 A 
ATOM     25  C   UNL     1       2.400   0.016  -0.022  0.00  0.00    +0.051 A 
ATOM     26  C   UNL     1       1.206  -0.686  -0.013  0.00  0.00    +0.043 A 
ATOM     27  C   UNL     1       0.002  -0.004   0.002  0.00  0.00    +0.022 A 
ATOM     28  C   UNL     1      -0.017   1.377   0.010  0.00  0.00    +0.027 A 
ATOM     29  C   UNL     1       1.178   2.086   0.002  0.00  0.00    +0.060 A 
ATOM     30  N   UNL     1       1.176   3.478   0.015  0.00  0.00    -0.299 N 
ATOM     31 CL   UNL     1       1.220  -2.422  -0.019  0.00  0.00    -0.083 Cl
ATOM     32  H   UNL     1       0.239   3.947   0.350  0.00  0.00    +0.153 HD
ENDBRANCH  18  19
ENDBRANCH   4  18
TORSDOF 6
