REMARK  Name = ZINC58417723
REMARK  5 active torsions:
REMARK  status: ('A' for Active; 'I' for Inactive)
REMARK    1  A    between atoms: C_1  and  C_2
REMARK    2  A    between atoms: C_6  and  C_7
REMARK    3  A    between atoms: N_9  and  C_10
REMARK    4  A    between atoms: C_18  and  C_22
REMARK    5  A    between atoms: C_18  and  C_23
REMARK                            x       y       z     vdW  Elec       q    Type
REMARK                         _______ _______ _______ _____ _____    ______ ____
ROOT
ATOM      1  C   UNL     1      -0.565   1.495   0.059  0.00  0.00    +0.048 C 
ATOM      2  C   UNL     1      -0.335   0.006   0.027  0.00  0.00    +0.011 A 
ATOM      3  C   UNL     1      -0.261  -0.811  -1.111  0.00  0.00    +0.062 A 
ATOM      4  C   UNL     1      -0.039  -2.111  -0.669  0.00  0.00    +0.117 A 
ATOM      5  O   UNL     1       0.023  -2.083   0.655  0.00  0.00    -0.454 OA
ATOM      6  C   UNL     1      -0.149  -0.817   1.100  0.00  0.00    +0.193 A 
ATOM      7  C   UNL     1       0.092  -3.282  -1.609  0.00  0.00    +0.082 C 
ATOM      8  C   UNL     1      -0.544  -2.924  -2.955  0.00  0.00    -0.021 C 
ATOM      9  C   UNL     1       0.027  -1.607  -3.490  0.00  0.00    +0.086 C 
ATOM     10  C   UNL     1      -0.377  -0.488  -2.542  0.00  0.00    +0.167 C 
ATOM     11  O   UNL     1      -0.765   0.591  -2.936  0.00  0.00    -0.292 OA
ATOM     12  C   UNL     1      -2.057  -2.781  -2.776  0.00  0.00    +0.012 C 
ATOM     13  C   UNL     1      -0.260  -4.042  -3.960  0.00  0.00    +0.012 C 
ENDROOT
BRANCH   6  14
ATOM     14  C   UNL     1      -0.141  -0.398   2.506  0.00  0.00    +0.284 C 
ATOM     15  O   UNL     1      -0.310   0.773   2.793  0.00  0.00    -0.266 OA
ATOM     16  N   UNL     1       0.053  -1.309   3.480  0.00  0.00    -0.275 N 
ATOM     17  H   UNL     1       0.115  -2.251   3.257  0.00  0.00    +0.155 HD
BRANCH  16  18
ATOM     18  C   UNL     1       0.165  -0.896   4.814  0.00  0.00    +0.099 A 
ATOM     19  C   UNL     1      -0.701  -1.371   5.761  0.00  0.00    +0.030 A 
ATOM     20  C   UNL     1      -0.566  -0.941   7.088  0.00  0.00    +0.019 A 
ATOM     21  C   UNL     1       0.411  -0.067   7.421  0.00  0.00    +0.086 A 
ATOM     22  N   UNL     1       1.272   0.406   6.482  0.00  0.00    -0.328 N 
ATOM     23  C   UNL     1       1.177   0.011   5.198  0.00  0.00    +0.270 A 
ATOM     24  O   UNL     1       1.960   0.441   4.367  0.00  0.00    -0.266 OA
ATOM     25  H   UNL     1       1.966   1.033   6.740  0.00  0.00    +0.168 HD
ENDBRANCH  16  18
ENDBRANCH   6  14
TORSDOF 2
