REMARK  Name = ZINC09512761
REMARK  12 active torsions:
REMARK  status: ('A' for Active; 'I' for Inactive)
REMARK    1  A    between atoms: C_1  and  C_2
REMARK    2  A    between atoms: C_2  and  C_4
REMARK    3  A    between atoms: C_2  and  N_46
REMARK    4  A    between atoms: C_7  and  S_10
REMARK    5  A    between atoms: S_10  and  N_13
REMARK    6  A    between atoms: C_14  and  C_15
REMARK    7  A    between atoms: C_14  and  N_46
REMARK    8  A    between atoms: C_15  and  C_17
REMARK    9  A    between atoms: C_15  and  O_27
REMARK   10  A    between atoms: C_17  and  O_18
REMARK   11  A    between atoms: O_18  and  C_19
REMARK   12  A    between atoms: C_22  and  C_25
REMARK                            x       y       z     vdW  Elec       q    Type
REMARK                         _______ _______ _______ _____ _____    ______ ____
ROOT
ATOM      1  N   UNL     1      -2.239   3.808   5.821  0.00  0.00    +0.385 N 
ATOM      2  H   UNL     1      -2.208   4.796   5.542  0.00  0.00    -0.085 HD
ATOM      3  H   UNL     1      -1.294   3.408   5.768  0.00  0.00    -0.085 HD
ENDROOT
BRANCH   1   5
ATOM      4  C   UNL     1      -4.294   3.975   4.490  0.00  0.00    -0.009 C 
ATOM      5  C   UNL     1      -3.131   3.072   4.906  0.00  0.00    -0.044 C 
BRANCH   5   6
ATOM      6  C   UNL     1      -2.353   2.659   3.683  0.00  0.00    -0.062 A 
ATOM      7  C   UNL     1      -2.559   1.412   3.122  0.00  0.00    +0.004 A 
ATOM      8  C   UNL     1      -1.846   1.033   2.000  0.00  0.00    +0.029 A 
ATOM      9  C   UNL     1      -0.927   1.900   1.439  0.00  0.00    +0.105 A 
ATOM     10  C   UNL     1      -0.717   3.145   2.004  0.00  0.00    +0.029 A 
ATOM     11  C   UNL     1      -1.435   3.526   3.122  0.00  0.00    +0.004 A 
BRANCH   9  12
ATOM     12  S   UNL     1      -0.017   1.417   0.010  0.00  0.00    +0.056 S 
ATOM     13  O   UNL     1       0.002  -0.004   0.002  0.00  0.00    -0.153 OA
ATOM     14  O   UNL     1       1.172   2.195   0.003  0.00  0.00    -0.153 OA
BRANCH  12  15
ATOM     15  N   UNL     1      -0.897   1.885  -1.312  0.00  0.00    -0.204 NA
ATOM     16  H   UNL     1      -1.201   1.223  -1.952  0.00  0.00    +0.144 HD
ATOM     17  H   UNL     1      -1.110   2.822  -1.446  0.00  0.00    +0.144 HD
ENDBRANCH  12  15
ENDBRANCH   9  12
ENDBRANCH   5   6
ENDBRANCH   1   5
BRANCH   1  18
ATOM     18  C   UNL     1      -2.732   3.710   7.207  0.00  0.00    -0.047 C 
BRANCH  18  19
ATOM     19  C   UNL     1      -1.789   4.482   8.132  0.00  0.00    +0.135 C 
BRANCH  19  20
ATOM     20  O   UNL     1      -0.476   3.922   8.048  0.00  0.00    -0.390 OA
ATOM     21  H   UNL     1      -0.429   2.991   8.305  0.00  0.00    +0.210 HD
ENDBRANCH  19  20
BRANCH  19  22
ATOM     22  C   UNL     1      -2.294   4.385   9.573  0.00  0.00    +0.258 C 
BRANCH  22  23
ATOM     23  O   UNL     1      -1.480   5.200  10.419  0.00  0.00    -0.489 OA
BRANCH  23  24
ATOM     24  C   UNL     1      -1.796   5.226  11.739  0.00  0.00    +0.121 A 
ATOM     25  C   UNL     1      -2.874   4.484  12.208  0.00  0.00    +0.047 A 
ATOM     26  C   UNL     1      -3.194   4.503  13.547  0.00  0.00    +0.022 A 
ATOM     27  C   UNL     1      -2.441   5.279  14.433  0.00  0.00    +0.052 A 
ATOM     28  C   UNL     1      -1.362   6.028  13.956  0.00  0.00    +0.022 A 
ATOM     29  C   UNL     1      -1.045   5.999  12.616  0.00  0.00    +0.047 A 
BRANCH  27  30
ATOM     30  C   UNL     1      -2.774   5.306  15.825  0.00  0.00    +0.099 C 
ATOM     31  N   UNL     1      -3.038   5.327  16.930  0.00  0.00    -0.191 NA
ENDBRANCH  27  30
ENDBRANCH  23  24
ENDBRANCH  22  23
ENDBRANCH  19  22
ENDBRANCH  18  19
ENDBRANCH   1  18
TORSDOF 11
