REMARK  Name = ZINC32124859
REMARK  9 active torsions:
REMARK  status: ('A' for Active; 'I' for Inactive)
REMARK    1  A    between atoms: C_1  and  C_2
REMARK    2  A    between atoms: C_2  and  C_3
REMARK    3  A    between atoms: C_3  and  C_4
REMARK    4  A    between atoms: C_4  and  O_5
REMARK    5  A    between atoms: O_5  and  C_6
REMARK    6  A    between atoms: C_6  and  C_8
REMARK    7  A    between atoms: C_10  and  N_15
REMARK    8  A    between atoms: C_16  and  C_18
REMARK    9  A    between atoms: C_18  and  N_19
REMARK                            x       y       z     vdW  Elec       q    Type
REMARK                         _______ _______ _______ _____ _____    ______ ____
ROOT
ATOM      1  N   UNL     1       3.621  -0.675  -0.038  0.00  0.00    -0.284 N 
ATOM      2  C   UNL     1       4.736  -0.094   0.447  0.00  0.00    +0.237 C 
ATOM      3  O   UNL     1       4.670   0.994   0.980  0.00  0.00    -0.274 OA
ATOM      4  H   UNL     1       3.666  -1.697  -0.444  0.00  0.00    +0.155 HD
ENDROOT
BRANCH   1   7
ATOM      5  C   UNL     1       1.181   2.085  -0.188  0.00  0.00    +0.079 A 
ATOM      6  C   UNL     1       2.395   1.395  -0.199  0.00  0.00    +0.039 A 
ATOM      7  C   UNL     1       2.407   0.021  -0.027  0.00  0.00    +0.034 A 
ATOM      8  C   UNL     1       1.213  -0.668   0.157  0.00  0.00    +0.025 A 
ATOM      9  C   UNL     1       0.011   0.013   0.168  0.00  0.00    +0.022 A 
ATOM     10  C   UNL     1      -0.013   1.384  -0.003  0.00  0.00    +0.055 A 
ATOM     11 CL   UNL     1      -1.527   2.234   0.004  0.00  0.00    -0.083 Cl
BRANCH   5  12
ATOM     12  C   UNL     1       1.160   3.550  -0.372  0.00  0.00    +0.341 C 
ATOM     13  O   UNL     1       0.103   4.148  -0.362  0.00  0.00    -0.245 OA
BRANCH  12  14
ATOM     14  O   UNL     1       2.313   4.224  -0.550  0.00  0.00    -0.461 OA
BRANCH  14  15
ATOM     15  C   UNL     1       2.217   5.662  -0.724  0.00  0.00    +0.232 C 
BRANCH  15  16
ATOM     16  C   UNL     1       3.617   6.248  -0.911  0.00  0.00    +0.041 C 
BRANCH  16  18
ATOM     17  C   UNL     1       4.916   8.350  -1.281  0.00  0.00    +0.004 C 
ATOM     18  C   UNL     1       3.515   7.764  -1.094  0.00  0.00    -0.000 C 
ENDBRANCH  16  18
ENDBRANCH  15  16
ENDBRANCH  14  15
ENDBRANCH  12  14
ENDBRANCH   5  12
ENDBRANCH   1   7
BRANCH   2  19
ATOM     19  C   UNL     1       6.065  -0.794   0.327  0.00  0.00    +0.217 C 
BRANCH  19  20
ATOM     20  N   UNL     1       7.111   0.038   0.926  0.00  0.00    -0.338 N 
ATOM     21  C   UNL     1       7.915   0.906   0.238  0.00  0.00    +0.087 A 
ATOM     22  C   UNL     1       8.762   1.513   1.084  0.00  0.00    +0.027 A 
ATOM     23  C   UNL     1       8.485   0.983   2.421  0.00  0.00    +0.001 A 
ATOM     24  C   UNL     1       7.437   0.058   2.264  0.00  0.00    +0.050 A 
ATOM     25  C   UNL     1       6.949  -0.618   3.377  0.00  0.00    +0.027 A 
ATOM     26  C   UNL     1       7.494  -0.379   4.620  0.00  0.00    +0.017 A 
ATOM     27  C   UNL     1       8.528   0.534   4.776  0.00  0.00    +0.019 A 
ATOM     28  C   UNL     1       9.026   1.215   3.688  0.00  0.00    +0.025 A 
ATOM     29 BR   UNL     1       9.258   0.844   6.493  0.00  0.00    -0.050 Br
ENDBRANCH  19  20
ENDBRANCH   2  19
TORSDOF 8
