REMARK  Name = ZINC15544038
REMARK  9 active torsions:
REMARK  status: ('A' for Active; 'I' for Inactive)
REMARK    1  A    between atoms: C_1  and  C_2
REMARK    2  A    between atoms: C_2  and  O_3
REMARK    3  A    between atoms: O_3  and  C_4
REMARK    4  A    between atoms: C_4  and  C_6
REMARK    5  A    between atoms: C_10  and  N_11
REMARK    6  A    between atoms: C_12  and  C_14
REMARK    7  A    between atoms: C_14  and  N_73
REMARK    8  A    between atoms: C_17  and  C_20
REMARK    9  A    between atoms: C_30  and  C_34
REMARK                            x       y       z     vdW  Elec       q    Type
REMARK                         _______ _______ _______ _____ _____    ______ ____
ROOT
ATOM      1  N   UNL     1       6.616   3.961  -3.068  0.00  0.00    -0.281 N 
ATOM      2  C   UNL     1       5.450   3.389  -2.708  0.00  0.00    +0.201 C 
ATOM      3  O   UNL     1       4.542   3.307  -3.507  0.00  0.00    -0.278 OA
ATOM      4  H   UNL     1       7.343   4.026  -2.429  0.00  0.00    +0.155 HD
ENDROOT
BRANCH   1   9
ATOM      5  C   UNL     1       7.891   5.072  -4.907  0.00  0.00    +0.091 A 
ATOM      6  C   UNL     1       7.800   5.504  -6.292  0.00  0.00    -0.021 A 
ATOM      7  C   UNL     1       6.620   5.252  -6.896  0.00  0.00    -0.004 A 
ATOM      8  S   UNL     1       5.640   4.448  -5.660  0.00  0.00    -0.077 S 
ATOM      9  C   UNL     1       6.777   4.456  -4.353  0.00  0.00    +0.086 A 
ATOM     10  C   UNL     1       6.239   5.580  -8.307  0.00  0.00    +0.046 C 
ATOM     11  C   UNL     1       7.258   6.586  -8.861  0.00  0.00    -0.009 C 
ATOM     12  C   UNL     1       8.669   6.084  -8.543  0.00  0.00    +0.008 C 
ATOM     13  C   UNL     1       8.934   6.193  -7.041  0.00  0.00    +0.037 C 
ATOM     14  C   UNL     1       7.084   6.711 -10.376  0.00  0.00    +0.008 C 
BRANCH   5  15
ATOM     15  C   UNL     1       9.112   5.280  -4.125  0.00  0.00    +0.342 C 
ATOM     16  O   UNL     1       9.981   4.429  -4.116  0.00  0.00    -0.245 OA
BRANCH  15  17
ATOM     17  O   UNL     1       9.273   6.415  -3.415  0.00  0.00    -0.461 OA
BRANCH  17  19
ATOM     18  C   UNL     1      10.510   7.895  -1.927  0.00  0.00    +0.048 C 
ATOM     19  C   UNL     1      10.508   6.553  -2.663  0.00  0.00    +0.229 C 
ENDBRANCH  17  19
ENDBRANCH  15  17
ENDBRANCH   5  15
ENDBRANCH   1   9
BRANCH   2  20
ATOM     20  C   UNL     1       5.275   2.851  -1.311  0.00  0.00    +0.019 C 
BRANCH  20  26
ATOM     21  C   UNL     1       3.799   1.541   0.090  0.00  0.00    -0.077 C 
ATOM     22  C   UNL     1       2.437   0.844   0.136  0.00  0.00    -0.006 C 
ATOM     23  C   UNL     1       1.328   1.894   0.024  0.00  0.00    +0.072 C 
ATOM     24  C   UNL     1       1.513   2.686  -1.273  0.00  0.00    -0.006 C 
ATOM     25  C   UNL     1       2.902   3.328  -1.278  0.00  0.00    -0.077 C 
ATOM     26  N   UNL     1       3.925   2.264  -1.193  0.00  0.00    +0.385 N 
ATOM     27  H   UNL     1       3.781   1.601  -1.964  0.00  0.00    -0.081 HD
BRANCH  23  28
ATOM     28  C   UNL     1      -0.014   1.209   0.009  0.00  0.00    +0.219 C 
ATOM     29  O   UNL     1      -0.125   0.103  -0.478  0.00  0.00    -0.275 OA
ATOM     30  N   UNL     1      -1.092   1.826   0.531  0.00  0.00    -0.301 N 
ATOM     31  C   UNL     1      -2.343   1.103   0.593  0.00  0.00    +0.108 C 
ATOM     32  C   UNL     1      -3.141   1.320  -0.710  0.00  0.00    +0.019 C 
ATOM     33  C   UNL     1      -3.658   2.696  -0.768  0.00  0.00    +0.002 C 
ATOM     34  C   UNL     1      -2.577   3.772  -0.802  0.00  0.00    +0.002 C 
ATOM     35  C   UNL     1      -2.148   4.094   0.608  0.00  0.00    +0.019 C 
ATOM     36  C   UNL     1      -0.949   3.215   1.010  0.00  0.00    +0.108 C 
ENDBRANCH  23  28
ENDBRANCH  20  26
ENDBRANCH   2  20
TORSDOF 7
