REMARK  Name = ZINC48087882
REMARK  4 active torsions:
REMARK  status: ('A' for Active; 'I' for Inactive)
REMARK    1  A    between atoms: C_2  and  C_21
REMARK    2  A    between atoms: N_5  and  C_6
REMARK    3  A    between atoms: C_12  and  C_14
REMARK    4  A    between atoms: C_21  and  N_22
REMARK                            x       y       z     vdW  Elec       q    Type
REMARK                         _______ _______ _______ _____ _____    ______ ____
ROOT
ATOM      1  C   UNL     1      -1.463   0.515  -0.915  0.00  0.00    +0.112 C 
ATOM      2  C   UNL     1      -2.641   1.063  -0.108  0.00  0.00    +0.046 C 
ATOM      3  C   UNL     1      -3.476  -0.104   0.428  0.00  0.00    +0.110 C 
ATOM      4  N   UNL     1      -3.864  -0.964  -0.698  0.00  0.00    -0.301 N 
ATOM      5  C   UNL     1      -2.816  -1.472  -1.593  0.00  0.00    +0.110 C 
ATOM      6  C   UNL     1      -1.989  -0.289  -2.106  0.00  0.00    +0.046 C 
ATOM      7  C   UNL     1      -5.158  -1.280  -0.906  0.00  0.00    +0.219 C 
ATOM      8  O   UNL     1      -5.475  -1.920  -1.887  0.00  0.00    -0.275 OA
ENDROOT
BRANCH   7   9
ATOM      9  C   UNL     1      -6.209  -0.840   0.079  0.00  0.00    +0.075 C 
ATOM     10  C   UNL     1      -6.195  -1.798   1.287  0.00  0.00    +0.013 C 
ATOM     11  C   UNL     1      -6.839  -1.104   2.456  0.00  0.00    +0.001 C 
ATOM     12  C   UNL     1      -8.340  -1.428   2.581  0.00  0.00    +0.000 C 
ATOM     13  C   UNL     1      -9.064  -1.437   1.221  0.00  0.00    +0.000 C 
ATOM     14  C   UNL     1      -8.630  -0.304   0.330  0.00  0.00    +0.001 C 
ATOM     15  C   UNL     1      -7.501  -0.811  -0.591  0.00  0.00    +0.013 C 
ENDBRANCH   7   9
BRANCH   1  20
ATOM     16  C   UNL     1      -1.104   2.839  -1.792  0.00  0.00    +0.135 A 
ATOM     17  C   UNL     1      -0.016   3.555  -2.162  0.00  0.00    +0.100 A 
ATOM     18  N   UNL     1       1.042   2.757  -1.981  0.00  0.00    -0.133 NA
ATOM     19  N   UNL     1       0.637   1.623  -1.530  0.00  0.00    -0.065 NA
ATOM     20  N   UNL     1      -0.644   1.628  -1.401  0.00  0.00    -0.248 N 
BRANCH  17  21
ATOM     21  C   UNL     1      -0.001   4.971  -2.676  0.00  0.00    +0.164 C 
BRANCH  21  22
ATOM     22  N   UNL     1       0.255   5.891  -1.565  0.00  0.00    -0.294 N 
ATOM     23  C   UNL     1       0.314   7.219  -1.789  0.00  0.00    +0.297 C 
ATOM     24  O   UNL     1       0.154   7.653  -2.913  0.00  0.00    -0.253 OA
ATOM     25  N   UNL     1       0.549   8.065  -0.767  0.00  0.00    -0.313 N 
ATOM     26  H   UNL     1       0.382   5.545  -0.668  0.00  0.00    +0.151 HD
ATOM     27  H   UNL     1       0.676   7.719   0.130  0.00  0.00    +0.146 HD
ATOM     28  H   UNL     1       0.591   9.021  -0.928  0.00  0.00    +0.146 HD
ENDBRANCH  21  22
ENDBRANCH  17  21
ENDBRANCH   1  20
TORSDOF 4
