REMARK  Name = ZINC38657862
REMARK  12 active torsions:
REMARK  status: ('A' for Active; 'I' for Inactive)
REMARK    1  A    between atoms: C_1  and  C_2
REMARK    2  A    between atoms: C_2  and  C_3
REMARK    3  A    between atoms: C_2  and  C_4
REMARK    4  A    between atoms: C_2  and  C_5
REMARK    5  A    between atoms: C_8  and  O_11
REMARK    6  A    between atoms: O_11  and  C_12
REMARK    7  A    between atoms: C_12  and  C_13
REMARK    8  A    between atoms: C_13  and  O_15
REMARK    9  A    between atoms: O_15  and  C_16
REMARK   10  A    between atoms: C_23  and  N_39
REMARK   11  A    between atoms: C_24  and  C_37
REMARK   12  A    between atoms: C_25  and  C_27
REMARK                            x       y       z     vdW  Elec       q    Type
REMARK                         _______ _______ _______ _____ _____    ______ ____
ROOT
ATOM      1  C   UNL     1       6.339  -2.283  -7.588  0.00  0.00    +0.135 A 
ATOM      2  C   UNL     1       5.553  -3.038  -8.447  0.00  0.00    +0.047 A 
ATOM      3  C   UNL     1       6.102  -3.570  -9.597  0.00  0.00    +0.012 A 
ATOM      4  C   UNL     1       7.436  -3.354  -9.897  0.00  0.00    +0.008 A 
ATOM      5  C   UNL     1       8.226  -2.602  -9.042  0.00  0.00    +0.138 A 
ATOM      6  C   UNL     1       7.673  -2.061  -7.888  0.00  0.00    +0.093 A 
ATOM      7  O   UNL     1       9.534  -2.379  -9.319  0.00  0.00    -0.441 OA
ATOM      8  C   UNL     1      10.180  -3.175 -10.188  0.00  0.00    +0.199 C 
ATOM      9  C   UNL     1       9.517  -3.942 -11.086  0.00  0.00    +0.098 C 
ATOM     10  C   UNL     1       8.016  -3.943 -11.155  0.00  0.00    +0.098 C 
ENDROOT
BRANCH  10  11
ATOM     11  C   UNL     1       7.571  -3.125 -12.340  0.00  0.00    -0.027 A 
ATOM     12  C   UNL     1       7.975  -1.832 -12.470  0.00  0.00    +0.005 A 
ATOM     13  C   UNL     1       7.574  -1.060 -13.558  0.00  0.00    +0.001 A 
ATOM     14  C   UNL     1       6.766  -1.577 -14.524  0.00  0.00    +0.008 A 
ATOM     15  C   UNL     1       6.328  -2.908 -14.425  0.00  0.00    -0.018 A 
ATOM     16  C   UNL     1       6.741  -3.695 -13.320  0.00  0.00    -0.014 A 
ATOM     17  C   UNL     1       6.308  -5.029 -13.224  0.00  0.00    +0.009 A 
ATOM     18  C   UNL     1       5.504  -5.547 -14.193  0.00  0.00    +0.001 A 
ATOM     19  C   UNL     1       5.103  -4.775 -15.282  0.00  0.00    +0.001 A 
ATOM     20  C   UNL     1       5.492  -3.477 -15.401  0.00  0.00    +0.008 A 
ENDBRANCH  10  11
BRANCH   8  21
ATOM     21  N   UNL     1      11.552  -3.210 -10.166  0.00  0.00    -0.328 N 
ATOM     22  H   UNL     1      12.041  -2.665  -9.530  0.00  0.00    +0.145 HD
ATOM     23  H   UNL     1      12.032  -3.779 -10.788  0.00  0.00    +0.145 HD
ENDBRANCH   8  21
BRANCH   9  24
ATOM     24  C   UNL     1      10.262  -4.770 -11.986  0.00  0.00    +0.101 C 
ATOM     25  N   UNL     1      10.853  -5.426 -12.701  0.00  0.00    -0.191 NA
ENDBRANCH   9  24
BRANCH   1  26
ATOM     26  O   UNL     1       5.800  -1.759  -6.456  0.00  0.00    -0.423 OA
BRANCH  26  27
ATOM     27  C   UNL     1       5.603  -2.580  -5.412  0.00  0.00    +0.350 C 
ATOM     28  O   UNL     1       5.819  -3.763  -5.525  0.00  0.00    -0.247 OA
BRANCH  27  29
ATOM     29  C   UNL     1       5.113  -2.026  -4.099  0.00  0.00    +0.349 C 
BRANCH  29  30
ATOM     30  O   UNL     1       4.983  -3.089  -3.152  0.00  0.00    -0.481 OA
BRANCH  30  34
ATOM     31  C   UNL     1       3.663  -2.082   0.624  0.00  0.00    -0.042 A 
ATOM     32  C   UNL     1       3.957  -3.399   0.324  0.00  0.00    +0.008 A 
ATOM     33  C   UNL     1       4.399  -3.739  -0.940  0.00  0.00    +0.046 A 
ATOM     34  C   UNL     1       4.548  -2.757  -1.909  0.00  0.00    +0.121 A 
ATOM     35  C   UNL     1       4.252  -1.436  -1.605  0.00  0.00    +0.046 A 
ATOM     36  C   UNL     1       3.805  -1.102  -0.341  0.00  0.00    +0.008 A 
BRANCH  31  38
ATOM     37  C   UNL     1       1.791  -1.085   1.908  0.00  0.00    +0.015 C 
ATOM     38  C   UNL     1       3.182  -1.714   2.004  0.00  0.00    -0.013 C 
ATOM     39  C   UNL     1       4.152  -0.713   2.633  0.00  0.00    +0.015 C 
ATOM     40  C   UNL     1       3.113  -2.972   2.872  0.00  0.00    +0.015 C 
ENDBRANCH  31  38
ENDBRANCH  30  34
ENDBRANCH  29  30
ENDBRANCH  27  29
ENDBRANCH  26  27
ENDBRANCH   1  26
TORSDOF 9
