REMARK  Name = ZINC39679108
REMARK  11 active torsions:
REMARK  status: ('A' for Active; 'I' for Inactive)
REMARK    1  A    between atoms: C_1  and  C_2
REMARK    2  A    between atoms: C_6  and  C_8
REMARK    3  A    between atoms: C_8  and  C_9
REMARK    4  A    between atoms: C_13  and  C_22
REMARK    5  A    between atoms: N_24  and  C_25
REMARK    6  A    between atoms: C_25  and  C_26
REMARK    7  A    between atoms: C_26  and  C_27
REMARK    8  A    between atoms: C_27  and  C_28
REMARK    9  A    between atoms: C_28  and  N_29
REMARK   10  A    between atoms: N_29  and  C_30
REMARK   11  A    between atoms: N_29  and  C_31
REMARK                            x       y       z     vdW  Elec       q    Type
REMARK                         _______ _______ _______ _____ _____    ______ ____
ROOT
ATOM      1  C   UNL     1       1.640  -3.057   2.948  0.00  0.00    +0.220 C 
ATOM      2  O   UNL     1       2.572  -2.707   2.256  0.00  0.00    -0.275 OA
ATOM      3  N   UNL     1       1.865  -3.756   4.078  0.00  0.00    -0.300 N 
ATOM      4  C   UNL     1       0.864  -4.273   5.041  0.00  0.00    +0.121 C 
ATOM      5  C   UNL     1       1.397  -5.665   5.449  0.00  0.00    +0.100 C 
ATOM      6  C   UNL     1       2.910  -5.598   5.185  0.00  0.00    -0.004 C 
ATOM      7  C   UNL     1       3.169  -4.188   4.636  0.00  0.00    +0.115 C 
ATOM      8  C   UNL     1       3.683  -5.811   6.483  0.00  0.00    -0.010 C 
ATOM      9  C   UNL     1       5.185  -5.799   6.185  0.00  0.00    -0.082 C 
ATOM     10  N   UNL     1       5.504  -6.860   5.223  0.00  0.00    +0.379 N 
ATOM     11  C   UNL     1       4.829  -6.597   3.946  0.00  0.00    -0.082 C 
ATOM     12  C   UNL     1       3.312  -6.644   4.149  0.00  0.00    -0.010 C 
ATOM     13  H   UNL     1       6.502  -6.889   5.074  0.00  0.00    -0.086 HD
ATOM     14  H   UNL     1       5.195  -7.748   5.588  0.00  0.00    -0.086 HD
ENDROOT
BRANCH   5  15
ATOM     15  C   UNL     1       1.128  -5.922   6.909  0.00  0.00    +0.218 C 
ATOM     16  O   UNL     1       1.099  -4.997   7.693  0.00  0.00    -0.275 OA
ATOM     17  N   UNL     1       0.919  -7.181   7.345  0.00  0.00    -0.315 N 
ATOM     18  H   UNL     1       0.942  -7.921   6.718  0.00  0.00    +0.149 HD
BRANCH  17  19
ATOM     19  C   UNL     1       0.657  -7.431   8.764  0.00  0.00    +0.104 C 
BRANCH  19  20
ATOM     20  C   UNL     1       0.457  -8.931   8.989  0.00  0.00    +0.017 C 
BRANCH  20  21
ATOM     21  C   UNL     1       0.184  -9.193  10.472  0.00  0.00    -0.017 C 
BRANCH  21  22
ATOM     22  C   UNL     1      -0.017 -10.693  10.696  0.00  0.00    -0.080 C 
BRANCH  22  23
ATOM     23  N   UNL     1      -0.279 -10.944  12.120  0.00  0.00    +0.376 N 
ATOM     24  C   UNL     1      -1.554 -10.320  12.500  0.00  0.00    -0.097 C 
ATOM     25  C   UNL     1      -0.352 -12.392  12.356  0.00  0.00    -0.097 C 
ATOM     26  H   UNL     1       0.467 -10.550  12.674  0.00  0.00    -0.083 HD
ENDBRANCH  22  23
ENDBRANCH  21  22
ENDBRANCH  20  21
ENDBRANCH  19  20
ENDBRANCH  17  19
ENDBRANCH   5  15
BRANCH   1  27
ATOM     27  C   UNL     1       0.230  -2.711   2.545  0.00  0.00    +0.131 C 
BRANCH  27  33
ATOM     28  C   UNL     1       0.450   1.664   0.125  0.00  0.00    +0.044 C 
ATOM     29  C   UNL     1       0.358   0.161   0.097  0.00  0.00    -0.050 A 
ATOM     30  C   UNL     1       0.296  -0.505  -1.113  0.00  0.00    +0.003 A 
ATOM     31  C   UNL     1       0.212  -1.885  -1.139  0.00  0.00    +0.001 A 
ATOM     32  C   UNL     1       0.191  -2.599   0.044  0.00  0.00    +0.004 A 
ATOM     33  C   UNL     1       0.254  -1.933   1.254  0.00  0.00    -0.038 A 
ATOM     34  C   UNL     1       0.342  -0.553   1.280  0.00  0.00    +0.007 A 
ENDBRANCH  27  33
ENDBRANCH   1  27
TORSDOF 8
