REMARK  Name = ZINC43093358
REMARK  14 active torsions:
REMARK  status: ('A' for Active; 'I' for Inactive)
REMARK    1  A    between atoms: C_1  and  C_2
REMARK    2  A    between atoms: C_2  and  C_3
REMARK    3  A    between atoms: C_3  and  C_5
REMARK    4  A    between atoms: C_3  and  N_23
REMARK    5  A    between atoms: C_5  and  C_7
REMARK    6  A    between atoms: C_5  and  N_14
REMARK    7  A    between atoms: N_14  and  C_15
REMARK    8  A    between atoms: N_14  and  C_18
REMARK    9  A    between atoms: C_15  and  C_16
REMARK   10  A    between atoms: C_16  and  O_17
REMARK   11  A    between atoms: C_18  and  C_19
REMARK   12  A    between atoms: C_18  and  C_21
REMARK   13  A    between atoms: C_19  and  C_20
REMARK   14  A    between atoms: C_21  and  C_22
REMARK                            x       y       z     vdW  Elec       q    Type
REMARK                         _______ _______ _______ _____ _____    ______ ____
ROOT
ATOM      1  C   UNL     1       0.699  -3.586  -2.293  0.00  0.00    -0.051 C 
ENDROOT
BRANCH   1   2
ATOM      2  C   UNL     1       0.831  -4.318  -3.604  0.00  0.00    -0.048 A 
ATOM      3  C   UNL     1       0.028  -3.970  -4.673  0.00  0.00    +0.003 A 
ATOM      4  C   UNL     1       0.149  -4.641  -5.876  0.00  0.00    +0.000 A 
ATOM      5  C   UNL     1       1.074  -5.660  -6.010  0.00  0.00    +0.001 A 
ATOM      6  C   UNL     1       1.878  -6.008  -4.941  0.00  0.00    +0.015 A 
ATOM      7  C   UNL     1       1.760  -5.333  -3.739  0.00  0.00    +0.019 A 
ATOM      8 BR   UNL     1       2.865  -5.805  -2.278  0.00  0.00    -0.050 Br
ENDBRANCH   1   2
BRANCH   1   9
ATOM      9  N   UNL     1      -0.671  -3.077  -2.152  0.00  0.00    +0.387 N 
ATOM     10  H   UNL     1      -0.920  -2.549  -2.975  0.00  0.00    -0.081 HD
BRANCH   9  11
ATOM     11  C   UNL     1      -0.752  -2.208  -0.970  0.00  0.00    -0.049 C 
BRANCH  11  12
ATOM     12  C   UNL     1      -0.793  -0.745  -1.415  0.00  0.00    +0.137 C 
BRANCH  12  13
ATOM     13  O   UNL     1      -1.982  -0.510  -2.172  0.00  0.00    -0.397 OA
ATOM     14  H   UNL     1      -2.075   0.399  -2.487  0.00  0.00    +0.209 HD
ENDBRANCH  12  13
ENDBRANCH  11  12
ENDBRANCH   9  11
BRANCH   9  15
ATOM     15  C   UNL     1      -1.599  -4.205  -1.996  0.00  0.00    -0.068 C 
BRANCH  15  16
ATOM     16  C   UNL     1      -1.590  -4.675  -0.539  0.00  0.00    -0.019 C 
ATOM     17  C   UNL     1      -0.166  -5.068  -0.140  0.00  0.00    +0.002 C 
ENDBRANCH  15  16
BRANCH  15  18
ATOM     18  C   UNL     1      -3.012  -3.760  -2.378  0.00  0.00    -0.019 C 
ATOM     19  C   UNL     1      -3.033  -3.336  -3.849  0.00  0.00    +0.002 C 
ENDBRANCH  15  18
ENDBRANCH   9  15
ENDBRANCH   1   9
BRANCH   1  20
ATOM     20  C   UNL     1       1.684  -2.416  -2.260  0.00  0.00    -0.085 C 
BRANCH  20  21
ATOM     21  N   UNL     1       2.186  -2.161  -3.617  0.00  0.00    +0.379 N 
ATOM     22  H   UNL     1       2.654  -2.985  -3.963  0.00  0.00    -0.090 HD
ATOM     23  H   UNL     1       1.413  -1.933  -4.225  0.00  0.00    -0.090 HD
ATOM     24  H   UNL     1       2.836  -1.389  -3.596  0.00  0.00    -0.090 HD
ENDBRANCH  20  21
BRANCH  20  26
ATOM     25  C   UNL     1       3.658  -1.494  -1.038  0.00  0.00    +0.002 C 
ATOM     26  C   UNL     1       2.856  -2.761  -1.340  0.00  0.00    -0.021 C 
ENDBRANCH  20  26
ENDBRANCH   1  20
TORSDOF 11
