REMARK  Name = ZINC39654631
REMARK  9 active torsions:
REMARK  status: ('A' for Active; 'I' for Inactive)
REMARK    1  A    between atoms: C_1  and  C_2
REMARK    2  A    between atoms: C_2  and  C_3
REMARK    3  A    between atoms: C_6  and  C_9
REMARK    4  A    between atoms: C_9  and  C_10
REMARK    5  A    between atoms: C_10  and  N_11
REMARK    6  A    between atoms: C_12  and  C_14
REMARK    7  A    between atoms: C_25  and  C_27
REMARK    8  A    between atoms: C_27  and  C_28
REMARK    9  A    between atoms: C_31  and  C_34
REMARK                            x       y       z     vdW  Elec       q    Type
REMARK                         _______ _______ _______ _____ _____    ______ ____
ROOT
ATOM      1  C   UNL     1       5.207  -0.837   8.819  0.00  0.00    +0.100 C 
ATOM      2  C   UNL     1       6.407  -1.718   8.406  0.00  0.00    +0.121 C 
ATOM      3  N   UNL     1       7.566  -0.793   8.400  0.00  0.00    -0.300 N 
ATOM      4  C   UNL     1       7.347   0.079   9.579  0.00  0.00    +0.115 C 
ATOM      5  C   UNL     1       5.828   0.339   9.591  0.00  0.00    -0.004 C 
ATOM      6  C   UNL     1       5.513   1.657   8.890  0.00  0.00    -0.010 C 
ATOM      7  C   UNL     1       6.093   2.816   9.707  0.00  0.00    -0.082 C 
ATOM      8  N   UNL     1       5.511   2.805  11.054  0.00  0.00    +0.379 N 
ATOM      9  C   UNL     1       5.895   1.574  11.756  0.00  0.00    -0.082 C 
ATOM     10  C   UNL     1       5.308   0.363  11.026  0.00  0.00    -0.010 C 
ATOM     11  C   UNL     1       8.587  -0.755   7.521  0.00  0.00    +0.220 C 
ATOM     12  O   UNL     1       9.469   0.068   7.652  0.00  0.00    -0.275 OA
ATOM     13  H   UNL     1       5.847   3.604  11.571  0.00  0.00    -0.086 HD
ATOM     14  H   UNL     1       4.505   2.851  10.986  0.00  0.00    -0.086 HD
ENDROOT
BRANCH   1  16
ATOM     15  N   UNL     1       3.161  -0.060   7.666  0.00  0.00    -0.315 N 
ATOM     16  C   UNL     1       4.478  -0.337   7.598  0.00  0.00    +0.218 C 
ATOM     17  O   UNL     1       5.077  -0.183   6.555  0.00  0.00    -0.275 OA
ATOM     18  H   UNL     1       2.682  -0.183   8.500  0.00  0.00    +0.149 HD
BRANCH  15  19
ATOM     19  C   UNL     1       2.453   0.426   6.479  0.00  0.00    +0.109 C 
BRANCH  19  20
ATOM     20  C   UNL     1       0.981   0.660   6.825  0.00  0.00    +0.054 C 
BRANCH  20  24
ATOM     21  C   UNL     1      -1.087   2.078   3.366  0.00  0.00    -0.048 A 
ATOM     22  C   UNL     1      -1.004   0.720   3.614  0.00  0.00    +0.004 A 
ATOM     23  C   UNL     1      -0.335   0.262   4.733  0.00  0.00    +0.004 A 
ATOM     24  C   UNL     1       0.252   1.160   5.604  0.00  0.00    -0.046 A 
ATOM     25  C   UNL     1       0.170   2.518   5.356  0.00  0.00    +0.004 A 
ATOM     26  C   UNL     1      -0.496   2.976   4.234  0.00  0.00    +0.004 A 
BRANCH  21  28
ATOM     27  C   UNL     1      -0.840   2.677   0.973  0.00  0.00    +0.009 C 
ATOM     28  C   UNL     1      -1.817   2.578   2.146  0.00  0.00    +0.032 C 
ENDBRANCH  21  28
ENDBRANCH  20  24
ENDBRANCH  19  20
ENDBRANCH  15  19
ENDBRANCH   1  16
BRANCH  11  29
ATOM     29  C   UNL     1       8.634  -1.733   6.377  0.00  0.00    +0.131 C 
BRANCH  29  30
ATOM     30  C   UNL     1       9.868  -1.480   5.549  0.00  0.00    -0.039 A 
ATOM     31  C   UNL     1       9.819  -0.591   4.491  0.00  0.00    +0.004 A 
ATOM     32  C   UNL     1      10.951  -0.358   3.732  0.00  0.00    +0.003 A 
ATOM     33  C   UNL     1      12.131  -1.014   4.031  0.00  0.00    -0.050 A 
ATOM     34  C   UNL     1      12.179  -1.901   5.089  0.00  0.00    +0.003 A 
ATOM     35  C   UNL     1      11.049  -2.131   5.851  0.00  0.00    +0.004 A 
ATOM     36  C   UNL     1      13.364  -0.760   3.203  0.00  0.00    +0.044 C 
ENDBRANCH  29  30
ENDBRANCH  11  29
TORSDOF 7
