REMARK  Name = ZINC67497105
REMARK  13 active torsions:
REMARK  status: ('A' for Active; 'I' for Inactive)
REMARK    1  A    between atoms: C_1  and  C_2
REMARK    2  A    between atoms: C_2  and  N_3
REMARK    3  A    between atoms: N_3  and  C_4
REMARK    4  A    between atoms: N_3  and  C_6
REMARK    5  A    between atoms: C_4  and  C_5
REMARK    6  A    between atoms: C_6  and  C_8
REMARK    7  A    between atoms: C_6  and  C_9
REMARK    8  A    between atoms: C_9  and  N_10
REMARK    9  A    between atoms: C_11  and  C_13
REMARK   10  A    between atoms: N_15  and  C_16
REMARK   11  A    between atoms: C_20  and  N_22
REMARK   12  A    between atoms: C_23  and  O_25
REMARK   13  A    between atoms: O_25  and  C_26
REMARK                            x       y       z     vdW  Elec       q    Type
REMARK                         _______ _______ _______ _____ _____    ______ ____
ROOT
ATOM      1  C   UNL     1      -5.801  -1.138  -0.979  0.00  0.00    +0.303 C 
ATOM      2  O   UNL     1      -5.426  -0.549  -1.972  0.00  0.00    -0.265 OA
ATOM      3  N   UNL     1      -7.115  -1.364  -0.785  0.00  0.00    -0.278 N 
ATOM      4  H   UNL     1      -7.420  -1.776   0.038  0.00  0.00    +0.155 HD
ENDROOT
BRANCH   3   5
ATOM      5  C   UNL     1      -8.039  -1.003  -1.770  0.00  0.00    +0.036 A 
ATOM      6  C   UNL     1      -7.697  -1.101  -3.114  0.00  0.00    +0.026 A 
ATOM      7  C   UNL     1      -8.609  -0.744  -4.088  0.00  0.00    +0.042 A 
ATOM      8  C   UNL     1      -9.866  -0.290  -3.730  0.00  0.00    +0.145 A 
ATOM      9  C   UNL     1     -10.214  -0.191  -2.387  0.00  0.00    +0.073 A 
ATOM     10  C   UNL     1      -9.301  -0.553  -1.408  0.00  0.00    +0.049 A 
ATOM     11  F   UNL     1     -10.755   0.058  -4.686  0.00  0.00    -0.204 F 
BRANCH   9  12
ATOM     12  N   UNL     1     -11.486   0.269  -2.025  0.00  0.00    -0.248 N 
ATOM     13  C   UNL     1     -11.648   0.979  -0.890  0.00  0.00    +0.404 C 
ATOM     14  O   UNL     1     -10.680   1.295  -0.228  0.00  0.00    -0.226 OA
ATOM     15  H   UNL     1     -12.250   0.077  -2.590  0.00  0.00    +0.158 HD
BRANCH  13  16
ATOM     16  O   UNL     1     -12.883   1.337  -0.491  0.00  0.00    -0.453 OA
ATOM     17  C   UNL     1     -12.980   2.088   0.721  0.00  0.00    +0.282 C 
ENDBRANCH  13  16
ENDBRANCH   9  12
ENDBRANCH   3   5
BRANCH   1  19
ATOM     18  N   UNL     1      -3.490  -1.387  -0.167  0.00  0.00    -0.309 N 
ATOM     19  C   UNL     1      -4.805  -1.613   0.028  0.00  0.00    +0.299 C 
ATOM     20  O   UNL     1      -5.179  -2.202   1.020  0.00  0.00    -0.265 OA
ATOM     21  H   UNL     1      -3.191  -0.917  -0.960  0.00  0.00    +0.149 HD
BRANCH  18  22
ATOM     22  C   UNL     1      -2.514  -1.853   0.821  0.00  0.00    +0.089 C 
BRANCH  22  23
ATOM     23  C   UNL     1      -1.118  -1.363   0.429  0.00  0.00    -0.054 C 
ATOM     24  C   UNL     1      -0.108  -1.795   1.494  0.00  0.00    -0.012 C 
BRANCH  23  25
ATOM     25  N   UNL     1      -1.125   0.102   0.326  0.00  0.00    +0.382 N 
ATOM     26  H   UNL     1      -1.819   0.389  -0.349  0.00  0.00    -0.081 HD
BRANCH  25  28
ATOM     27  C   UNL     1      -1.587   2.201   1.500  0.00  0.00    -0.017 C 
ATOM     28  C   UNL     1      -1.447   0.684   1.636  0.00  0.00    -0.082 C 
ENDBRANCH  25  28
BRANCH  25  29
ATOM     29  C   UNL     1       0.199   0.569  -0.105  0.00  0.00    -0.082 C 
ATOM     30  C   UNL     1       0.482   0.065  -1.522  0.00  0.00    -0.017 C 
ENDBRANCH  25  29
ENDBRANCH  23  25
ENDBRANCH  22  23
ENDBRANCH  18  22
ENDBRANCH   1  19
TORSDOF 9
