REMARK  Name = ZINC43223236
REMARK  14 active torsions:
REMARK  status: ('A' for Active; 'I' for Inactive)
REMARK    1  A    between atoms: C_1  and  C_2
REMARK    2  A    between atoms: C_2  and  C_4
REMARK    3  A    between atoms: C_2  and  N_10
REMARK    4  A    between atoms: C_4  and  C_5
REMARK    5  A    between atoms: C_5  and  C_6
REMARK    6  A    between atoms: C_6  and  C_7
REMARK    7  A    between atoms: C_7  and  C_8
REMARK    8  A    between atoms: C_7  and  C_9
REMARK    9  A    between atoms: C_11  and  C_13
REMARK   10  A    between atoms: C_18  and  C_20
REMARK   11  A    between atoms: N_22  and  C_23
REMARK   12  A    between atoms: C_23  and  C_24
REMARK   13  A    between atoms: C_24  and  S_25
REMARK   14  A    between atoms: S_25  and  C_26
REMARK                            x       y       z     vdW  Elec       q    Type
REMARK                         _______ _______ _______ _____ _____    ______ ____
ROOT
ATOM      1  C   UNL     1       2.783  -1.099   2.395  0.00  0.00    +0.068 C 
ATOM      2  C   UNL     1       2.362  -2.549   2.715  0.00  0.00    -0.069 C 
ATOM      3  N   UNL     1       3.395  -3.392   2.060  0.00  0.00    +0.380 N 
ATOM      4  C   UNL     1       4.666  -2.662   2.298  0.00  0.00    -0.069 C 
ATOM      5  C   UNL     1       4.299  -1.171   2.121  0.00  0.00    +0.068 C 
ATOM      6  H   UNL     1       3.427  -4.306   2.487  0.00  0.00    -0.086 HD
ATOM      7  H   UNL     1       3.212  -3.470   1.071  0.00  0.00    -0.086 HD
ENDROOT
BRANCH   1   9
ATOM      8  N   UNL     1       0.711  -0.489   1.189  0.00  0.00    -0.313 N 
ATOM      9  C   UNL     1       2.054  -0.600   1.174  0.00  0.00    +0.215 C 
ATOM     10  O   UNL     1       2.676  -0.297   0.177  0.00  0.00    -0.276 OA
ATOM     11  H   UNL     1       0.213  -0.731   1.986  0.00  0.00    +0.149 HD
BRANCH   8  13
ATOM     12  C   UNL     1      -0.019   1.526   0.010  0.00  0.00    +0.028 C 
ATOM     13  C   UNL     1       0.002  -0.004   0.002  0.00  0.00    +0.070 C 
BRANCH  13  14
ATOM     14  C   UNL     1      -1.433  -0.534   0.013  0.00  0.00    +0.022 C 
BRANCH  14  15
ATOM     15  C   UNL     1      -1.416  -2.058  -0.121  0.00  0.00    +0.002 C 
BRANCH  15  16
ATOM     16  C   UNL     1      -2.851  -2.587  -0.110  0.00  0.00    +0.003 C 
BRANCH  16  17
ATOM     17  C   UNL     1      -2.833  -4.111  -0.244  0.00  0.00    -0.017 C 
ATOM     18  C   UNL     1      -2.167  -4.724   0.989  0.00  0.00    +0.007 C 
ATOM     19  C   UNL     1      -4.268  -4.630  -0.359  0.00  0.00    +0.007 C 
ENDBRANCH  16  17
ENDBRANCH  15  16
ENDBRANCH  14  15
ENDBRANCH  13  14
ENDBRANCH   8  13
ENDBRANCH   1   9
BRANCH   5  20
ATOM     20  C   UNL     1       5.051  -0.323   3.115  0.00  0.00    +0.215 C 
ATOM     21  O   UNL     1       4.446   0.288   3.970  0.00  0.00    -0.276 OA
ATOM     22  N   UNL     1       6.395  -0.245   3.054  0.00  0.00    -0.314 N 
ATOM     23  H   UNL     1       6.878  -0.734   2.370  0.00  0.00    +0.149 HD
BRANCH  22  24
ATOM     24  C   UNL     1       7.125   0.579   4.021  0.00  0.00    +0.115 C 
BRANCH  24  25
ATOM     25  C   UNL     1       8.626   0.494   3.732  0.00  0.00    +0.087 C 
BRANCH  25  26
ATOM     26  S   UNL     1       9.530   1.514   4.929  0.00  0.00    -0.163 S 
ATOM     27  C   UNL     1      11.269   1.307   4.456  0.00  0.00    +0.084 C 
ENDBRANCH  25  26
ENDBRANCH  24  25
ENDBRANCH  22  24
ENDBRANCH   5  20
TORSDOF 10
