REMARK  Name = ZINC37174183
REMARK  7 active torsions:
REMARK  status: ('A' for Active; 'I' for Inactive)
REMARK    1  A    between atoms: C_1  and  C_2
REMARK    2  A    between atoms: C_2  and  C_4
REMARK    3  A    between atoms: C_2  and  N_16
REMARK    4  A    between atoms: N_6  and  C_7
REMARK    5  A    between atoms: C_10  and  N_14
REMARK    6  A    between atoms: N_16  and  C_17
REMARK    7  A    between atoms: N_16  and  C_18
REMARK                            x       y       z     vdW  Elec       q    Type
REMARK                         _______ _______ _______ _____ _____    ______ ____
ROOT
ATOM      1  C   UNL     1       0.599  -0.376  -1.448  0.00  0.00    +0.203 C 
ATOM      2  O   UNL     1      -0.132  -0.930  -2.242  0.00  0.00    -0.277 OA
ATOM      3  N   UNL     1       1.929  -0.591  -1.492  0.00  0.00    -0.284 N 
ATOM      4  H   UNL     1       2.505  -0.204  -0.814  0.00  0.00    +0.155 HD
ENDROOT
BRANCH   3   5
ATOM      5  C   UNL     1       2.479  -1.373  -2.518  0.00  0.00    +0.070 A 
ATOM      6  C   UNL     1       1.966  -2.637  -2.779  0.00  0.00    +0.065 A 
ATOM      7  C   UNL     1       2.509  -3.408  -3.789  0.00  0.00    +0.044 A 
ATOM      8  C   UNL     1       3.567  -2.919  -4.544  0.00  0.00    +0.027 A 
ATOM      9  C   UNL     1       4.081  -1.655  -4.282  0.00  0.00    +0.044 A 
ATOM     10  C   UNL     1       3.534  -0.881  -3.276  0.00  0.00    +0.065 A 
ATOM     11 CL   UNL     1       4.171   0.701  -2.954  0.00  0.00    -0.082 Cl
ATOM     12 CL   UNL     1       0.643  -3.249  -1.836  0.00  0.00    -0.082 Cl
BRANCH   8  13
ATOM     13  N   UNL     1       4.116  -3.699  -5.566  0.00  0.00    -0.358 N 
ATOM     14  H   UNL     1       3.758  -4.582  -5.749  0.00  0.00    +0.142 HD
ATOM     15  H   UNL     1       4.856  -3.357  -6.093  0.00  0.00    +0.142 HD
ENDBRANCH   8  13
ENDBRANCH   3   5
BRANCH   1  17
ATOM     16  C   UNL     1       0.613   1.950  -0.590  0.00  0.00    -0.004 C 
ATOM     17  C   UNL     1       0.019   0.552  -0.412  0.00  0.00    +0.016 C 
BRANCH  17  18
ATOM     18  N   UNL     1      -1.440   0.616  -0.573  0.00  0.00    +0.388 N 
ATOM     19  C   UNL     1      -1.764   1.284  -1.841  0.00  0.00    -0.095 C 
ATOM     20  H   UNL     1      -1.819  -0.319  -0.580  0.00  0.00    -0.081 HD
BRANCH  18  21
ATOM     21  C   UNL     1      -2.023   1.373   0.542  0.00  0.00    -0.057 C 
ATOM     22  C   UNL     1      -1.664   0.670   1.851  0.00  0.00    -0.004 C 
ATOM     23  C   UNL     1      -2.752   0.945   2.926  0.00  0.00    +0.067 C 
ATOM     24  S   UNL     1      -4.263   0.839   1.869  0.00  0.00    -0.162 S 
ATOM     25  C   UNL     1      -3.542   1.499   0.313  0.00  0.00    +0.054 C 
ENDBRANCH  18  21
ENDBRANCH  17  18
ENDBRANCH   1  17
TORSDOF 5
