REMARK  Name = ZINC38152416
REMARK  14 active torsions:
REMARK  status: ('A' for Active; 'I' for Inactive)
REMARK    1  A    between atoms: C_1  and  C_2
REMARK    2  A    between atoms: C_2  and  C_3
REMARK    3  A    between atoms: C_2  and  C_4
REMARK    4  A    between atoms: C_2  and  O_5
REMARK    5  A    between atoms: O_5  and  C_6
REMARK    6  A    between atoms: N_17  and  C_19
REMARK    7  A    between atoms: C_19  and  C_20
REMARK    8  A    between atoms: C_20  and  C_21
REMARK    9  A    between atoms: C_21  and  C_23
REMARK   10  A    between atoms: C_21  and  C_35
REMARK   11  A    between atoms: C_23  and  N_24
REMARK   12  A    between atoms: N_24  and  C_25
REMARK   13  A    between atoms: N_24  and  S_26
REMARK   14  A    between atoms: S_26  and  C_29
REMARK                            x       y       z     vdW  Elec       q    Type
REMARK                         _______ _______ _______ _____ _____    ______ ____
ROOT
ATOM      1  C   UNL     1       7.033  -3.270   0.097  0.00  0.00    -0.009 C 
ENDROOT
BRANCH   1   2
ATOM      2  C   UNL     1       5.997  -3.536  -0.996  0.00  0.00    -0.078 C 
BRANCH   2  12
ATOM      3  C   UNL     1       1.952  -0.085  -1.337  0.00  0.00    +0.404 C 
ATOM      4  O   UNL     1       2.488   0.619  -0.503  0.00  0.00    -0.226 OA
ATOM      5  N   UNL     1       2.641  -0.485  -2.424  0.00  0.00    -0.264 N 
ATOM      6  C   UNL     1       2.121  -1.330  -3.514  0.00  0.00    +0.111 C 
ATOM      7  C   UNL     1       3.278  -1.546  -4.514  0.00  0.00    +0.022 C 
ATOM      8  C   UNL     1       4.542  -1.292  -3.638  0.00  0.00    -0.006 C 
ATOM      9  C   UNL     1       4.035  -0.150  -2.731  0.00  0.00    +0.079 C 
ATOM     10  C   UNL     1       4.880   0.002  -1.482  0.00  0.00    +0.004 C 
ATOM     11  C   UNL     1       5.048  -1.342  -0.773  0.00  0.00    -0.077 C 
ATOM     12  N   UNL     1       5.694  -2.283  -1.700  0.00  0.00    +0.380 N 
ATOM     13  C   UNL     1       4.787  -2.568  -2.831  0.00  0.00    -0.074 C 
ATOM     14  H   UNL     1       6.549  -1.877  -2.052  0.00  0.00    -0.082 HD
BRANCH   3  15
ATOM     15  O   UNL     1       0.671  -0.465  -1.174  0.00  0.00    -0.445 OA
BRANCH  15  17
ATOM     16  C   UNL     1      -0.019   1.526   0.010  0.00  0.00    +0.055 C 
ATOM     17  C   UNL     1       0.002  -0.004   0.002  0.00  0.00    +0.107 C 
ATOM     18  C   UNL     1       0.742  -0.511   1.242  0.00  0.00    +0.055 C 
ATOM     19  C   UNL     1      -1.433  -0.534   0.013  0.00  0.00    +0.055 C 
ENDBRANCH  15  17
ENDBRANCH   3  15
ENDBRANCH   2  12
ENDBRANCH   1   2
BRANCH   1  20
ATOM     20  C   UNL     1       7.348  -4.576   0.830  0.00  0.00    +0.033 C 
BRANCH  20  21
ATOM     21  C   UNL     1       8.011  -5.539  -0.121  0.00  0.00    -0.043 A 
ATOM     22  C   UNL     1       9.209  -5.201  -0.723  0.00  0.00    +0.004 A 
ATOM     23  C   UNL     1       9.817  -6.085  -1.595  0.00  0.00    +0.000 A 
ATOM     24  C   UNL     1       9.227  -7.305  -1.866  0.00  0.00    +0.000 A 
ATOM     25  C   UNL     1       8.029  -7.643  -1.264  0.00  0.00    +0.000 A 
ATOM     26  C   UNL     1       7.423  -6.761  -0.388  0.00  0.00    +0.004 A 
ENDBRANCH  20  21
BRANCH  20  27
ATOM     27  C   UNL     1       8.288  -4.289   2.002  0.00  0.00    +0.117 C 
BRANCH  27  28
ATOM     28  N   UNL     1       8.495  -5.516   2.775  0.00  0.00    -0.179 NA
ATOM     29  C   UNL     1       9.525  -6.474   2.366  0.00  0.00    +0.131 C 
BRANCH  28  30
ATOM     30  S   UNL     1       7.564  -5.821   4.110  0.00  0.00    +0.061 S 
ATOM     31  O   UNL     1       8.311  -6.708   4.932  0.00  0.00    -0.153 OA
ATOM     32  O   UNL     1       7.097  -4.562   4.575  0.00  0.00    -0.153 OA
BRANCH  30  33
ATOM     33  C   UNL     1       6.146  -6.714   3.564  0.00  0.00    +0.105 A 
ATOM     34  C   UNL     1       5.009  -6.033   3.173  0.00  0.00    +0.028 A 
ATOM     35  C   UNL     1       3.897  -6.733   2.745  0.00  0.00    +0.002 A 
ATOM     36  C   UNL     1       3.922  -8.115   2.707  0.00  0.00    +0.000 A 
ATOM     37  C   UNL     1       5.060  -8.796   3.097  0.00  0.00    +0.002 A 
ATOM     38  C   UNL     1       6.174  -8.095   3.522  0.00  0.00    +0.028 A 
ENDBRANCH  30  33
ENDBRANCH  28  30
ENDBRANCH  27  28
ENDBRANCH  20  27
ENDBRANCH   1  20
TORSDOF 10
