REMARK  Name = ZINC39198067
REMARK  13 active torsions:
REMARK  status: ('A' for Active; 'I' for Inactive)
REMARK    1  A    between atoms: C_1  and  C_2
REMARK    2  A    between atoms: C_2  and  C_3
REMARK    3  A    between atoms: C_2  and  C_4
REMARK    4  A    between atoms: C_2  and  O_5
REMARK    5  A    between atoms: O_5  and  C_6
REMARK    6  A    between atoms: N_8  and  C_9
REMARK    7  A    between atoms: C_9  and  C_10
REMARK    8  A    between atoms: C_13  and  C_16
REMARK    9  A    between atoms: C_21  and  N_24
REMARK   10  A    between atoms: C_29  and  O_36
REMARK   11  A    between atoms: C_30  and  O_34
REMARK   12  A    between atoms: O_34  and  C_35
REMARK   13  A    between atoms: O_36  and  C_37
REMARK                            x       y       z     vdW  Elec       q    Type
REMARK                         _______ _______ _______ _____ _____    ______ ____
ROOT
ATOM      1  C   UNL     1       7.440  -2.411  -4.543  0.00  0.00    +0.219 C 
ATOM      2  O   UNL     1       6.851  -3.073  -3.715  0.00  0.00    -0.275 OA
ATOM      3  N   UNL     1       8.773  -2.240  -4.445  0.00  0.00    -0.301 N 
ATOM      4  C   UNL     1       9.486  -1.358  -5.380  0.00  0.00    +0.106 C 
ATOM      5  C   UNL     1      10.636  -2.143  -6.018  0.00  0.00    +0.004 C 
ATOM      6  C   UNL     1      11.518  -2.735  -4.916  0.00  0.00    -0.065 C 
ATOM      7  C   UNL     1      10.691  -3.698  -4.061  0.00  0.00    +0.004 C 
ATOM      8  C   UNL     1       9.541  -2.927  -3.397  0.00  0.00    +0.106 C 
ENDROOT
BRANCH   6   9
ATOM      9  N   UNL     1      12.641  -3.460  -5.524  0.00  0.00    +0.385 N 
ATOM     10  C   UNL     1      13.563  -3.912  -4.471  0.00  0.00    -0.073 C 
ATOM     11  C   UNL     1      14.545  -4.914  -5.080  0.00  0.00    +0.017 C 
ATOM     12  C   UNL     1      15.162  -4.331  -6.327  0.00  0.00    -0.044 A 
ATOM     13  C   UNL     1      16.313  -4.916  -6.832  0.00  0.00    +0.053 A 
ATOM     14  C   UNL     1      16.908  -4.412  -7.976  0.00  0.00    +0.162 A 
ATOM     15  C   UNL     1      16.345  -3.314  -8.619  0.00  0.00    +0.162 A 
ATOM     16  C   UNL     1      15.197  -2.734  -8.110  0.00  0.00    +0.051 A 
ATOM     17  C   UNL     1      14.605  -3.241  -6.962  0.00  0.00    -0.057 A 
ATOM     18  C   UNL     1      13.361  -2.571  -6.439  0.00  0.00    -0.042 C 
ATOM     19  H   UNL     1      12.291  -4.258  -6.034  0.00  0.00    -0.081 HD
BRANCH  15  20
ATOM     20  O   UNL     1      16.921  -2.812  -9.744  0.00  0.00    -0.491 OA
ATOM     21  C   UNL     1      16.288  -1.684 -10.350  0.00  0.00    +0.277 C 
ENDBRANCH  15  20
BRANCH  14  22
ATOM     22  O   UNL     1      18.037  -4.988  -8.468  0.00  0.00    -0.491 OA
ATOM     23  C   UNL     1      18.557  -6.111  -7.754  0.00  0.00    +0.277 C 
ENDBRANCH  14  22
ENDBRANCH   6   9
BRANCH   1  27
ATOM     24  C   UNL     1       4.499  -0.507  -4.197  0.00  0.00    +0.006 C 
ATOM     25  C   UNL     1       4.551  -2.023  -4.398  0.00  0.00    +0.006 C 
ATOM     26  C   UNL     1       5.257  -2.338  -5.718  0.00  0.00    +0.013 C 
ATOM     27  C   UNL     1       6.681  -1.779  -5.682  0.00  0.00    +0.075 C 
ATOM     28  C   UNL     1       6.628  -0.263  -5.481  0.00  0.00    +0.013 C 
ATOM     29  C   UNL     1       5.923   0.052  -4.160  0.00  0.00    +0.006 C 
BRANCH  24  30
ATOM     30  C   UNL     1       3.793  -0.192  -2.876  0.00  0.00    +0.111 C 
BRANCH  30  33
ATOM     31  C   UNL     1       1.574  -0.443  -1.901  0.00  0.00    +0.401 C 
ATOM     32  O   UNL     1       1.994   0.074  -0.885  0.00  0.00    -0.226 OA
ATOM     33  N   UNL     1       2.395  -0.622  -2.955  0.00  0.00    -0.281 N 
ATOM     34  H   UNL     1       2.059  -1.034  -3.767  0.00  0.00    +0.152 HD
BRANCH  31  35
ATOM     35  O   UNL     1       0.289  -0.838  -1.974  0.00  0.00    -0.445 OA
BRANCH  35  37
ATOM     36  C   UNL     1      -0.570   0.879  -0.506  0.00  0.00    +0.055 C 
ATOM     37  C   UNL     1      -0.524  -0.618  -0.819  0.00  0.00    +0.107 C 
ATOM     38  C   UNL     1       0.070  -1.370   0.373  0.00  0.00    +0.055 C 
ATOM     39  C   UNL     1      -1.941  -1.126  -1.089  0.00  0.00    +0.055 C 
ENDBRANCH  35  37
ENDBRANCH  31  35
ENDBRANCH  30  33
ENDBRANCH  24  30
ENDBRANCH   1  27
TORSDOF 8
