REMARK  Name = ZINC39696235
REMARK  7 active torsions:
REMARK  status: ('A' for Active; 'I' for Inactive)
REMARK    1  A    between atoms: C_1  and  C_2
REMARK    2  A    between atoms: C_2  and  C_3
REMARK    3  A    between atoms: C_6  and  C_9
REMARK    4  A    between atoms: C_9  and  C_11
REMARK    5  A    between atoms: C_9  and  N_12
REMARK    6  A    between atoms: C_13  and  C_15
REMARK    7  A    between atoms: C_26  and  C_28
REMARK                            x       y       z     vdW  Elec       q    Type
REMARK                         _______ _______ _______ _____ _____    ______ ____
ROOT
ATOM      1  C   UNL     1       2.170  -0.672   8.644  0.00  0.00    +0.100 C 
ATOM      2  C   UNL     1       2.028   0.796   8.186  0.00  0.00    +0.121 C 
ATOM      3  N   UNL     1       2.515   1.596   9.335  0.00  0.00    -0.296 N 
ATOM      4  C   UNL     1       3.680   0.835   9.846  0.00  0.00    +0.115 C 
ATOM      5  C   UNL     1       3.256  -0.643   9.733  0.00  0.00    -0.004 C 
ATOM      6  C   UNL     1       4.446  -1.503   9.316  0.00  0.00    -0.010 C 
ATOM      7  C   UNL     1       5.486  -1.505  10.439  0.00  0.00    -0.082 C 
ATOM      8  N   UNL     1       4.882  -2.034  11.668  0.00  0.00    +0.379 N 
ATOM      9  C   UNL     1       3.798  -1.150  12.113  0.00  0.00    -0.082 C 
ATOM     10  C   UNL     1       2.686  -1.132  11.061  0.00  0.00    -0.010 C 
ATOM     11  C   UNL     1       2.012   2.753   9.809  0.00  0.00    +0.248 C 
ATOM     12  O   UNL     1       2.583   3.341  10.708  0.00  0.00    -0.270 OA
ATOM     13  H   UNL     1       4.511  -2.955  11.489  0.00  0.00    -0.086 HD
ATOM     14  H   UNL     1       5.585  -2.092  12.389  0.00  0.00    -0.086 HD
ENDROOT
BRANCH  11  15
ATOM     15  C   UNL     1       0.776   3.304   9.239  0.00  0.00    +0.052 A 
ATOM     16  C   UNL     1       0.486   3.156   7.920  0.00  0.00    +0.059 A 
ATOM     17  S   UNL     1      -0.991   3.921   7.701  0.00  0.00    -0.096 S 
ATOM     18  C   UNL     1      -1.303   4.481   9.352  0.00  0.00    +0.020 A 
ATOM     19  C   UNL     1      -0.185   4.025  10.077  0.00  0.00    +0.001 A 
ATOM     20  C   UNL     1      -0.146   4.317  11.453  0.00  0.00    +0.010 A 
ATOM     21  C   UNL     1      -1.169   5.015  12.045  0.00  0.00    +0.001 A 
ATOM     22  C   UNL     1      -2.262   5.449  11.309  0.00  0.00    +0.001 A 
ATOM     23  C   UNL     1      -2.323   5.186   9.955  0.00  0.00    +0.015 A 
ENDBRANCH  11  15
BRANCH   1  25
ATOM     24  N   UNL     1       2.248  -2.841   7.456  0.00  0.00    -0.308 N 
ATOM     25  C   UNL     1       2.605  -1.541   7.492  0.00  0.00    +0.219 C 
ATOM     26  O   UNL     1       3.276  -1.072   6.598  0.00  0.00    -0.275 OA
ATOM     27  H   UNL     1       1.712  -3.216   8.171  0.00  0.00    +0.149 HD
BRANCH  24  28
ATOM     28  C   UNL     1       2.671  -3.686   6.337  0.00  0.00    +0.100 C 
ATOM     29  C   UNL     1       4.075  -4.230   6.610  0.00  0.00    +0.033 C 
BRANCH  28  33
ATOM     30  C   UNL     1      -0.057  -6.943   5.899  0.00  0.00    -0.048 A 
ATOM     31  C   UNL     1       0.444  -6.306   4.779  0.00  0.00    +0.004 A 
ATOM     32  C   UNL     1       1.327  -5.252   4.921  0.00  0.00    +0.006 A 
ATOM     33  C   UNL     1       1.708  -4.834   6.182  0.00  0.00    -0.027 A 
ATOM     34  C   UNL     1       1.206  -5.470   7.302  0.00  0.00    +0.006 A 
ATOM     35  C   UNL     1       0.320  -6.522   7.161  0.00  0.00    +0.004 A 
BRANCH  30  37
ATOM     36  C   UNL     1      -2.453  -7.557   5.715  0.00  0.00    +0.009 C 
ATOM     37  C   UNL     1      -1.020  -8.092   5.745  0.00  0.00    +0.032 C 
ENDBRANCH  30  37
ENDBRANCH  28  33
ENDBRANCH  24  28
ENDBRANCH   1  25
TORSDOF 5
