REMARK  Name = ZINC65409647
REMARK  7 active torsions:
REMARK  status: ('A' for Active; 'I' for Inactive)
REMARK    1  A    between atoms: C_1  and  C_2
REMARK    2  A    between atoms: C_2  and  N_3
REMARK    3  A    between atoms: N_6  and  C_9
REMARK    4  A    between atoms: C_9  and  C_10
REMARK    5  A    between atoms: C_10  and  C_11
REMARK    6  A    between atoms: C_18  and  C_23
REMARK    7  A    between atoms: C_18  and  C_24
REMARK                            x       y       z     vdW  Elec       q    Type
REMARK                         _______ _______ _______ _____ _____    ______ ____
ROOT
ATOM      1  C   UNL     1      -6.200  -4.715  -1.251  0.00  0.00    +0.086 A 
ATOM      2  N   UNL     1      -6.903  -5.058  -0.215  0.00  0.00    -0.340 N 
ATOM      3  C   UNL     1      -8.126  -5.510  -0.627  0.00  0.00    +0.122 A 
ATOM      4  H   UNL     1      -6.654  -4.751  -3.282  0.00  0.00    +0.167 HD
ATOM      5  C   UNL     1      -8.138  -5.442  -1.985  0.00  0.00    +0.046 A 
ATOM      6  N   UNL     1      -6.935  -4.929  -2.371  0.00  0.00    -0.346 N 
ATOM      7  C   UNL     1      -9.232  -5.849  -2.921  0.00  0.00    +0.063 C 
ATOM      8  C   UNL     1     -10.608  -5.646  -2.344  0.00  0.00    -0.014 C 
ATOM      9  C   UNL     1     -10.973  -6.648  -1.283  0.00  0.00    +0.111 C 
ATOM     10  N   UNL     1     -10.379  -6.399   0.003  0.00  0.00    -0.310 N 
ATOM     11  C   UNL     1      -9.177  -5.952   0.286  0.00  0.00    +0.262 C 
ATOM     12  O   UNL     1      -8.901  -5.899   1.469  0.00  0.00    -0.269 OA
ATOM     13  C   UNL     1     -10.682  -4.243  -1.738  0.00  0.00    +0.013 C 
ATOM     14  C   UNL     1     -11.632  -5.739  -3.477  0.00  0.00    +0.013 C 
ATOM     15  H   UNL     1     -10.945  -6.586   0.768  0.00  0.00    +0.149 HD
ATOM     16  H   UNL     1      -6.607  -5.002   0.707  0.00  0.00    +0.167 HD
ENDROOT
BRANCH   1  17
ATOM     17  C   UNL     1      -4.798  -4.164  -1.215  0.00  0.00    +0.087 C 
BRANCH  17  18
ATOM     18  C   UNL     1      -4.853  -2.639  -1.111  0.00  0.00    +0.092 C 
BRANCH  18  22
ATOM     19  N   UNL     1      -1.376  -0.512   0.012  0.00  0.00    +0.381 N 
ATOM     20  C   UNL     1      -2.050  -0.124  -1.234  0.00  0.00    -0.063 C 
ATOM     21  C   UNL     1      -3.492  -0.638  -1.215  0.00  0.00    +0.066 C 
ATOM     22  N   UNL     1      -3.486  -2.101  -1.076  0.00  0.00    -0.305 NA
ATOM     23  C   UNL     1      -2.792  -2.506   0.155  0.00  0.00    +0.066 C 
ATOM     24  C   UNL     1      -1.357  -1.977   0.125  0.00  0.00    -0.063 C 
ATOM     25  H   UNL     1      -1.873  -0.121   0.799  0.00  0.00    -0.082 HD
BRANCH  19  27
ATOM     26  C   UNL     1      -0.019   1.526   0.010  0.00  0.00    -0.017 C 
ATOM     27  C   UNL     1       0.002  -0.004   0.002  0.00  0.00    -0.082 C 
ENDBRANCH  19  27
ENDBRANCH  18  22
ENDBRANCH  17  18
ENDBRANCH   1  17
TORSDOF 4
