REMARK  Name = ZINC09008510
REMARK  12 active torsions:
REMARK  status: ('A' for Active; 'I' for Inactive)
REMARK    1  A    between atoms: C_1  and  N_59
REMARK    2  A    between atoms: C_2  and  N_59
REMARK    3  A    between atoms: C_3  and  C_4
REMARK    4  A    between atoms: C_3  and  N_59
REMARK    5  A    between atoms: C_4  and  C_5
REMARK    6  A    between atoms: C_5  and  N_6
REMARK    7  A    between atoms: C_7  and  C_26
REMARK    8  A    between atoms: C_10  and  C_11
REMARK    9  A    between atoms: C_10  and  O_21
REMARK   10  A    between atoms: C_14  and  O_17
REMARK   11  A    between atoms: O_17  and  C_18
REMARK   12  A    between atoms: C_18  and  C_19
REMARK                            x       y       z     vdW  Elec       q    Type
REMARK                         _______ _______ _______ _____ _____    ______ ____
ROOT
ATOM      1  N   UNL     1       0.734   3.338   0.777  0.00  0.00    -0.284 N 
ATOM      2  C   UNL     1      -0.673   3.419   0.376  0.00  0.00    +0.144 C 
ATOM      3  C   UNL     1      -1.197   2.001   0.350  0.00  0.00    +0.071 C 
ATOM      4  C   UNL     1      -2.476   1.595   0.021  0.00  0.00    +0.133 C 
ATOM      5  C   UNL     1      -0.124   1.182   0.730  0.00  0.00    +0.249 C 
ATOM      6  O   UNL     1      -0.153  -0.032   0.831  0.00  0.00    -0.282 OA
ATOM      7  C   UNL     1       1.057   2.051   0.983  0.00  0.00    +0.288 C 
ATOM      8  O   UNL     1       2.152   1.654   1.325  0.00  0.00    -0.266 OA
ENDROOT
BRANCH   2   9
ATOM      9  C   UNL     1      -0.785   4.031  -0.997  0.00  0.00    -0.021 A 
ATOM     10  C   UNL     1      -1.799   4.929  -1.272  0.00  0.00    +0.007 A 
ATOM     11  C   UNL     1      -1.902   5.492  -2.530  0.00  0.00    +0.022 A 
ATOM     12  C   UNL     1      -0.990   5.156  -3.515  0.00  0.00    +0.059 A 
ATOM     13  C   UNL     1       0.025   4.256  -3.239  0.00  0.00    +0.060 A 
ATOM     14  C   UNL     1       0.131   3.699  -1.977  0.00  0.00    +0.027 A 
ATOM     15 CL   UNL     1       1.170   3.834  -4.474  0.00  0.00    -0.082 Cl
ATOM     16 CL   UNL     1      -1.120   5.861  -5.096  0.00  0.00    -0.082 Cl
ENDBRANCH   2   9
BRANCH   4  17
ATOM     17  C   UNL     1      -2.785   0.162  -0.096  0.00  0.00    +0.017 A 
ATOM     18  C   UNL     1      -1.988  -0.666  -0.896  0.00  0.00    +0.015 A 
ATOM     19  C   UNL     1      -2.279  -2.007  -0.999  0.00  0.00    +0.046 A 
ATOM     20  C   UNL     1      -3.368  -2.539  -0.317  0.00  0.00    +0.121 A 
ATOM     21  C   UNL     1      -4.166  -1.720   0.475  0.00  0.00    +0.046 A 
ATOM     22  C   UNL     1      -3.881  -0.379   0.588  0.00  0.00    +0.015 A 
BRANCH  20  23
ATOM     23  O   UNL     1      -3.653  -3.861  -0.425  0.00  0.00    -0.488 OA
BRANCH  23  24
ATOM     24  C   UNL     1      -2.793  -4.644  -1.255  0.00  0.00    +0.256 C 
BRANCH  24  25
ATOM     25  C   UNL     1      -3.262  -6.077  -1.254  0.00  0.00    +0.006 C 
ATOM     26  C   UNL     1      -3.336  -6.743  -2.379  0.00  0.00    +0.007 C 
ENDBRANCH  24  25
ENDBRANCH  23  24
ENDBRANCH  20  23
ENDBRANCH   4  17
BRANCH   4  27
ATOM     27  O   UNL     1      -3.442   2.514  -0.193  0.00  0.00    -0.506 OA
ATOM     28  H   UNL     1      -4.299   2.050  -0.419  0.00  0.00    +0.292 HD
ENDBRANCH   4  27
BRANCH   1  29
ATOM     29  C   UNL     1       1.642   4.478   0.929  0.00  0.00    +0.107 C 
BRANCH  29  30
ATOM     30  C   UNL     1       2.346   4.750  -0.402  0.00  0.00    +0.000 C 
BRANCH  30  31
ATOM     31  C   UNL     1       3.294   5.941  -0.244  0.00  0.00    -0.078 C 
BRANCH  31  34
ATOM     32  C   UNL     1       3.012   6.651  -2.541  0.00  0.00    -0.097 C 
ATOM     33  C   UNL     1       5.056   7.177  -1.354  0.00  0.00    -0.097 C 
ATOM     34  N   UNL     1       3.981   6.177  -1.531  0.00  0.00    +0.376 N 
ATOM     35  H   UNL     1       4.396   5.296  -1.855  0.00  0.00    -0.083 HD
ENDBRANCH  31  34
ENDBRANCH  30  31
ENDBRANCH  29  30
ENDBRANCH   1  29
TORSDOF 10
