REMARK  Name = ZINC40528609
REMARK  10 active torsions:
REMARK  status: ('A' for Active; 'I' for Inactive)
REMARK    1  A    between atoms: C_1  and  C_2
REMARK    2  A    between atoms: C_2  and  C_3
REMARK    3  A    between atoms: C_3  and  C_5
REMARK    4  A    between atoms: C_3  and  N_6
REMARK    5  A    between atoms: N_9  and  CA_10
REMARK    6  A    between atoms: CA_10  and  C_12
REMARK    7  A    between atoms: CA_10  and  C_15
REMARK    8  A    between atoms: C_15  and  C_16
REMARK    9  A    between atoms: C_15  and  C_17
REMARK   10  A    between atoms: C_15  and  C_18
REMARK                            x       y       z     vdW  Elec       q    Type
REMARK                         _______ _______ _______ _____ _____    ______ ____
ROOT
ATOM      1  N   UNL     1      -0.055  -0.114  -2.441  0.00  0.00    -0.297 N 
ATOM      2  C   UNL     1       0.561   0.028  -3.631  0.00  0.00    +0.301 C 
ATOM      3  O   UNL     1       1.758  -0.163  -3.722  0.00  0.00    -0.253 OA
ATOM      4  N   UNL     1      -0.150   0.381  -4.720  0.00  0.00    -0.286 N 
ATOM      5  H   UNL     1      -1.010   0.038  -2.368  0.00  0.00    +0.151 HD
ATOM      6  H   UNL     1      -1.105   0.533  -4.647  0.00  0.00    +0.151 HD
ENDROOT
BRANCH   1   7
ATOM      7  C   UNL     1       0.718  -0.497  -1.257  0.00  0.00    +0.071 C 
ATOM      8  C   UNL     1       0.849  -2.021  -1.205  0.00  0.00    +0.028 C 
BRANCH   7  10
ATOM      9  C   UNL     1      -0.019   1.526   0.010  0.00  0.00    +0.005 C 
ATOM     10  C   UNL     1       0.002  -0.004   0.002  0.00  0.00    +0.019 C 
ENDBRANCH   7  10
ENDBRANCH   1   7
BRANCH   4  11
ATOM     11  CA  UNL     1       0.519   0.535  -6.014  0.00  0.00    +0.193 C 
BRANCH  11  12
ATOM     12  C   UNL     1      -0.492   0.316  -7.141  0.00  0.00    -0.009 C 
ATOM     13  C   UNL     1      -1.617   1.346  -7.023  0.00  0.00    +0.013 C 
ATOM     14  C   UNL     1       0.207   0.477  -8.492  0.00  0.00    +0.013 C 
ATOM     15  C   UNL     1      -1.078  -1.093  -7.034  0.00  0.00    +0.013 C 
ENDBRANCH  11  12
BRANCH  11  16
ATOM     16  C   UNL     1       1.096   1.923  -6.119  0.00  0.00    +0.376 C 
ATOM     17  O   UNL     1       0.961   2.711  -5.198  0.00  0.00    -0.244 OA
ATOM     18  OXT UNL     1       1.698   2.259  -7.124  0.00  0.00    -0.244 OA
ENDBRANCH  11  16
ENDBRANCH   4  11
TORSDOF 5
