REMARK  Name = ZINC64003396
REMARK  10 active torsions:
REMARK  status: ('A' for Active; 'I' for Inactive)
REMARK    1  A    between atoms: C_1  and  C_2
REMARK    2  A    between atoms: C_5  and  C_20
REMARK    3  A    between atoms: C_6  and  C_19
REMARK    4  A    between atoms: N_7  and  C_8
REMARK    5  A    between atoms: C_8  and  C_9
REMARK    6  A    between atoms: C_12  and  S_15
REMARK    7  A    between atoms: S_15  and  N_18
REMARK    8  A    between atoms: N_22  and  C_23
REMARK    9  A    between atoms: C_23  and  C_24
REMARK   10  A    between atoms: C_24  and  C_25
REMARK                            x       y       z     vdW  Elec       q    Type
REMARK                         _______ _______ _______ _____ _____    ______ ____
ROOT
ATOM      1  C   UNL     1       0.022   1.526   0.297  0.00  0.00    +0.028 C 
ATOM      2  C   UNL     1       0.020   0.001   0.179  0.00  0.00    +0.075 C 
ATOM      3  C   UNL     1       0.649  -0.438  -1.157  0.00  0.00    +0.064 C 
ATOM      4  C   UNL     1       1.847  -1.261  -0.736  0.00  0.00    +0.033 C 
ATOM      5  C   UNL     1       1.894  -1.289   0.604  0.00  0.00    +0.012 C 
ATOM      6  N   UNL     1       0.888  -0.596   1.203  0.00  0.00    -0.326 N 
ATOM      7  C   UNL     1       2.961  -2.022   1.376  0.00  0.00    +0.061 C 
ENDROOT
BRANCH   4   8
ATOM      8  C   UNL     1       2.762  -1.895  -1.609  0.00  0.00    +0.242 C 
ATOM      9  O   UNL     1       3.746  -2.454  -1.158  0.00  0.00    -0.270 OA
ATOM     10  N   UNL     1       2.545  -1.882  -2.939  0.00  0.00    -0.311 N 
ATOM     11  H   UNL     1       1.761  -1.437  -3.298  0.00  0.00    +0.149 HD
BRANCH  10  12
ATOM     12  C   UNL     1       3.493  -2.538  -3.842  0.00  0.00    +0.109 C 
BRANCH  12  13
ATOM     13  C   UNL     1       3.016  -2.377  -5.287  0.00  0.00    +0.052 C 
BRANCH  13  14
ATOM     14  C   UNL     1       3.991  -3.052  -6.217  0.00  0.00    -0.040 C 
ATOM     15  C   UNL     1       3.903  -4.307  -6.715  0.00  0.00    -0.001 A 
ATOM     16  C   UNL     1       2.913  -5.377  -6.546  0.00  0.00    +0.010 A 
ATOM     17  C   UNL     1       3.102  -6.553  -7.187  0.00  0.00    +0.001 A 
ATOM     18  C   UNL     1       4.217  -6.774  -8.007  0.00  0.00    +0.002 A 
ATOM     19  C   UNL     1       5.169  -5.840  -8.211  0.00  0.00    +0.026 A 
ATOM     20  C   UNL     1       5.072  -4.566  -7.586  0.00  0.00    +0.043 A 
ATOM     21  N   UNL     1       5.851  -3.512  -7.625  0.00  0.00    -0.380 N 
ATOM     22  C   UNL     1       5.261  -2.463  -6.786  0.00  0.00    +0.144 C 
ATOM     23  H   UNL     1       6.678  -3.438  -8.127  0.00  0.00    +0.160 HD
ENDBRANCH  13  14
ENDBRANCH  12  13
ENDBRANCH  10  12
ENDBRANCH   4   8
BRANCH   6  24
ATOM     24  C   UNL     1       0.699  -0.461   2.650  0.00  0.00    +0.140 C 
BRANCH  24  25
ATOM     25  C   UNL     1      -0.173  -1.585   3.149  0.00  0.00    -0.030 A 
ATOM     26  C   UNL     1      -1.546  -1.432   3.182  0.00  0.00    +0.007 A 
ATOM     27  C   UNL     1      -2.346  -2.462   3.640  0.00  0.00    +0.029 A 
ATOM     28  C   UNL     1      -1.772  -3.647   4.063  0.00  0.00    +0.105 A 
ATOM     29  C   UNL     1      -0.399  -3.800   4.029  0.00  0.00    +0.029 A 
ATOM     30  C   UNL     1       0.401  -2.771   3.567  0.00  0.00    +0.007 A 
BRANCH  28  31
ATOM     31  S   UNL     1      -2.791  -4.960   4.647  0.00  0.00    +0.056 S 
ATOM     32  O   UNL     1      -1.978  -5.759   5.496  0.00  0.00    -0.153 OA
ATOM     33  O   UNL     1      -4.003  -4.367   5.092  0.00  0.00    -0.153 OA
BRANCH  31  34
ATOM     34  N   UNL     1      -3.176  -5.900   3.339  0.00  0.00    -0.204 NA
ATOM     35  H   UNL     1      -3.336  -6.850   3.455  0.00  0.00    +0.144 HD
ATOM     36  H   UNL     1      -3.243  -5.501   2.458  0.00  0.00    +0.144 HD
ENDBRANCH  31  34
ENDBRANCH  28  31
ENDBRANCH  24  25
ENDBRANCH   6  24
TORSDOF 8
