REMARK  Name = ZINC04064138
REMARK  13 active torsions:
REMARK  status: ('A' for Active; 'I' for Inactive)
REMARK    1  A    between atoms: C_1  and  C_2
REMARK    2  A    between atoms: C_6  and  C_22
REMARK    3  A    between atoms: C_6  and  C_23
REMARK    4  A    between atoms: C_13  and  C_15
REMARK    5  A    between atoms: C_15  and  C_16
REMARK    6  A    between atoms: C_16  and  C_17
REMARK    7  A    between atoms: N_25  and  C_26
REMARK    8  A    between atoms: C_26  and  C_27
REMARK    9  A    between atoms: C_27  and  C_28
REMARK   10  A    between atoms: C_28  and  C_29
REMARK   11  A    between atoms: C_29  and  C_30
REMARK   12  A    between atoms: C_30  and  C_31
REMARK   13  A    between atoms: C_31  and  N_72
REMARK                            x       y       z     vdW  Elec       q    Type
REMARK                         _______ _______ _______ _____ _____    ______ ____
ROOT
ATOM      1  C   UNL     1      -0.925   3.151   0.834  0.00  0.00    +0.012 C 
ATOM      2  C   UNL     1      -0.892   1.640   1.067  0.00  0.00    -0.022 C 
ATOM      3  C   UNL     1       0.105   0.994   0.102  0.00  0.00    +0.007 C 
ATOM      4  C   UNL     1      -0.331   1.252  -1.341  0.00  0.00    +0.002 C 
ATOM      5  C   UNL     1      -1.718   0.642  -1.564  0.00  0.00    +0.016 C 
ATOM      6  C   UNL     1      -2.716   1.299  -0.610  0.00  0.00    +0.047 C 
ATOM      7  C   UNL     1      -2.285   1.055   0.839  0.00  0.00    +0.010 C 
ATOM      8  C   UNL     1      -3.293   1.733   1.772  0.00  0.00    +0.009 C 
ATOM      9  C   UNL     1      -2.931   1.429   3.228  0.00  0.00    +0.031 C 
ATOM     10  C   UNL     1      -1.497   1.852   3.460  0.00  0.00    -0.073 C 
ATOM     11  C   UNL     1      -1.179   2.636   4.460  0.00  0.00    +0.008 C 
ATOM     12  C   UNL     1      -0.441   1.344   2.505  0.00  0.00    +0.021 C 
ATOM     13  C   UNL     1      -4.105   0.699  -0.836  0.00  0.00    +0.021 C 
ENDROOT
BRANCH   6  14
ATOM     14  C   UNL     1      -2.762   2.782  -0.876  0.00  0.00    +0.219 C 
ATOM     15  O   UNL     1      -1.984   3.281  -1.661  0.00  0.00    -0.275 OA
ATOM     16  N   UNL     1      -3.668   3.552  -0.242  0.00  0.00    -0.315 N 
ATOM     17  H   UNL     1      -4.252   3.163   0.428  0.00  0.00    +0.149 HD
BRANCH  16  18
ATOM     18  C   UNL     1      -3.771   4.978  -0.564  0.00  0.00    +0.104 C 
BRANCH  18  19
ATOM     19  C   UNL     1      -4.868   5.616   0.290  0.00  0.00    +0.019 C 
BRANCH  19  20
ATOM     20  C   UNL     1      -4.975   7.104  -0.046  0.00  0.00    +0.001 C 
BRANCH  20  21
ATOM     21  C   UNL     1      -6.072   7.743   0.809  0.00  0.00    -0.002 C 
BRANCH  21  22
ATOM     22  C   UNL     1      -6.180   9.231   0.472  0.00  0.00    -0.020 C 
BRANCH  22  23
ATOM     23  C   UNL     1      -7.276   9.870   1.327  0.00  0.00    -0.086 C 
BRANCH  23  26
ATOM     24  H   UNL     1      -7.545  11.436   0.018  0.00  0.00    -0.090 HD
ATOM     25  H   UNL     1      -8.098  11.743   1.556  0.00  0.00    -0.090 HD
ATOM     26  N   UNL     1      -7.356  11.306   1.010  0.00  0.00    +0.378 N 
ATOM     27  H   UNL     1      -6.462  11.754   1.243  0.00  0.00    -0.090 HD
ENDBRANCH  23  26
ENDBRANCH  22  23
ENDBRANCH  21  22
ENDBRANCH  20  21
ENDBRANCH  19  20
ENDBRANCH  18  19
ENDBRANCH  16  18
ENDBRANCH   6  14
BRANCH  12  28
ATOM     28  C   UNL     1       0.887   2.051   2.785  0.00  0.00    +0.013 C 
BRANCH  28  29
ATOM     29  C   UNL     1       1.454   1.561   4.119  0.00  0.00    +0.039 C 
BRANCH  29  30
ATOM     30  C   UNL     1       2.689   2.354   4.461  0.00  0.00    -0.010 A 
ATOM     31  C   UNL     1       2.740   3.556   5.203  0.00  0.00    +0.044 A 
ATOM     32  C   UNL     1       4.034   3.917   5.271  0.00  0.00    +0.195 A 
ATOM     33  O   UNL     1       4.765   3.003   4.613  0.00  0.00    -0.471 OA
ATOM     34  C   UNL     1       3.955   2.050   4.124  0.00  0.00    +0.198 A 
ENDBRANCH  29  30
ENDBRANCH  28  29
ENDBRANCH  12  28
TORSDOF 11
