REMARK  Name = ZINC13068634
REMARK  11 active torsions:
REMARK  status: ('A' for Active; 'I' for Inactive)
REMARK    1  A    between atoms: C_1  and  C_2
REMARK    2  A    between atoms: C_2  and  N_50
REMARK    3  A    between atoms: C_3  and  C_4
REMARK    4  A    between atoms: C_3  and  N_50
REMARK    5  A    between atoms: C_5  and  C_7
REMARK    6  A    between atoms: C_5  and  C_21
REMARK    7  A    between atoms: C_5  and  N_50
REMARK    8  A    between atoms: C_7  and  N_8
REMARK    9  A    between atoms: N_8  and  C_9
REMARK   10  A    between atoms: C_12  and  C_18
REMARK   11  A    between atoms: C_14  and  N_15
REMARK                            x       y       z     vdW  Elec       q    Type
REMARK                         _______ _______ _______ _____ _____    ______ ____
ROOT
ATOM      1  N   UNL     1      -4.842   0.833  -0.992  0.00  0.00    -0.343 N 
ATOM      2  H   UNL     1      -5.317   0.986  -0.160  0.00  0.00    +0.146 HD
ENDROOT
BRANCH   1   3
ATOM      3  C   UNL     1      -5.552   0.612  -2.167  0.00  0.00    +0.058 A 
ATOM      4  C   UNL     1      -4.876   0.256  -3.331  0.00  0.00    +0.026 A 
ATOM      5  C   UNL     1      -5.575   0.036  -4.495  0.00  0.00    +0.015 A 
ATOM      6  C   UNL     1      -6.967   0.171  -4.508  0.00  0.00    +0.039 A 
ATOM      7  C   UNL     1      -7.643   0.529  -3.338  0.00  0.00    +0.047 A 
ATOM      8  C   UNL     1      -6.938   0.742  -2.176  0.00  0.00    +0.148 A 
BRANCH   6   9
ATOM      9  C   UNL     1      -7.720  -0.063  -5.755  0.00  0.00    +0.242 C 
ATOM     10  O   UNL     1      -8.931   0.055  -5.765  0.00  0.00    -0.270 OA
ATOM     11  N   UNL     1      -7.067  -0.407  -6.882  0.00  0.00    -0.325 N 
ATOM     12  H   UNL     1      -6.102  -0.501  -6.874  0.00  0.00    +0.145 HD
ATOM     13  H   UNL     1      -7.562  -0.561  -7.702  0.00  0.00    +0.145 HD
ENDBRANCH   6   9
BRANCH   8  14
ATOM     14  N   UNL     1      -7.654   1.115  -0.935  0.00  0.00    +0.058 N 
ATOM     15  O   UNL     1      -8.871   1.121  -0.912  0.00  0.00    -0.126 OA
ATOM     16  O   UNL     1      -7.025   1.416   0.064  0.00  0.00    -0.126 OA
ENDBRANCH   8  14
ENDBRANCH   1   3
BRANCH   1  17
ATOM     17  C   UNL     1      -3.377   0.834  -1.010  0.00  0.00    +0.091 C 
BRANCH  17  18
ATOM     18  C   UNL     1      -2.850   1.245   0.366  0.00  0.00    -0.019 C 
BRANCH  18  19
ATOM     19  C   UNL     1      -1.343   1.214   0.357  0.00  0.00    -0.041 A 
ATOM     20  C   UNL     1      -0.628   2.396   0.305  0.00  0.00    +0.003 A 
ATOM     21  C   UNL     1       0.753   2.368   0.291  0.00  0.00    +0.000 A 
ATOM     22  C   UNL     1       1.421   1.158   0.334  0.00  0.00    +0.001 A 
ATOM     23  C   UNL     1       0.708  -0.024   0.390  0.00  0.00    +0.020 A 
ATOM     24  C   UNL     1      -0.676   0.004   0.404  0.00  0.00    +0.043 A 
ATOM     25 CL   UNL     1      -1.573  -1.481   0.474  0.00  0.00    -0.083 Cl
ENDBRANCH  18  19
BRANCH  18  26
ATOM     26  N   UNL     1      -3.289   2.618   0.694  0.00  0.00    +0.385 N 
ATOM     27  H   UNL     1      -2.519   3.111   1.161  0.00  0.00    -0.081 HD
BRANCH  26  29
ATOM     28  C   UNL     1      -2.353   3.814  -1.221  0.00  0.00    -0.017 C 
ATOM     29  C   UNL     1      -3.642   3.344  -0.544  0.00  0.00    -0.081 C 
ENDBRANCH  26  29
BRANCH  26  30
ATOM     30  C   UNL     1      -4.453   2.572   1.603  0.00  0.00    -0.081 C 
ATOM     31  C   UNL     1      -3.962   2.239   3.013  0.00  0.00    -0.017 C 
ENDBRANCH  26  30
ENDBRANCH  18  26
ENDBRANCH  17  18
ENDBRANCH   1  17
TORSDOF 9
