REMARK  Name = ZINC64412708
REMARK  10 active torsions:
REMARK  status: ('A' for Active; 'I' for Inactive)
REMARK    1  A    between atoms: C_1  and  C_2
REMARK    2  A    between atoms: C_5  and  C_8
REMARK    3  A    between atoms: C_8  and  N_9
REMARK    4  A    between atoms: N_9  and  C_10
REMARK    5  A    between atoms: C_10  and  C_11
REMARK    6  A    between atoms: N_15  and  C_16
REMARK    7  A    between atoms: C_18  and  C_24
REMARK    8  A    between atoms: C_18  and  C_25
REMARK    9  A    between atoms: C_20  and  C_22
REMARK   10  A    between atoms: C_20  and  C_23
REMARK                            x       y       z     vdW  Elec       q    Type
REMARK                         _______ _______ _______ _____ _____    ______ ____
ROOT
ATOM      1  N   UNL     1       1.480  -4.835  -0.705  0.00  0.00    -0.270 N 
ATOM      2  C   UNL     1       2.215  -5.012  -1.822  0.00  0.00    +0.303 C 
ATOM      3  O   UNL     1       1.726  -4.789  -2.913  0.00  0.00    -0.253 OA
ATOM      4  N   UNL     1       3.491  -5.435  -1.729  0.00  0.00    -0.296 N 
ATOM      5  H   UNL     1       3.881  -5.613  -0.859  0.00  0.00    +0.151 HD
ENDROOT
BRANCH   4   6
ATOM      6  C   UNL     1       4.291  -5.628  -2.945  0.00  0.00    +0.072 C 
ATOM      7  C   UNL     1       4.949  -4.301  -3.329  0.00  0.00    +0.009 C 
ATOM      8  C   UNL     1       5.796  -4.488  -4.587  0.00  0.00    -0.072 C 
ATOM      9  N   UNL     1       6.761  -5.569  -4.443  0.00  0.00    +0.386 N 
ATOM     10  C   UNL     1       6.287  -6.827  -3.889  0.00  0.00    -0.072 C 
ATOM     11  C   UNL     1       5.394  -6.648  -2.666  0.00  0.00    +0.009 C 
ATOM     12  C   UNL     1       5.568  -7.675  -4.942  0.00  0.00    -0.010 C 
ATOM     13  C   UNL     1       7.529  -7.631  -3.436  0.00  0.00    -0.010 C 
ATOM     14  C   UNL     1       6.590  -3.179  -4.804  0.00  0.00    -0.010 C 
ATOM     15  C   UNL     1       4.895  -4.679  -5.807  0.00  0.00    -0.010 C 
ATOM     16  H   UNL     1       7.173  -5.755  -5.361  0.00  0.00    -0.084 HD
ATOM     17  H   UNL     1       7.534  -5.233  -3.864  0.00  0.00    -0.084 HD
ENDBRANCH   4   6
BRANCH   1  18
ATOM     18  C   UNL     1       0.093  -4.375  -0.806  0.00  0.00    +0.145 C 
BRANCH  18  23
ATOM     19  C   UNL     1      -0.040   1.400  -0.644  0.00  0.00    +0.044 C 
ATOM     20  C   UNL     1      -0.005  -0.106  -0.686  0.00  0.00    -0.050 A 
ATOM     21  C   UNL     1       0.111  -0.761  -1.898  0.00  0.00    +0.003 A 
ATOM     22  C   UNL     1       0.142  -2.142  -1.937  0.00  0.00    +0.005 A 
ATOM     23  C   UNL     1       0.059  -2.869  -0.764  0.00  0.00    -0.030 A 
ATOM     24  C   UNL     1      -0.055  -2.214   0.448  0.00  0.00    +0.005 A 
ATOM     25  C   UNL     1      -0.083  -0.832   0.487  0.00  0.00    +0.003 A 
ENDBRANCH  18  23
ENDBRANCH   1  18
BRANCH   1  26
ATOM     26  C   UNL     1       2.069  -5.103   0.609  0.00  0.00    +0.198 C 
BRANCH  26  27
ATOM     27  C   UNL     1       1.835  -6.510   0.974  0.00  0.00    -0.086 C 
ATOM     28  C   UNL     1       1.648  -7.631   1.265  0.00  0.00    +0.005 C 
ENDBRANCH  26  27
ENDBRANCH   1  26
TORSDOF 5
