REMARK  Name = ZINC43286068
REMARK  8 active torsions:
REMARK  status: ('A' for Active; 'I' for Inactive)
REMARK    1  A    between atoms: C_1  and  C_2
REMARK    2  A    between atoms: C_2  and  C_3
REMARK    3  A    between atoms: C_3  and  C_5
REMARK    4  A    between atoms: C_3  and  N_22
REMARK    5  A    between atoms: C_5  and  C_7
REMARK    6  A    between atoms: C_5  and  N_13
REMARK    7  A    between atoms: C_17  and  C_20
REMARK    8  A    between atoms: C_20  and  O_21
REMARK                            x       y       z     vdW  Elec       q    Type
REMARK                         _______ _______ _______ _____ _____    ______ ____
ROOT
ATOM      1  C   UNL     1       0.980  -2.022   1.235  0.00  0.00    +0.079 C 
ENDROOT
BRANCH   1   2
ATOM      2  C   UNL     1       1.623  -2.500   2.511  0.00  0.00    +0.006 A 
ATOM      3  C   UNL     1       1.044  -3.070   3.597  0.00  0.00    +0.028 A 
ATOM      4  C   UNL     1       1.840  -3.433   4.667  0.00  0.00    +0.025 A 
ATOM      5  C   UNL     1       3.176  -3.210   4.599  0.00  0.00    +0.060 A 
ATOM      6  S   UNL     1       3.344  -2.471   2.982  0.00  0.00    -0.099 S 
ATOM      7 BR   UNL     1       1.078  -4.230   6.204  0.00  0.00    -0.050 Br
ENDBRANCH   1   2
BRANCH   1   8
ATOM      8  N   UNL     1       1.833  -2.378   0.093  0.00  0.00    -0.296 NA
ATOM      9  C   UNL     1       1.311  -1.806  -1.154  0.00  0.00    +0.085 C 
ATOM     10  C   UNL     1       2.298  -2.072  -2.292  0.00  0.00    +0.016 C 
ATOM     11  C   UNL     1       2.495  -3.583  -2.446  0.00  0.00    +0.008 C 
ATOM     12  C   UNL     1       2.994  -4.163  -1.119  0.00  0.00    +0.029 C 
ATOM     13  C   UNL     1       1.986  -3.835  -0.015  0.00  0.00    +0.090 C 
BRANCH  12  14
ATOM     14  C   UNL     1       3.137  -5.681  -1.247  0.00  0.00    +0.160 C 
BRANCH  14  15
ATOM     15  O   UNL     1       4.159  -5.984  -2.199  0.00  0.00    -0.395 OA
ATOM     16  H   UNL     1       4.305  -6.931  -2.331  0.00  0.00    +0.209 HD
ENDBRANCH  14  15
ENDBRANCH  12  14
ENDBRANCH   1   8
BRANCH   1  17
ATOM     17  C   UNL     1       0.808  -0.503   1.288  0.00  0.00    -0.053 C 
BRANCH  17  18
ATOM     18  N   UNL     1       2.123   0.134   1.438  0.00  0.00    +0.381 N 
ATOM     19  H   UNL     1       2.707  -0.111   0.652  0.00  0.00    -0.090 HD
ATOM     20  H   UNL     1       2.010   1.136   1.473  0.00  0.00    -0.090 HD
ATOM     21  H   UNL     1       2.557  -0.186   2.291  0.00  0.00    -0.090 HD
ENDBRANCH  17  18
BRANCH  17  23
ATOM     22  C   UNL     1      -0.377   1.368   2.445  0.00  0.00    +0.002 C 
ATOM     23  C   UNL     1      -0.077  -0.132   2.480  0.00  0.00    -0.018 C 
ENDBRANCH  17  23
ENDBRANCH   1  17
TORSDOF 7
