REMARK  Name = ZINC57845524
REMARK  11 active torsions:
REMARK  status: ('A' for Active; 'I' for Inactive)
REMARK    1  A    between atoms: C_1  and  C_2
REMARK    2  A    between atoms: C_2  and  C_3
REMARK    3  A    between atoms: C_3  and  C_15
REMARK    4  A    between atoms: N_6  and  C_10
REMARK    5  A    between atoms: C_10  and  C_12
REMARK    6  A    between atoms: C_10  and  C_13
REMARK    7  A    between atoms: C_13  and  N_14
REMARK    8  A    between atoms: C_18  and  O_21
REMARK    9  A    between atoms: O_21  and  C_22
REMARK   10  A    between atoms: C_22  and  C_23
REMARK   11  A    between atoms: C_22  and  C_24
REMARK                            x       y       z     vdW  Elec       q    Type
REMARK                         _______ _______ _______ _____ _____    ______ ____
ROOT
ATOM      1  C   UNL     1       0.245  -0.535  -2.007  0.00  0.00    +0.138 C 
ATOM      2  C   UNL     1      -0.317  -0.167  -3.366  0.00  0.00    +0.251 C 
ATOM      3  O   UNL     1      -1.403  -0.467  -3.815  0.00  0.00    -0.272 OA
ATOM      4  N   UNL     1       0.640   0.565  -3.970  0.00  0.00    -0.223 N 
ATOM      5  C   UNL     1       1.717   0.708  -3.191  0.00  0.00    +0.310 C 
ATOM      6  O   UNL     1       2.711   1.327  -3.518  0.00  0.00    -0.252 OA
ATOM      7  N   UNL     1       1.579   0.090  -2.004  0.00  0.00    -0.281 N 
ATOM      8  H   UNL     1       2.230   0.062  -1.285  0.00  0.00    +0.152 HD
ENDROOT
BRANCH   1   9
ATOM      9  C   UNL     1       0.360  -2.031  -1.865  0.00  0.00    -0.015 A 
ATOM     10  C   UNL     1      -0.676  -2.752  -1.302  0.00  0.00    +0.010 A 
ATOM     11  C   UNL     1      -0.572  -4.124  -1.170  0.00  0.00    +0.046 A 
ATOM     12  C   UNL     1       0.572  -4.777  -1.604  0.00  0.00    +0.121 A 
ATOM     13  C   UNL     1       1.610  -4.050  -2.170  0.00  0.00    +0.046 A 
ATOM     14  C   UNL     1       1.500  -2.680  -2.304  0.00  0.00    +0.010 A 
BRANCH  12  15
ATOM     15  O   UNL     1       0.677  -6.125  -1.475  0.00  0.00    -0.489 OA
BRANCH  15  16
ATOM     16  C   UNL     1      -0.376  -6.794  -0.778  0.00  0.00    +0.167 C 
ATOM     17  C   UNL     1      -1.522  -7.092  -1.748  0.00  0.00    +0.051 C 
ATOM     18  C   UNL     1       0.151  -8.106  -0.193  0.00  0.00    +0.051 C 
ENDBRANCH  15  16
ENDBRANCH  12  15
ENDBRANCH   1   9
BRANCH   1  20
ATOM     19  C   UNL     1      -0.769   1.555  -1.087  0.00  0.00    +0.007 C 
ATOM     20  C   UNL     1      -0.624   0.045  -0.890  0.00  0.00    +0.037 C 
ENDBRANCH   1  20
BRANCH   4  21
ATOM     21  C   UNL     1       0.516   1.132  -5.315  0.00  0.00    +0.065 C 
ATOM     22  C   UNL     1       1.623   0.571  -6.210  0.00  0.00    +0.026 C 
BRANCH  21  23
ATOM     23  C   UNL     1       0.643   2.655  -5.241  0.00  0.00    -0.063 C 
BRANCH  23  24
ATOM     24  N   UNL     1      -0.344   3.182  -4.289  0.00  0.00    +0.379 N 
ATOM     25  H   UNL     1      -1.273   2.937  -4.598  0.00  0.00    -0.090 HD
ATOM     26  H   UNL     1      -0.177   2.785  -3.377  0.00  0.00    -0.090 HD
ATOM     27  H   UNL     1      -0.260   4.186  -4.240  0.00  0.00    -0.090 HD
ENDBRANCH  23  24
ENDBRANCH  21  23
ENDBRANCH   4  21
TORSDOF 7
