REMARK  Name = ZINC63922160
REMARK  11 active torsions:
REMARK  status: ('A' for Active; 'I' for Inactive)
REMARK    1  A    between atoms: C_1  and  C_2
REMARK    2  A    between atoms: C_4  and  C_34
REMARK    3  A    between atoms: N_5  and  C_7
REMARK    4  A    between atoms: C_10  and  C_13
REMARK    5  A    between atoms: C_13  and  C_14
REMARK    6  A    between atoms: C_14  and  N_15
REMARK    7  A    between atoms: C_16  and  C_18
REMARK    8  A    between atoms: C_18  and  C_19
REMARK    9  A    between atoms: C_19  and  C_20
REMARK   10  A    between atoms: C_22  and  C_33
REMARK   11  A    between atoms: N_27  and  C_32
REMARK                            x       y       z     vdW  Elec       q    Type
REMARK                         _______ _______ _______ _____ _____    ______ ____
ROOT
ATOM      1  N   UNL     1       1.705  -9.328   3.155  0.00  0.00    -0.315 N 
ATOM      2  C   UNL     1       2.720 -10.166   2.866  0.00  0.00    +0.213 C 
ATOM      3  O   UNL     1       3.568  -9.837   2.064  0.00  0.00    -0.276 OA
ATOM      4  H   UNL     1       1.027  -9.591   3.797  0.00  0.00    +0.149 HD
ENDROOT
BRANCH   1   5
ATOM      5  C   UNL     1       1.625  -8.020   2.500  0.00  0.00    +0.109 C 
BRANCH   5   6
ATOM      6  C   UNL     1       0.388  -7.273   3.002  0.00  0.00    +0.054 C 
BRANCH   6  10
ATOM      7  C   UNL     1       0.157  -3.457   1.092  0.00  0.00    +0.066 A 
ATOM      8  C   UNL     1      -0.457  -4.561   0.516  0.00  0.00    +0.028 A 
ATOM      9  C   UNL     1      -0.380  -5.793   1.136  0.00  0.00    +0.006 A 
ATOM     10  C   UNL     1       0.307  -5.927   2.329  0.00  0.00    -0.046 A 
ATOM     11  C   UNL     1       0.919  -4.829   2.904  0.00  0.00    +0.006 A 
ATOM     12  C   UNL     1       0.851  -3.596   2.286  0.00  0.00    +0.028 A 
BRANCH   7  17
ATOM     13  C   UNL     1       1.470   0.990  -0.670  0.00  0.00    +0.067 C 
ATOM     14  C   UNL     1       0.675  -0.238  -0.310  0.00  0.00    +0.061 A 
ATOM     15  C   UNL     1      -0.676  -0.455  -0.601  0.00  0.00    +0.047 A 
ATOM     16  C   UNL     1      -1.018  -1.671  -0.114  0.00  0.00    +0.042 A 
ATOM     17  N   UNL     1       0.081  -2.205   0.465  0.00  0.00    -0.237 N 
ATOM     18  N   UNL     1       1.131  -1.288   0.324  0.00  0.00    -0.171 NA
ATOM     19  C   UNL     1      -2.378  -2.313  -0.202  0.00  0.00    +0.066 C 
ENDBRANCH   7  17
ENDBRANCH   6  10
ENDBRANCH   5   6
ENDBRANCH   1   5
BRANCH   2  20
ATOM     20  C   UNL     1       2.802 -11.512   3.540  0.00  0.00    +0.097 C 
BRANCH  20  21
ATOM     21  C   UNL     1       4.039 -12.259   3.038  0.00  0.00    +0.026 C 
BRANCH  21  22
ATOM     22  C   UNL     1       4.122 -13.625   3.722  0.00  0.00    +0.104 C 
ATOM     23  C   UNL     1       5.223 -14.419   3.046  0.00  0.00    -0.045 C 
ATOM     24  C   UNL     1       6.237 -14.858   3.824  0.00  0.00    +0.084 A 
ATOM     25  C   UNL     1       7.460 -15.638   3.564  0.00  0.00    +0.297 A 
ATOM     26  O   UNL     1       7.862 -16.125   2.362  0.00  0.00    -0.264 OA
ATOM     27  N   UNL     1       8.083 -15.773   4.697  0.00  0.00    -0.127 NA
ATOM     28  N   UNL     1       7.396 -15.150   5.739  0.00  0.00    -0.248 N 
ATOM     29  C   UNL     1       6.257 -14.571   5.268  0.00  0.00    +0.154 A 
ATOM     30  N   UNL     1       5.298 -13.879   5.862  0.00  0.00    -0.161 NA
ATOM     31  C   UNL     1       4.250 -13.392   5.211  0.00  0.00    +0.245 C 
ATOM     32  O   UNL     1       3.398 -12.763   5.808  0.00  0.00    -0.273 OA
ATOM     33  C   UNL     1       7.836 -15.123   7.136  0.00  0.00    +0.174 C 
ATOM     34  C   UNL     1       5.189 -14.705   1.567  0.00  0.00    +0.041 C 
ENDBRANCH  21  22
ENDBRANCH  20  21
ENDBRANCH   2  20
TORSDOF 7
