REMARK  Name = ZINC22074213
REMARK  15 active torsions:
REMARK  status: ('A' for Active; 'I' for Inactive)
REMARK    1  A    between atoms: C_1  and  C_2
REMARK    2  A    between atoms: C_2  and  O_3
REMARK    3  A    between atoms: O_3  and  C_4
REMARK    4  A    between atoms: C_6  and  C_19
REMARK    5  A    between atoms: C_9  and  O_10
REMARK    6  A    between atoms: O_10  and  C_11
REMARK    7  A    between atoms: C_11  and  C_12
REMARK    8  A    between atoms: N_14  and  C_15
REMARK    9  A    between atoms: C_15  and  C_16
REMARK   10  A    between atoms: C_15  and  C_17
REMARK   11  A    between atoms: C_15  and  C_18
REMARK   12  A    between atoms: C_19  and  N_20
REMARK   13  A    between atoms: N_20  and  C_21
REMARK   14  A    between atoms: C_21  and  C_23
REMARK   15  A    between atoms: C_21  and  C_24
REMARK                            x       y       z     vdW  Elec       q    Type
REMARK                         _______ _______ _______ _____ _____    ______ ____
ROOT
ATOM      1  C   UNL     1      -0.148   1.182   2.380  0.00  0.00    +0.162 A 
ATOM      2  C   UNL     1       0.993   0.398   2.422  0.00  0.00    +0.051 A 
ATOM      3  C   UNL     1       1.534   0.028   3.639  0.00  0.00    -0.061 A 
ATOM      4  C   UNL     1       0.938   0.438   4.817  0.00  0.00    +0.005 A 
ATOM      5  C   UNL     1      -0.201   1.221   4.783  0.00  0.00    +0.049 A 
ATOM      6  C   UNL     1      -0.745   1.600   3.566  0.00  0.00    +0.163 A 
ENDROOT
BRANCH   1   7
ATOM      7  O   UNL     1      -0.682   1.547   1.184  0.00  0.00    -0.489 OA
BRANCH   7   9
ATOM      8  C   UNL     1      -0.753   1.593  -1.232  0.00  0.00    +0.048 C 
ATOM      9  C   UNL     1      -0.013   1.086   0.008  0.00  0.00    +0.226 C 
ENDBRANCH   7   9
ENDBRANCH   1   7
BRANCH   6  10
ATOM     10  O   UNL     1      -1.862   2.374   3.531  0.00  0.00    -0.479 OA
BRANCH  10  11
ATOM     11  C   UNL     1      -2.420   2.766   4.787  0.00  0.00    +0.324 C 
BRANCH  11  12
ATOM     12  C   UNL     1      -3.644   3.613   4.550  0.00  0.00    +0.251 C 
ATOM     13  O   UNL     1      -4.003   3.858   3.418  0.00  0.00    -0.272 OA
ATOM     14  N   UNL     1      -4.340   4.099   5.597  0.00  0.00    -0.308 N 
ATOM     15  H   UNL     1      -4.014   3.878   6.624  0.00  0.00    +0.149 HD
BRANCH  14  16
ATOM     16  C   UNL     1      -5.529   4.923   5.367  0.00  0.00    +0.026 C 
ATOM     17  C   UNL     1      -6.563   4.117   4.579  0.00  0.00    +0.031 C 
ATOM     18  C   UNL     1      -6.127   5.343   6.712  0.00  0.00    +0.031 C 
ATOM     19  C   UNL     1      -5.140   6.170   4.571  0.00  0.00    +0.031 C 
ENDBRANCH  14  16
ENDBRANCH  11  12
ENDBRANCH  10  11
ENDBRANCH   6  10
BRANCH   3  20
ATOM     20  C   UNL     1       2.776  -0.825   3.682  0.00  0.00    -0.046 C 
BRANCH  20  21
ATOM     21  N   UNL     1       3.963   0.040   3.695  0.00  0.00    +0.384 N 
ATOM     22  H   UNL     1       3.975   0.660   2.787  0.00  0.00    -0.085 HD
ATOM     23  H   UNL     1       3.934   0.690   4.582  0.00  0.00    -0.085 HD
BRANCH  21  24
ATOM     24  C   UNL     1       5.196  -0.758   3.737  0.00  0.00    -0.068 C 
ATOM     25  C   UNL     1       5.522  -1.117   5.188  0.00  0.00    -0.013 C 
BRANCH  24  26
ATOM     26  C   UNL     1       6.348   0.051   3.140  0.00  0.00    -0.041 C 
ATOM     27  C   UNL     1       6.544   1.334   3.951  0.00  0.00    +0.009 C 
ATOM     28  C   UNL     1       7.697   2.144   3.354  0.00  0.00    -0.010 C 
ATOM     29  C   UNL     1       8.980   1.313   3.398  0.00  0.00    +0.007 C 
ATOM     30  C   UNL     1       8.785   0.030   2.587  0.00  0.00    -0.010 C 
ATOM     31  C   UNL     1       7.632  -0.780   3.184  0.00  0.00    +0.009 C 
ATOM     32  C   UNL     1       8.459   0.388   1.136  0.00  0.00    +0.007 C 
ATOM     33  C   UNL     1       7.175   1.220   1.093  0.00  0.00    -0.010 C 
ATOM     34  C   UNL     1       7.370   2.503   1.903  0.00  0.00    +0.007 C 
ATOM     35  C   UNL     1       6.022   0.410   1.689  0.00  0.00    +0.009 C 
ENDBRANCH  24  26
ENDBRANCH  21  24
ENDBRANCH  20  21
ENDBRANCH   3  20
TORSDOF 10
