REMARK  Name = ZINC12579791
REMARK  8 active torsions:
REMARK  status: ('A' for Active; 'I' for Inactive)
REMARK    1  A    between atoms: C_1  and  N_2
REMARK    2  A    between atoms: C_6  and  C_7
REMARK    3  A    between atoms: C_7  and  C_9
REMARK    4  A    between atoms: C_7  and  N_15
REMARK    5  A    between atoms: N_15  and  C_16
REMARK    6  A    between atoms: C_19  and  S_25
REMARK    7  A    between atoms: C_21  and  N_22
REMARK    8  A    between atoms: S_25  and  N_28
REMARK                            x       y       z     vdW  Elec       q    Type
REMARK                         _______ _______ _______ _____ _____    ______ ____
ROOT
ATOM      1  N   UNL     1      -0.732  -1.044   3.793  0.00  0.00    -0.329 N 
ATOM      2  H   UNL     1      -0.295  -1.762   4.278  0.00  0.00    +0.147 HD
ENDROOT
BRANCH   1   3
ATOM      3  C   UNL     1      -2.123  -1.032   3.666  0.00  0.00    +0.059 A 
ATOM      4  C   UNL     1      -2.759   0.053   3.076  0.00  0.00    +0.027 A 
ATOM      5  C   UNL     1      -4.134   0.061   2.951  0.00  0.00    +0.030 A 
ATOM      6  C   UNL     1      -4.879  -1.009   3.414  0.00  0.00    +0.107 A 
ATOM      7  C   UNL     1      -4.249  -2.090   4.003  0.00  0.00    +0.063 A 
ATOM      8  C   UNL     1      -2.873  -2.108   4.125  0.00  0.00    +0.149 A 
BRANCH   8   9
ATOM      9  N   UNL     1      -2.199  -3.268   4.750  0.00  0.00    +0.058 N 
ATOM     10  O   UNL     1      -1.139  -3.656   4.317  0.00  0.00    -0.126 OA
ATOM     11  O   UNL     1      -2.709  -3.828   5.692  0.00  0.00    -0.126 OA
ENDBRANCH   8   9
BRANCH   6  12
ATOM     12  S   UNL     1      -6.633  -0.995   3.253  0.00  0.00    +0.056 S 
ATOM     13  O   UNL     1      -7.140  -1.866   4.255  0.00  0.00    -0.153 OA
ATOM     14  O   UNL     1      -7.021   0.369   3.163  0.00  0.00    -0.153 OA
BRANCH  12  15
ATOM     15  N   UNL     1      -6.997  -1.688   1.794  0.00  0.00    -0.204 NA
ATOM     16  H   UNL     1      -7.833  -2.167   1.680  0.00  0.00    +0.144 HD
ATOM     17  H   UNL     1      -6.375  -1.615   1.054  0.00  0.00    +0.144 HD
ENDBRANCH  12  15
ENDBRANCH   6  12
ENDBRANCH   1   3
BRANCH   1  18
ATOM     18  C   UNL     1       0.067   0.028   3.194  0.00  0.00    +0.165 C 
BRANCH  18  24
ATOM     19  C   UNL     1       0.255   2.050   0.854  0.00  0.00    +0.150 C 
ATOM     20  N   UNL     1       0.419   0.598   0.741  0.00  0.00    -0.337 N 
ATOM     21  C   UNL     1       0.685  -0.102  -0.404  0.00  0.00    +0.104 A 
ATOM     22  C   UNL     1       0.756  -1.402  -0.059  0.00  0.00    +0.102 A 
ATOM     23  N   UNL     1       0.538  -1.492   1.262  0.00  0.00    -0.348 N 
ATOM     24  C   UNL     1       0.341  -0.298   1.748  0.00  0.00    +0.112 A 
ATOM     25  H   UNL     1       0.533  -2.316   1.775  0.00  0.00    +0.167 HD
ENDBRANCH  18  24
BRANCH  18  26
ATOM     26  C   UNL     1       1.373   0.155   3.936  0.00  0.00    -0.020 A 
ATOM     27  C   UNL     1       2.046  -0.979   4.349  0.00  0.00    +0.006 A 
ATOM     28  C   UNL     1       3.244  -0.862   5.030  0.00  0.00    +0.000 A 
ATOM     29  C   UNL     1       3.768   0.389   5.297  0.00  0.00    +0.000 A 
ATOM     30  C   UNL     1       3.094   1.523   4.883  0.00  0.00    +0.000 A 
ATOM     31  C   UNL     1       1.899   1.406   4.199  0.00  0.00    +0.006 A 
ENDBRANCH  18  26
ENDBRANCH   1  18
TORSDOF 7
