REMARK  Name = ZINC42615876
REMARK  8 active torsions:
REMARK  status: ('A' for Active; 'I' for Inactive)
REMARK    1  A    between atoms: C_1  and  C_2
REMARK    2  A    between atoms: C_2  and  N_3
REMARK    3  A    between atoms: C_6  and  N_9
REMARK    4  A    between atoms: N_9  and  C_10
REMARK    5  A    between atoms: N_9  and  C_11
REMARK    6  A    between atoms: C_11  and  C_13
REMARK    7  A    between atoms: C_11  and  C_15
REMARK    8  A    between atoms: C_13  and  N_14
REMARK                            x       y       z     vdW  Elec       q    Type
REMARK                         _______ _______ _______ _____ _____    ______ ____
ROOT
ATOM      1  C   UNL     1      -5.128  -3.908   0.426  0.00  0.00    +0.105 C 
ENDROOT
BRANCH   1   2
ATOM      2  C   UNL     1      -6.487  -4.255  -0.125  0.00  0.00    +0.122 A 
ATOM      3  C   UNL     1      -6.727  -5.054  -1.179  0.00  0.00    +0.047 A 
ATOM      4  C   UNL     1      -8.130  -5.102  -1.346  0.00  0.00    +0.057 A 
ATOM      5  C   UNL     1      -8.664  -4.328  -0.382  0.00  0.00    +0.170 A 
ATOM      6  O   UNL     1      -7.664  -3.823   0.358  0.00  0.00    -0.452 OA
ATOM      7 BR   UNL     1     -10.509  -4.013  -0.112  0.00  0.00    -0.008 Br
ENDBRANCH   1   2
BRANCH   1   8
ATOM      8  N   UNL     1      -5.104  -2.491   0.815  0.00  0.00    -0.294 NA
ATOM      9  C   UNL     1      -5.975  -2.248   1.972  0.00  0.00    +0.105 C 
BRANCH   8  13
ATOM     10  N   UNL     1      -1.512  -0.315   0.429  0.00  0.00    -0.302 NA
ATOM     11  C   UNL     1      -2.301  -0.074   1.644  0.00  0.00    +0.086 C 
ATOM     12  C   UNL     1      -3.739  -0.549   1.423  0.00  0.00    +0.034 C 
ATOM     13  C   UNL     1      -3.732  -2.042   1.085  0.00  0.00    +0.059 C 
ATOM     14  C   UNL     1      -2.864  -2.272  -0.156  0.00  0.00    +0.034 C 
ATOM     15  C   UNL     1      -1.452  -1.748   0.111  0.00  0.00    +0.086 C 
BRANCH  10  17
ATOM     16  C   UNL     1      -0.259   1.778   0.637  0.00  0.00    +0.020 C 
ATOM     17  C   UNL     1      -0.164   0.254   0.555  0.00  0.00    +0.081 C 
ENDBRANCH  10  17
ENDBRANCH   8  13
ENDBRANCH   1   8
BRANCH   1  18
ATOM     18  C   UNL     1      -4.837  -4.777   1.651  0.00  0.00    -0.059 C 
BRANCH  18  19
ATOM     19  N   UNL     1      -4.717  -6.182   1.237  0.00  0.00    +0.379 N 
ATOM     20  H   UNL     1      -5.606  -6.507   0.888  0.00  0.00    -0.090 HD
ATOM     21  H   UNL     1      -4.021  -6.260   0.511  0.00  0.00    -0.090 HD
ATOM     22  H   UNL     1      -4.441  -6.743   2.029  0.00  0.00    -0.090 HD
ENDBRANCH  18  19
ENDBRANCH   1  18
TORSDOF 6
