REMARK  Name = ZINC39855956
REMARK  7 active torsions:
REMARK  status: ('A' for Active; 'I' for Inactive)
REMARK    1  A    between atoms: C_1  and  C_2
REMARK    2  A    between atoms: C_3  and  N_9
REMARK    3  A    between atoms: C_10  and  C_12
REMARK    4  A    between atoms: C_13  and  C_28
REMARK    5  A    between atoms: C_18  and  C_26
REMARK    6  A    between atoms: C_18  and  C_27
REMARK    7  A    between atoms: N_21  and  N_22
REMARK                            x       y       z     vdW  Elec       q    Type
REMARK                         _______ _______ _______ _____ _____    ______ ____
ROOT
ATOM      1  C   UNL     1       0.189   0.090  -4.841  0.00  0.00    +0.193 A 
ATOM      2  C   UNL     1       0.294  -0.462  -6.088  0.00  0.00    +0.009 A 
ATOM      3  C   UNL     1       0.357   0.610  -6.987  0.00  0.00    +0.043 A 
ATOM      4  C   UNL     1       0.289   1.769  -6.251  0.00  0.00    +0.116 A 
ATOM      5  O   UNL     1       0.181   1.436  -4.967  0.00  0.00    -0.454 OA
ATOM      6  C   UNL     1       0.333   3.141  -6.876  0.00  0.00    +0.081 C 
ATOM      7  C   UNL     1       0.960   3.045  -8.270  0.00  0.00    -0.023 C 
ATOM      8  C   UNL     1       0.244   1.984  -9.112  0.00  0.00    +0.064 C 
ATOM      9  C   UNL     1       0.471   0.626  -8.462  0.00  0.00    +0.073 C 
ATOM     10  N   UNL     1       0.746  -0.438  -9.151  0.00  0.00    -0.175 NA
ATOM     11  C   UNL     1       0.848   4.402  -8.967  0.00  0.00    +0.011 C 
ATOM     12  C   UNL     1       2.437   2.669  -8.134  0.00  0.00    +0.011 C 
ATOM     13  C   UNL     1       0.335  -1.930  -6.427  0.00  0.00    +0.048 C 
ENDROOT
BRANCH  10  14
ATOM     14  N   UNL     1       0.842  -0.363 -10.547  0.00  0.00    -0.248 N 
ATOM     15  C   UNL     1       1.132  -1.487 -11.274  0.00  0.00    +0.187 C 
ATOM     16  N   UNL     1       1.223  -1.416 -12.601  0.00  0.00    -0.370 N 
ATOM     17  N   UNL     1       1.322  -2.651 -10.654  0.00  0.00    -0.370 N 
ATOM     18  H   UNL     1       0.703   0.484 -10.998  0.00  0.00    +0.192 HD
ATOM     19  H   UNL     1       1.085  -0.568 -13.053  0.00  0.00    +0.159 HD
ATOM     20  H   UNL     1       1.255  -2.702  -9.688  0.00  0.00    +0.159 HD
ATOM     21  H   UNL     1       1.527  -3.447 -11.169  0.00  0.00    +0.159 HD
ATOM     22  H   UNL     1       1.428  -2.212 -13.117  0.00  0.00    +0.159 HD
ENDBRANCH  10  14
BRANCH   1  24
ATOM     23  N   UNL     1      -0.010   0.011  -2.413  0.00  0.00    -0.279 N 
ATOM     24  C   UNL     1       0.095  -0.654  -3.580  0.00  0.00    +0.284 C 
ATOM     25  O   UNL     1       0.112  -1.871  -3.589  0.00  0.00    -0.266 OA
ATOM     26  H   UNL     1      -0.104   0.976  -2.411  0.00  0.00    +0.155 HD
BRANCH  23  29
ATOM     27  C   UNL     1      -1.264   1.189  -0.146  0.00  0.00    +0.047 C 
ATOM     28  C   UNL     1      -0.583  -0.153  -0.073  0.00  0.00    -0.011 A 
ATOM     29  C   UNL     1       0.017  -0.692  -1.204  0.00  0.00    +0.038 A 
ATOM     30  C   UNL     1       0.643  -1.929  -1.132  0.00  0.00    +0.023 A 
ATOM     31  C   UNL     1       0.667  -2.621   0.064  0.00  0.00    +0.003 A 
ATOM     32  C   UNL     1       0.069  -2.084   1.188  0.00  0.00    +0.020 A 
ATOM     33  C   UNL     1      -0.551  -0.848   1.122  0.00  0.00    +0.046 A 
ATOM     34 CL   UNL     1      -1.294  -0.173   2.538  0.00  0.00    -0.083 Cl
ENDBRANCH  23  29
ENDBRANCH   1  24
TORSDOF 3
