REMARK  Name = ZINC41069975
REMARK  4 active torsions:
REMARK  status: ('A' for Active; 'I' for Inactive)
REMARK    1  A    between atoms: N_9  and  S_10
REMARK    2  A    between atoms: S_10  and  C_13
REMARK    3  A    between atoms: C_18  and  N_19
REMARK    4  A    between atoms: N_19  and  N_20
REMARK                            x       y       z     vdW  Elec       q    Type
REMARK                         _______ _______ _______ _____ _____    ______ ____
ROOT
ATOM      1  S   UNL     1       4.960  -0.357  -0.013  0.00  0.00    +0.078 S 
ATOM      2  O   UNL     1       5.769  -1.402  -0.537  0.00  0.00    -0.150 OA
ATOM      3  O   UNL     1       4.871   0.919  -0.631  0.00  0.00    -0.150 OA
ENDROOT
BRANCH   1  12
ATOM      4  C   UNL     1      -0.236   1.008   0.467  0.00  0.00    +0.000 A 
ATOM      5  C   UNL     1       0.900   1.796   0.426  0.00  0.00    +0.002 A 
ATOM      6  C   UNL     1       2.143   1.216   0.296  0.00  0.00    +0.025 A 
ATOM      7  C   UNL     1       2.266  -0.172   0.205  0.00  0.00    +0.054 A 
ATOM      8  C   UNL     1       1.122  -0.953   0.248  0.00  0.00    -0.023 A 
ATOM      9  C   UNL     1      -0.122  -0.366   0.378  0.00  0.00    +0.005 A 
ATOM     10  C   UNL     1       1.527  -2.406   0.133  0.00  0.00    +0.058 C 
ATOM     11  C   UNL     1       3.059  -2.372   0.017  0.00  0.00    +0.136 C 
ATOM     12  N   UNL     1       3.417  -0.951   0.072  0.00  0.00    -0.202 N 
ENDBRANCH   1  12
BRANCH   1  13
ATOM     13  C   UNL     1       5.504  -0.080   1.640  0.00  0.00    +0.150 A 
ATOM     14  C   UNL     1       5.743   1.205   2.093  0.00  0.00    +0.049 A 
ATOM     15  C   UNL     1       6.170   1.377   3.404  0.00  0.00    +0.038 A 
ATOM     16  C   UNL     1       6.342   0.268   4.210  0.00  0.00    +0.128 A 
ATOM     17  N   UNL     1       6.107  -0.946   3.749  0.00  0.00    -0.236 NA
ATOM     18  C   UNL     1       5.692  -1.150   2.508  0.00  0.00    +0.159 A 
ATOM     19 BR   UNL     1       6.513   3.110   4.077  0.00  0.00    -0.049 Br
BRANCH  18  20
ATOM     20  N   UNL     1       5.450  -2.446   2.068  0.00  0.00    -0.266 N 
ATOM     21  H   UNL     1       5.260  -2.613   1.131  0.00  0.00    +0.167 HD
BRANCH  20  22
ATOM     22  N   UNL     1       5.479  -3.486   2.954  0.00  0.00    -0.255 NA
ATOM     23  H   UNL     1       4.835  -3.329   3.715  0.00  0.00    +0.140 HD
ATOM     24  H   UNL     1       5.285  -4.361   2.491  0.00  0.00    +0.140 HD
ENDBRANCH  20  22
ENDBRANCH  18  20
ENDBRANCH   1  13
TORSDOF 4
