REMARK  Name = ZINC42457093
REMARK  8 active torsions:
REMARK  status: ('A' for Active; 'I' for Inactive)
REMARK    1  A    between atoms: C_1  and  C_2
REMARK    2  A    between atoms: C_2  and  C_4
REMARK    3  A    between atoms: C_2  and  C_16
REMARK    4  A    between atoms: C_4  and  N_5
REMARK    5  A    between atoms: N_5  and  C_6
REMARK    6  A    between atoms: N_5  and  S_7
REMARK    7  A    between atoms: S_7  and  C_10
REMARK    8  A    between atoms: C_16  and  N_18
REMARK                            x       y       z     vdW  Elec       q    Type
REMARK                         _______ _______ _______ _____ _____    ______ ____
ROOT
ATOM      1  N   UNL     1      -0.203  -0.015  -2.435  0.00  0.00    -0.179 NA
ATOM      2  C   UNL     1       0.107   1.273  -3.061  0.00  0.00    +0.131 C 
ENDROOT
BRANCH   1   3
ATOM      3  S   UNL     1      -1.296  -1.038  -3.144  0.00  0.00    +0.067 S 
ATOM      4  O   UNL     1      -1.327  -0.706  -4.525  0.00  0.00    -0.152 OA
ATOM      5  O   UNL     1      -0.987  -2.346  -2.681  0.00  0.00    -0.152 OA
BRANCH   3   6
ATOM      6  C   UNL     1      -2.884  -0.636  -2.494  0.00  0.00    +0.144 A 
ATOM      7  C   UNL     1      -3.798   0.247  -2.962  0.00  0.00    +0.037 A 
ATOM      8  C   UNL     1      -4.992   0.401  -2.281  0.00  0.00    +0.025 A 
ATOM      9  C   UNL     1      -5.212  -0.338  -1.165  0.00  0.00    +0.057 A 
ATOM     10  S   UNL     1      -3.708  -1.294  -1.053  0.00  0.00    -0.062 S 
ATOM     11 BR   UNL     1      -6.722  -0.357  -0.028  0.00  0.00    -0.043 Br
ENDBRANCH   3   6
ENDBRANCH   1   3
BRANCH   1  12
ATOM     12  C   UNL     1       0.453  -0.398  -1.182  0.00  0.00    +0.118 C 
BRANCH  12  14
ATOM     13  C   UNL     1      -0.276   1.703  -0.044  0.00  0.00    +0.015 C 
ATOM     14  C   UNL     1      -0.331   0.175  -0.000  0.00  0.00    +0.053 C 
BRANCH  14  15
ATOM     15  C   UNL     1       0.276  -0.313   1.290  0.00  0.00    +0.050 C 
ATOM     16  S   UNL     1       1.680  -1.079   1.273  0.00  0.00    -0.040 S 
BRANCH  15  17
ATOM     17  N   UNL     1      -0.363  -0.105   2.457  0.00  0.00    -0.355 N 
ATOM     18  H   UNL     1      -1.215   0.360   2.468  0.00  0.00    +0.143 HD
ATOM     19  H   UNL     1       0.028  -0.419   3.288  0.00  0.00    +0.143 HD
ENDBRANCH  15  17
ENDBRANCH  14  15
ENDBRANCH  12  14
ENDBRANCH   1  12
TORSDOF 6
