REMARK  Name = ZINC17043327
REMARK  9 active torsions:
REMARK  status: ('A' for Active; 'I' for Inactive)
REMARK    1  A    between atoms: C_1  and  C_2
REMARK    2  A    between atoms: N_9  and  CA_10
REMARK    3  A    between atoms: CA_10  and  CB_12
REMARK    4  A    between atoms: CA_10  and  C_19
REMARK    5  A    between atoms: CB_12  and  CG_13
REMARK    6  A    between atoms: C_23  and  C_25
REMARK    7  A    between atoms: C_28  and  O_33
REMARK    8  A    between atoms: C_29  and  O_31
REMARK    9  A    between atoms: O_31  and  C_32
REMARK                            x       y       z     vdW  Elec       q    Type
REMARK                         _______ _______ _______ _____ _____    ______ ____
ROOT
ATOM      1  C   UNK A   0       0.567   1.557   0.105  0.00  0.00    +0.044 C 
ATOM      2  C   UNK A   0       0.472   0.054   0.064  0.00  0.00    -0.050 A 
ATOM      3  C   UNK A   0       0.522  -0.608  -1.153  0.00  0.00    +0.007 A 
ATOM      4  C   UNK A   0       0.436  -1.984  -1.209  0.00  0.00    +0.047 A 
ATOM      5  C   UNK A   0       0.299  -2.718  -0.039  0.00  0.00    +0.138 A 
ATOM      6  C   UNK A   0       0.250  -2.047   1.191  0.00  0.00    +0.041 A 
ATOM      7  C   UNK A   0       0.342  -0.659   1.237  0.00  0.00    +0.017 A 
ATOM      8  C   UNK A   0       0.104  -2.850   2.427  0.00  0.00    +0.050 A 
ATOM      9  N   HIS A   1       0.051  -2.282   3.611  0.00  0.00    -0.371 N 
ATOM     10  C   UNK A   0       0.023  -4.265   2.279  0.00  0.00    +0.072 A 
ATOM     11  C   UNK A   0       0.081  -4.809   1.039  0.00  0.00    +0.138 A 
ATOM     12  O   UNK A   0       0.214  -4.065  -0.073  0.00  0.00    -0.455 OA
ATOM     13  H   HIS A   1       0.379  -2.755   4.391  0.00  0.00    +0.160 HD
ENDROOT
BRANCH  11  14
ATOM     14  C   UNK A   0      -0.004  -6.276   0.905  0.00  0.00    +0.021 A 
ATOM     15  C   UNK A   0      -0.148  -7.076   2.041  0.00  0.00    +0.015 A 
ATOM     16  C   UNK A   0      -0.228  -8.447   1.913  0.00  0.00    +0.050 A 
ATOM     17  C   UNK A   0      -0.165  -9.034   0.658  0.00  0.00    +0.158 A 
ATOM     18  C   UNK A   0      -0.021  -8.242  -0.480  0.00  0.00    +0.162 A 
ATOM     19  C   UNK A   0       0.053  -6.868  -0.360  0.00  0.00    +0.061 A 
BRANCH  18  20
ATOM     20  O   UNK A   0       0.041  -8.822  -1.709  0.00  0.00    -0.491 OA
ATOM     21  C   UNK A   0       0.188  -7.949  -2.831  0.00  0.00    +0.277 C 
ENDBRANCH  18  20
BRANCH  17  22
ATOM     22  O   UNK A   0      -0.244 -10.386   0.537  0.00  0.00    -0.503 OA
ATOM     23  H   UNK A   0      -1.145 -10.719   0.432  0.00  0.00    +0.292 HD
ENDBRANCH  17  22
ENDBRANCH  11  14
BRANCH   9  24
ATOM     24  CA  HIS A   1      -0.503  -0.933   3.752  0.00  0.00    +0.199 C 
BRANCH  24  25
ATOM     25  C   HIS A   1       0.596   0.024   4.136  0.00  0.00    +0.378 C 
ATOM     26  O   HIS A   1       1.736  -0.383   4.279  0.00  0.00    -0.244 OA
ATOM     27  OXT HIS A   1       0.344   1.205   4.304  0.00  0.00    -0.244 OA
ENDBRANCH  24  25
BRANCH  24  28
ATOM     28  CB  HIS A   1      -1.581  -0.935   4.838  0.00  0.00    +0.090 C 
BRANCH  28  29
ATOM     29  CG  HIS A   1      -2.736  -1.797   4.398  0.00  0.00    +0.036 A 
ATOM     30  CD2 HIS A   1      -3.762  -1.407   3.618  0.00  0.00    +0.105 A 
ATOM     31  NE2 HIS A   1      -4.580  -2.494   3.466  0.00  0.00    -0.352 N 
ATOM     32  HE2 HIS A   1      -5.404  -2.527   2.956  0.00  0.00    +0.166 HD
ATOM     33  CE1 HIS A   1      -4.024  -3.511   4.158  0.00  0.00    +0.171 A 
ATOM     34  ND1 HIS A   1      -2.919  -3.089   4.709  0.00  0.00    -0.350 N 
ATOM     35  HD1 HIS A   1      -2.325  -3.624   5.258  0.00  0.00    +0.166 HD
ENDBRANCH  28  29
ENDBRANCH  24  28
ENDBRANCH   9  24
TORSDOF 7
