REMARK  Name = ZINC36307929
REMARK  16 active torsions:
REMARK  status: ('A' for Active; 'I' for Inactive)
REMARK    1  A    between atoms: C_1  and  C_2
REMARK    2  A    between atoms: C_2  and  C_3
REMARK    3  A    between atoms: C_2  and  C_4
REMARK    4  A    between atoms: C_5  and  C_23
REMARK    5  A    between atoms: C_6  and  O_15
REMARK    6  A    between atoms: N_7  and  C_9
REMARK    7  A    between atoms: O_15  and  C_16
REMARK    8  A    between atoms: C_23  and  N_24
REMARK    9  A    between atoms: N_24  and  C_25
REMARK   10  A    between atoms: N_24  and  C_29
REMARK   11  A    between atoms: C_25  and  C_26
REMARK   12  A    between atoms: C_29  and  C_30
REMARK   13  A    between atoms: C_30  and  C_32
REMARK   14  A    between atoms: C_30  and  O_35
REMARK   15  A    between atoms: C_32  and  C_33
REMARK   16  A    between atoms: C_32  and  C_34
REMARK                            x       y       z     vdW  Elec       q    Type
REMARK                         _______ _______ _______ _____ _____    ______ ____
ROOT
ATOM      1  C   UNL     1      -0.892  -0.434   0.752  0.00  0.00    +0.071 A 
ATOM      2  C   UNL     1      -1.107  -1.081  -0.469  0.00  0.00    +0.021 A 
ATOM      3  C   UNL     1      -2.389  -1.533  -0.482  0.00  0.00    +0.225 A 
ATOM      4  N   UNL     1      -2.960  -1.177   0.700  0.00  0.00    -0.200 N 
ATOM      5  N   UNL     1      -1.996  -0.495   1.453  0.00  0.00    -0.168 NA
ENDROOT
BRANCH   4   6
ATOM      6  C   UNL     1      -4.277  -1.449   1.097  0.00  0.00    +0.069 A 
ATOM      7  C   UNL     1      -5.318  -1.315   0.189  0.00  0.00    +0.028 A 
ATOM      8  C   UNL     1      -6.615  -1.584   0.582  0.00  0.00    +0.002 A 
ATOM      9  C   UNL     1      -6.875  -1.986   1.879  0.00  0.00    +0.000 A 
ATOM     10  C   UNL     1      -5.840  -2.120   2.786  0.00  0.00    +0.002 A 
ATOM     11  C   UNL     1      -4.541  -1.858   2.397  0.00  0.00    +0.028 A 
ENDBRANCH   4   6
BRANCH   1  13
ATOM     12  C   UNL     1       0.123   1.673   1.577  0.00  0.00    +0.014 C 
ATOM     13  C   UNL     1       0.394   0.218   1.189  0.00  0.00    +0.034 C 
ATOM     14  C   UNL     1       0.963  -0.533   2.394  0.00  0.00    +0.014 C 
ENDBRANCH   1  13
BRANCH   3  15
ATOM     15  O   UNL     1      -2.990  -2.215  -1.490  0.00  0.00    -0.435 OA
BRANCH  15  16
ATOM     16  C   UNL     1      -3.535  -1.498  -2.509  0.00  0.00    +0.165 A 
ATOM     17  C   UNL     1      -3.381  -0.120  -2.549  0.00  0.00    +0.049 A 
ATOM     18  C   UNL     1      -3.936   0.606  -3.586  0.00  0.00    +0.004 A 
ATOM     19  C   UNL     1      -4.645  -0.039  -4.582  0.00  0.00    +0.003 A 
ATOM     20  C   UNL     1      -4.800  -1.412  -4.546  0.00  0.00    +0.042 A 
ATOM     21  C   UNL     1      -4.242  -2.145  -3.514  0.00  0.00    +0.165 A 
ATOM     22  F   UNL     1      -4.390  -3.488  -3.481  0.00  0.00    -0.202 F 
ENDBRANCH  15  16
ENDBRANCH   3  15
BRANCH   2  23
ATOM     23  C   UNL     1      -0.096  -1.248  -1.574  0.00  0.00    -0.036 C 
BRANCH  23  24
ATOM     24  N   UNL     1       0.740  -2.424  -1.300  0.00  0.00    +0.384 N 
ATOM     25  H   UNL     1       1.157  -2.334  -0.386  0.00  0.00    -0.081 HD
BRANCH  24  26
ATOM     26  C   UNL     1       1.798  -2.519  -2.314  0.00  0.00    -0.075 C 
BRANCH  26  27
ATOM     27  C   UNL     1       2.738  -1.319  -2.185  0.00  0.00    -0.028 C 
ATOM     28  C   UNL     1       2.813  -0.350  -3.367  0.00  0.00    +0.002 C 
ATOM     29  C   UNL     1       3.981  -1.295  -3.077  0.00  0.00    +0.002 C 
ENDBRANCH  26  27
ENDBRANCH  24  26
BRANCH  24  30
ATOM     30  C   UNL     1      -0.090  -3.635  -1.343  0.00  0.00    -0.046 C 
BRANCH  30  31
ATOM     31  C   UNL     1       0.753  -4.846  -0.936  0.00  0.00    +0.101 C 
BRANCH  31  32
ATOM     32  C   UNL     1      -0.074  -6.122  -1.100  0.00  0.00    +0.010 C 
ATOM     33  C   UNL     1      -0.503  -6.268  -2.562  0.00  0.00    +0.010 C 
ATOM     34  C   UNL     1       0.768  -7.332  -0.693  0.00  0.00    +0.010 C 
ENDBRANCH  31  32
BRANCH  31  35
ATOM     35  O   UNL     1       1.153  -4.710   0.429  0.00  0.00    -0.393 OA
ATOM     36  H   UNL     1       0.415  -4.653   1.052  0.00  0.00    +0.210 HD
ENDBRANCH  31  35
ENDBRANCH  30  31
ENDBRANCH  24  30
ENDBRANCH  23  24
ENDBRANCH   2  23
TORSDOF 12
