REMARK  Name = ZINC61916416
REMARK  4 active torsions:
REMARK  status: ('A' for Active; 'I' for Inactive)
REMARK    1  A    between atoms: C_2  and  C_12
REMARK    2  A    between atoms: C_12  and  C_14
REMARK    3  A    between atoms: C_12  and  N_16
REMARK    4  A    between atoms: C_14  and  N_15
REMARK                            x       y       z     vdW  Elec       q    Type
REMARK                         _______ _______ _______ _____ _____    ______ ____
ROOT
ATOM      1  C   UNL     1       1.175   3.677  -0.066  0.00  0.00    +0.070 C 
ENDROOT
BRANCH   1   3
ATOM      2  C   UNL     1       0.128   1.404  -0.074  0.00  0.00    +0.054 A 
ATOM      3  C   UNL     1       1.275   2.174  -0.026  0.00  0.00    -0.027 A 
ATOM      4  C   UNL     1       2.514   1.568   0.057  0.00  0.00    +0.024 A 
ATOM      5  C   UNL     1       2.611   0.188   0.092  0.00  0.00    +0.063 A 
ATOM      6  C   UNL     1       1.463  -0.590   0.044  0.00  0.00    +0.176 A 
ATOM      7  C   UNL     1       0.217   0.021  -0.038  0.00  0.00    +0.163 A 
ATOM      8  O   UNL     1      -0.922  -0.723  -0.079  0.00  0.00    -0.485 OA
ATOM      9  C   UNL     1      -0.775  -2.107  -0.417  0.00  0.00    +0.270 C 
ATOM     10  C   UNL     1       0.389  -2.681   0.403  0.00  0.00    +0.270 C 
ATOM     11  O   UNL     1       1.574  -1.946   0.075  0.00  0.00    -0.484 OA
ATOM     12 BR   UNL     1       4.308  -0.638   0.204  0.00  0.00    -0.046 Br
ENDBRANCH   1   3
BRANCH   1  13
ATOM     13  N   UNL     1       2.149   4.258   0.868  0.00  0.00    -0.295 NA
ATOM     14  C   UNL     1       2.009   5.690   0.935  0.00  0.00    +0.087 C 
ATOM     15  C   UNL     1       3.370   6.411   1.073  0.00  0.00    +0.043 C 
ATOM     16  C   UNL     1       4.304   5.646   2.039  0.00  0.00    +0.161 C 
ATOM     17  O   UNL     1       3.643   5.149   3.167  0.00  0.00    -0.378 OA
ATOM     18  C   UNL     1       3.221   3.775   3.009  0.00  0.00    +0.175 C 
ATOM     19  C   UNL     1       1.992   3.684   2.221  0.00  0.00    +0.113 C 
ENDBRANCH   1  13
BRANCH   1  20
ATOM     20  C   UNL     1       1.471   4.171  -1.484  0.00  0.00    -0.063 C 
BRANCH  20  21
ATOM     21  N   UNL     1       0.422   3.696  -2.396  0.00  0.00    +0.379 N 
ATOM     22  H   UNL     1       0.652   3.965  -3.341  0.00  0.00    -0.090 HD
ATOM     23  H   UNL     1       0.356   2.691  -2.339  0.00  0.00    -0.090 HD
ATOM     24  H   UNL     1      -0.462   4.107  -2.136  0.00  0.00    -0.090 HD
ENDBRANCH  20  21
ENDBRANCH   1  20
TORSDOF 4
