REMARK  Name = ZINC40826140
REMARK  6 active torsions:
REMARK  status: ('A' for Active; 'I' for Inactive)
REMARK    1  A    between atoms: C_1  and  C_2
REMARK    2  A    between atoms: C_6  and  C_7
REMARK    3  A    between atoms: N_9  and  C_10
REMARK    4  A    between atoms: N_22  and  N_23
REMARK    5  A    between atoms: N_23  and  S_24
REMARK    6  A    between atoms: S_24  and  C_27
REMARK                            x       y       z     vdW  Elec       q    Type
REMARK                         _______ _______ _______ _____ _____    ______ ____
ROOT
ATOM      1  C   UNL     1      -0.005   1.502   0.010  0.00  0.00    +0.048 C 
ATOM      2  C   UNL     1       0.021  -0.004   0.002  0.00  0.00    +0.009 A 
ATOM      3  C   UNL     1       0.039  -0.838  -1.123  0.00  0.00    +0.042 A 
ATOM      4  C   UNL     1       0.059  -2.137  -0.673  0.00  0.00    +0.115 A 
ATOM      5  O   UNL     1       0.057  -2.112   0.658  0.00  0.00    -0.454 OA
ATOM      6  C   UNL     1       0.039  -0.831   1.091  0.00  0.00    +0.193 A 
ATOM      7  C   UNL     1       0.076  -3.326  -1.600  0.00  0.00    +0.075 C 
ATOM      8  C   UNL     1      -0.440  -2.904  -2.978  0.00  0.00    +0.014 C 
ATOM      9  C   UNL     1       0.330  -1.683  -3.494  0.00  0.00    +0.058 C 
ATOM     10  C   UNL     1       0.040  -0.512  -2.567  0.00  0.00    +0.071 C 
ATOM     11  N   UNL     1      -0.189   0.685  -3.010  0.00  0.00    -0.170 NA
ENDROOT
BRANCH   6  12
ATOM     12  C   UNL     1       0.035  -0.400   2.493  0.00  0.00    +0.284 C 
ATOM     13  O   UNL     1       0.014   0.786   2.766  0.00  0.00    -0.266 OA
ATOM     14  N   UNL     1       0.054  -1.318   3.480  0.00  0.00    -0.278 N 
ATOM     15  H   UNL     1      -0.011  -2.262   3.266  0.00  0.00    +0.155 HD
BRANCH  14  16
ATOM     16  C   UNL     1       0.167  -0.909   4.813  0.00  0.00    +0.054 A 
ATOM     17  C   UNL     1       0.759   0.309   5.120  0.00  0.00    +0.044 A 
ATOM     18  C   UNL     1       0.869   0.710   6.438  0.00  0.00    +0.043 A 
ATOM     19  C   UNL     1       0.390  -0.102   7.452  0.00  0.00    +0.021 A 
ATOM     20  C   UNL     1      -0.200  -1.315   7.150  0.00  0.00    +0.023 A 
ATOM     21  C   UNL     1      -0.318  -1.719   5.833  0.00  0.00    +0.062 A 
ATOM     22 CL   UNL     1      -1.066  -3.239   5.455  0.00  0.00    -0.082 Cl
ATOM     23 CL   UNL     1       1.609   2.232   6.822  0.00  0.00    -0.083 Cl
ENDBRANCH  14  16
ENDBRANCH   6  12
BRANCH  11  24
ATOM     24  N   UNL     1      -0.175   0.937  -4.388  0.00  0.00    -0.136 N 
ATOM     25  H   UNL     1       0.006   0.216  -5.011  0.00  0.00    +0.197 HD
BRANCH  24  26
ATOM     26  S   UNL     1      -0.468   2.466  -4.953  0.00  0.00    +0.086 S 
ATOM     27  O   UNL     1      -0.244   2.430  -6.356  0.00  0.00    -0.149 OA
ATOM     28  O   UNL     1      -1.706   2.877  -4.390  0.00  0.00    -0.149 OA
BRANCH  26  29
ATOM     29  C   UNL     1       0.770   3.519  -4.272  0.00  0.00    +0.110 A 
ATOM     30  C   UNL     1       0.555   4.142  -3.057  0.00  0.00    +0.031 A 
ATOM     31  C   UNL     1       1.525   4.968  -2.522  0.00  0.00    +0.040 A 
ATOM     32  C   UNL     1       2.713   5.171  -3.203  0.00  0.00    +0.124 A 
ATOM     33  C   UNL     1       2.928   4.546  -4.420  0.00  0.00    +0.040 A 
ATOM     34  C   UNL     1       1.958   3.717  -4.951  0.00  0.00    +0.031 A 
ATOM     35  F   UNL     1       3.662   5.979  -2.681  0.00  0.00    -0.205 F 
ENDBRANCH  26  29
ENDBRANCH  24  26
ENDBRANCH  11  24
TORSDOF 5
