REMARK  Name = ZINC42954063
REMARK  11 active torsions:
REMARK  status: ('A' for Active; 'I' for Inactive)
REMARK    1  A    between atoms: C_1  and  C_2
REMARK    2  A    between atoms: C_5  and  C_29
REMARK    3  A    between atoms: N_8  and  C_10
REMARK    4  A    between atoms: C_10  and  C_11
REMARK    5  A    between atoms: C_11  and  C_12
REMARK    6  A    between atoms: C_12  and  C_13
REMARK    7  A    between atoms: C_13  and  N_14
REMARK    8  A    between atoms: N_17  and  C_18
REMARK    9  A    between atoms: C_18  and  C_19
REMARK   10  A    between atoms: C_22  and  S_25
REMARK   11  A    between atoms: S_25  and  N_28
REMARK                            x       y       z     vdW  Elec       q    Type
REMARK                         _______ _______ _______ _____ _____    ______ ____
ROOT
ATOM      1  N   UNL     1       6.033  -2.576   4.436  0.00  0.00    -0.299 N 
ATOM      2  C   UNL     1       7.352  -2.312   4.518  0.00  0.00    +0.300 C 
ATOM      3  O   UNL     1       7.900  -1.674   3.640  0.00  0.00    -0.253 OA
ATOM      4  N   UNL     1       8.063  -2.753   5.575  0.00  0.00    -0.295 N 
ATOM      5  H   UNL     1       5.596  -3.085   5.136  0.00  0.00    +0.150 HD
ATOM      6  H   UNL     1       7.626  -3.262   6.275  0.00  0.00    +0.151 HD
ENDROOT
BRANCH   1   7
ATOM      7  C   UNL     1       5.260  -2.096   3.288  0.00  0.00    +0.105 C 
BRANCH   7   8
ATOM      8  C   UNL     1       3.800  -2.529   3.438  0.00  0.00    +0.017 C 
BRANCH   8   9
ATOM      9  C   UNL     1       2.993  -2.028   2.239  0.00  0.00    -0.017 C 
BRANCH   9  10
ATOM     10  C   UNL     1       1.534  -2.461   2.390  0.00  0.00    -0.079 C 
BRANCH  10  16
ATOM     11  C   UNL     1      -0.019   1.526   0.010  0.00  0.00    +0.005 C 
ATOM     12  C   UNL     1       0.002  -0.004   0.002  0.00  0.00    -0.031 C 
ATOM     13  C   UNL     1      -1.434  -0.535   0.015  0.00  0.00    +0.003 C 
ATOM     14  C   UNL     1      -1.402  -2.064   0.086  0.00  0.00    -0.031 C 
ATOM     15  C   UNL     1      -0.613  -2.496   1.324  0.00  0.00    -0.076 C 
ATOM     16  N   UNL     1       0.758  -1.980   1.239  0.00  0.00    +0.380 N 
ATOM     17  C   UNL     1       0.740  -0.512   1.242  0.00  0.00    -0.076 C 
ATOM     18  C   UNL     1      -2.832  -2.602   0.177  0.00  0.00    +0.005 C 
ATOM     19  H   UNL     1       1.188  -2.307   0.386  0.00  0.00    -0.082 HD
ENDBRANCH  10  16
ENDBRANCH   9  10
ENDBRANCH   8   9
ENDBRANCH   7   8
ENDBRANCH   1   7
BRANCH   4  20
ATOM     20  C   UNL     1       9.497  -2.465   5.665  0.00  0.00    +0.141 C 
BRANCH  20  21
ATOM     21  C   UNL     1      10.051  -3.066   6.931  0.00  0.00    -0.030 A 
ATOM     22  C   UNL     1      10.059  -2.327   8.100  0.00  0.00    +0.007 A 
ATOM     23  C   UNL     1      10.568  -2.878   9.261  0.00  0.00    +0.029 A 
ATOM     24  C   UNL     1      11.068  -4.167   9.254  0.00  0.00    +0.105 A 
ATOM     25  C   UNL     1      11.059  -4.905   8.085  0.00  0.00    +0.029 A 
ATOM     26  C   UNL     1      10.546  -4.356   6.925  0.00  0.00    +0.007 A 
BRANCH  24  27
ATOM     27  S   UNL     1      11.717  -4.868  10.734  0.00  0.00    +0.056 S 
ATOM     28  O   UNL     1      12.621  -5.890  10.337  0.00  0.00    -0.153 OA
ATOM     29  O   UNL     1      12.111  -3.781  11.560  0.00  0.00    -0.153 OA
BRANCH  27  30
ATOM     30  N   UNL     1      10.463  -5.621  11.510  0.00  0.00    -0.204 NA
ATOM     31  H   UNL     1       9.575  -5.610  11.121  0.00  0.00    +0.144 HD
ATOM     32  H   UNL     1      10.617  -6.074  12.354  0.00  0.00    +0.144 HD
ENDBRANCH  27  30
ENDBRANCH  24  27
ENDBRANCH  20  21
ENDBRANCH   4  20
TORSDOF 9
