REMARK  Name = ZINC38845287
REMARK  13 active torsions:
REMARK  status: ('A' for Active; 'I' for Inactive)
REMARK    1  A    between atoms: C_1  and  C_2
REMARK    2  A    between atoms: C_2  and  N_3
REMARK    3  A    between atoms: N_3  and  C_4
REMARK    4  A    between atoms: N_3  and  C_6
REMARK    5  A    between atoms: C_4  and  C_5
REMARK    6  A    between atoms: C_6  and  C_7
REMARK    7  A    between atoms: C_7  and  N_8
REMARK    8  A    between atoms: C_17  and  S_18
REMARK    9  A    between atoms: S_18  and  C_21
REMARK   10  A    between atoms: C_22  and  C_24
REMARK   11  A    between atoms: C_29  and  S_30
REMARK   12  A    between atoms: S_30  and  C_33
REMARK   13  A    between atoms: C_33  and  C_34
REMARK                            x       y       z     vdW  Elec       q    Type
REMARK                         _______ _______ _______ _____ _____    ______ ____
ROOT
ATOM      1  N   UNL     1       2.301  -3.726  -0.011  0.00  0.00    -0.248 N 
ATOM      2  C   UNL     1       1.451  -4.618  -0.642  0.00  0.00    +0.168 A 
ATOM      3  N   UNL     1       1.586  -5.915  -0.798  0.00  0.00    -0.222 NA
ATOM      4  C   UNL     1       0.668  -6.668  -1.442  0.00  0.00    +0.105 A 
ATOM      5  C   UNL     1      -0.455  -5.970  -1.943  0.00  0.00    +0.043 A 
ATOM      6  S   UNL     1      -0.113  -4.298  -1.447  0.00  0.00    -0.052 S 
ATOM      7  C   UNL     1      -1.472  -6.593  -2.620  0.00  0.00    +0.017 A 
ATOM      8  C   UNL     1      -1.416  -7.959  -2.831  0.00  0.00    +0.003 A 
ATOM      9  C   UNL     1      -0.329  -8.676  -2.353  0.00  0.00    +0.029 A 
ATOM     10  C   UNL     1       0.692  -8.062  -1.675  0.00  0.00    +0.114 A 
ATOM     11  C   UNL     1       3.448  -4.165   0.542  0.00  0.00    +0.254 C 
ATOM     12  O   UNL     1       3.782  -5.326   0.408  0.00  0.00    -0.270 OA
ENDROOT
BRANCH  11  13
ATOM     13  C   UNL     1       4.301  -3.236   1.313  0.00  0.00    +0.062 A 
ATOM     14  C   UNL     1       4.820  -2.092   0.703  0.00  0.00    +0.015 A 
ATOM     15  C   UNL     1       5.614  -1.228   1.428  0.00  0.00    +0.001 A 
ATOM     16  C   UNL     1       5.897  -1.493   2.756  0.00  0.00    +0.002 A 
ATOM     17  C   UNL     1       5.386  -2.625   3.366  0.00  0.00    +0.028 A 
ATOM     18  C   UNL     1       4.585  -3.494   2.654  0.00  0.00    +0.100 A 
BRANCH  18  19
ATOM     19  S   UNL     1       3.929  -4.931   3.436  0.00  0.00    -0.003 S 
ATOM     20  O   UNL     1       4.270  -6.003   2.568  0.00  0.00    -0.169 OA
ATOM     21  O   UNL     1       4.434  -4.885   4.763  0.00  0.00    -0.169 OA
BRANCH  19  22
ATOM     22  C   UNL     1       2.133  -4.678   3.442  0.00  0.00    +0.168 C 
ATOM     23  C   UNL     1       1.452  -5.878   4.104  0.00  0.00    +0.028 C 
ENDBRANCH  19  22
ENDBRANCH  18  19
ENDBRANCH  11  13
BRANCH  10  24
ATOM     24  S   UNL     1       2.050  -9.021  -1.090  0.00  0.00    -0.004 S 
ATOM     25  O   UNL     1       2.178  -8.668   0.281  0.00  0.00    -0.170 OA
ATOM     26  O   UNL     1       1.741 -10.355  -1.469  0.00  0.00    -0.170 OA
ATOM     27  C   UNL     1       3.482  -8.420  -2.026  0.00  0.00    +0.200 C 
ENDBRANCH  10  24
BRANCH   1  28
ATOM     28  C   UNL     1       1.953  -2.304   0.055  0.00  0.00    +0.097 C 
BRANCH  28  29
ATOM     29  C   UNL     1       1.265  -2.009   1.389  0.00  0.00    -0.059 C 
BRANCH  29  30
ATOM     30  N   UNL     1       0.916  -0.584   1.456  0.00  0.00    +0.380 N 
ATOM     31  H   UNL     1       1.743  -0.028   1.298  0.00  0.00    -0.082 HD
BRANCH  30  33
ATOM     32  C   UNL     1      -0.349   1.230   0.405  0.00  0.00    -0.017 C 
ATOM     33  C   UNL     1      -0.086  -0.277   0.426  0.00  0.00    -0.082 C 
ENDBRANCH  30  33
BRANCH  30  34
ATOM     34  C   UNL     1       0.365  -0.276   2.782  0.00  0.00    -0.082 C 
ATOM     35  C   UNL     1       1.452  -0.465   3.843  0.00  0.00    -0.017 C 
ENDBRANCH  30  34
ENDBRANCH  29  30
ENDBRANCH  28  29
ENDBRANCH   1  28
TORSDOF 9
