REMARK  Name = ZINC40679665
REMARK  6 active torsions:
REMARK  status: ('A' for Active; 'I' for Inactive)
REMARK    1  A    between atoms: C_1  and  C_2
REMARK    2  A    between atoms: C_2  and  N_3
REMARK    3  A    between atoms: N_3  and  C_4
REMARK    4  A    between atoms: C_11  and  N_27
REMARK    5  A    between atoms: C_12  and  N_16
REMARK    6  A    between atoms: C_22  and  C_26
REMARK                            x       y       z     vdW  Elec       q    Type
REMARK                         _______ _______ _______ _____ _____    ______ ____
ROOT
ATOM      1  N   UNL     1       0.666  -0.466  -1.199  0.00  0.00    -0.285 N 
ATOM      2  C   UNL     1      -0.060  -0.727  -2.356  0.00  0.00    +0.129 A 
ATOM      3  C   UNL     1       0.567  -1.275  -3.478  0.00  0.00    +0.104 A 
ATOM      4  C   UNL     1      -0.208  -1.517  -4.613  0.00  0.00    +0.150 A 
ATOM      5  N   UNL     1      -1.505  -1.220  -4.583  0.00  0.00    -0.221 NA
ATOM      6  C   UNL     1      -2.057  -0.705  -3.504  0.00  0.00    +0.200 A 
ATOM      7  N   UNL     1      -1.363  -0.465  -2.410  0.00  0.00    -0.332 N 
ATOM      8  H   UNL     1      -1.808  -0.088  -1.635  0.00  0.00    +0.168 HD
ENDROOT
BRANCH   4   9
ATOM      9  N   UNL     1       0.367  -2.061  -5.758  0.00  0.00    -0.277 N 
ATOM     10  C   UNL     1      -0.410  -2.297  -6.875  0.00  0.00    +0.165 A 
ATOM     11  N   UNL     1      -1.692  -2.071  -7.050  0.00  0.00    -0.225 NA
ATOM     12  C   UNL     1      -2.328  -2.354  -8.208  0.00  0.00    +0.080 A 
ATOM     13  C   UNL     1      -3.693  -2.162  -8.524  0.00  0.00    +0.029 A 
ATOM     14  C   UNL     1      -4.181  -2.507  -9.758  0.00  0.00    +0.005 A 
ATOM     15  C   UNL     1      -3.361  -3.052 -10.735  0.00  0.00    -0.049 A 
ATOM     16  C   UNL     1      -2.021  -3.253 -10.460  0.00  0.00    +0.020 A 
ATOM     17  C   UNL     1      -1.523  -2.911  -9.228  0.00  0.00    +0.041 A 
ATOM     18  S   UNL     1       0.075  -2.979  -8.454  0.00  0.00    -0.052 S 
ATOM     19  C   UNL     1      -3.926  -3.422 -12.083  0.00  0.00    +0.044 C 
ATOM     20  H   UNL     1       1.313  -2.275  -5.771  0.00  0.00    +0.156 HD
ENDBRANCH   4   9
BRANCH   1  21
ATOM     21  C   UNL     1       1.184   0.812  -0.972  0.00  0.00    +0.035 A 
ATOM     22  C   UNL     1       1.068   1.793  -1.949  0.00  0.00    +0.023 A 
ATOM     23  C   UNL     1       1.581   3.055  -1.721  0.00  0.00    +0.002 A 
ATOM     24  C   UNL     1       2.209   3.342  -0.523  0.00  0.00    +0.000 A 
ATOM     25  C   UNL     1       2.326   2.368   0.451  0.00  0.00    +0.002 A 
ATOM     26  C   UNL     1       1.810   1.105   0.233  0.00  0.00    +0.023 A 
ENDBRANCH   1  21
BRANCH   3  27
ATOM     27  N   UNL     1       1.939  -1.572  -3.464  0.00  0.00    -0.353 N 
ATOM     28  H   UNL     1       2.450  -1.467  -2.646  0.00  0.00    +0.143 HD
ATOM     29  H   UNL     1       2.376  -1.883  -4.272  0.00  0.00    +0.143 HD
ENDBRANCH   3  27
BRANCH   1  31
ATOM     30  C   UNL     1      -0.253  -1.529   0.803  0.00  0.00    +0.025 C 
ATOM     31  C   UNL     1       0.887  -1.531  -0.217  0.00  0.00    +0.109 C 
ENDBRANCH   1  31
TORSDOF 4
