REMARK  Name = ZINC43222798
REMARK  7 active torsions:
REMARK  status: ('A' for Active; 'I' for Inactive)
REMARK    1  A    between atoms: C_5  and  C_7
REMARK    2  A    between atoms: C_7  and  C_8
REMARK    3  A    between atoms: C_8  and  N_9
REMARK    4  A    between atoms: C_10  and  C_12
REMARK    5  A    between atoms: C_17  and  C_19
REMARK    6  A    between atoms: N_21  and  C_22
REMARK    7  A    between atoms: C_22  and  C_23
REMARK                            x       y       z     vdW  Elec       q    Type
REMARK                         _______ _______ _______ _____ _____    ______ ____
ROOT
ATOM      1  C   UNL     1       1.538  -6.353   2.551  0.00  0.00    +0.068 C 
ATOM      2  C   UNL     1       2.763  -6.868   1.765  0.00  0.00    -0.069 C 
ATOM      3  N   UNL     1       3.799  -7.109   2.802  0.00  0.00    +0.380 N 
ATOM      4  C   UNL     1       3.046  -7.692   3.942  0.00  0.00    -0.069 C 
ATOM      5  C   UNL     1       1.722  -6.895   3.984  0.00  0.00    +0.068 C 
ATOM      6  H   UNL     1       4.490  -7.762   2.465  0.00  0.00    -0.086 HD
ATOM      7  H   UNL     1       4.235  -6.240   3.074  0.00  0.00    -0.086 HD
ENDROOT
BRANCH   1   9
ATOM      8  N   UNL     1       1.395  -4.167   1.402  0.00  0.00    -0.315 N 
ATOM      9  C   UNL     1       1.518  -4.846   2.560  0.00  0.00    +0.215 C 
ATOM     10  O   UNL     1       1.612  -4.245   3.609  0.00  0.00    -0.276 OA
ATOM     11  H   UNL     1       1.320  -4.648   0.564  0.00  0.00    +0.149 HD
BRANCH   8  12
ATOM     12  C   UNL     1       1.376  -2.702   1.411  0.00  0.00    +0.109 C 
BRANCH  12  13
ATOM     13  C   UNL     1       1.229  -2.186  -0.022  0.00  0.00    +0.055 C 
BRANCH  13  18
ATOM     14  C   UNL     1      -0.017   1.378   0.010  0.00  0.00    +0.000 A 
ATOM     15  C   UNL     1       1.171   2.086   0.002  0.00  0.00    +0.001 A 
ATOM     16  C   UNL     1       2.377   1.412  -0.013  0.00  0.00    +0.020 A 
ATOM     17  C   UNL     1       2.397   0.029  -0.021  0.00  0.00    +0.044 A 
ATOM     18  C   UNL     1       1.208  -0.679  -0.013  0.00  0.00    -0.028 A 
ATOM     19  C   UNL     1       0.002  -0.004   0.002  0.00  0.00    +0.005 A 
ATOM     20 CL   UNL     1       3.912  -0.818  -0.041  0.00  0.00    -0.083 Cl
ENDBRANCH  13  18
ENDBRANCH  12  13
ENDBRANCH   8  12
ENDBRANCH   1   9
BRANCH   5  21
ATOM     21  C   UNL     1       0.575  -7.801   4.352  0.00  0.00    +0.215 C 
ATOM     22  O   UNL     1      -0.316  -8.005   3.555  0.00  0.00    -0.276 OA
ATOM     23  N   UNL     1       0.539  -8.383   5.567  0.00  0.00    -0.313 N 
ATOM     24  H   UNL     1       1.252  -8.219   6.205  0.00  0.00    +0.149 HD
BRANCH  23  25
ATOM     25  C   UNL     1      -0.576  -9.263   5.925  0.00  0.00    +0.135 C 
BRANCH  25  26
ATOM     26  C   UNL     1      -0.374  -9.789   7.348  0.00  0.00    +0.135 C 
ATOM     27  C   UNL     1      -1.479 -10.811   7.690  0.00  0.00    +0.035 C 
ATOM     28  C   UNL     1      -1.796 -10.471   9.172  0.00  0.00    +0.031 C 
ATOM     29  C   UNL     1      -1.583  -8.936   9.173  0.00  0.00    +0.160 C 
ATOM     30  O   UNL     1      -0.476  -8.709   8.284  0.00  0.00    -0.375 OA
ENDBRANCH  25  26
ENDBRANCH  23  25
ENDBRANCH   5  21
TORSDOF 7
