REMARK  Name = ZINC65410198
REMARK  5 active torsions:
REMARK  status: ('A' for Active; 'I' for Inactive)
REMARK    1  A    between atoms: N_3  and  C_14
REMARK    2  A    between atoms: N_6  and  C_7
REMARK    3  A    between atoms: C_7  and  C_8
REMARK    4  A    between atoms: C_8  and  N_9
REMARK    5  A    between atoms: C_14  and  C_15
REMARK                            x       y       z     vdW  Elec       q    Type
REMARK                         _______ _______ _______ _____ _____    ______ ____
ROOT
ATOM      1  C   UNL     1       0.251   1.659   0.631  0.00  0.00    +0.100 C 
ATOM      2  C   UNL     1       1.689   2.103   0.355  0.00  0.00    +0.100 C 
ATOM      3  N   UNL     1       2.125   1.563  -0.941  0.00  0.00    -0.293 NA
ATOM      4  C   UNL     1       2.059   0.095  -0.945  0.00  0.00    +0.100 C 
ATOM      5  C   UNL     1       0.620  -0.349  -0.669  0.00  0.00    +0.100 C 
ATOM      6  N   UNL     1       0.184   0.191   0.627  0.00  0.00    -0.298 NA
ENDROOT
BRANCH   6   7
ATOM      7  C   UNL     1      -1.167  -0.276   0.964  0.00  0.00    +0.105 C 
BRANCH   7   8
ATOM      8  C   UNL     1      -1.142  -1.788   1.193  0.00  0.00    +0.140 C 
BRANCH   8   9
ATOM      9  N   UNL     1      -2.490  -2.254   1.529  0.00  0.00    -0.256 N 
ATOM     10  C   UNL     1      -3.031  -2.238   2.779  0.00  0.00    +0.170 C 
ATOM     11  N   UNL     1      -4.232  -2.703   2.801  0.00  0.00    -0.364 N 
ATOM     12  C   UNL     1      -4.588  -3.093   1.428  0.00  0.00    +0.217 C 
ATOM     13  N   UNL     1      -3.388  -2.762   0.632  0.00  0.00    -0.220 NA
ATOM     14  H   UNL     1      -3.603  -2.087  -0.086  0.00  0.00    +0.146 HD
ATOM     15  H   UNL     1      -4.800  -2.783   3.583  0.00  0.00    +0.162 HD
ENDBRANCH   8   9
ENDBRANCH   7   8
ENDBRANCH   6   7
BRANCH   3  16
ATOM     16  C   UNL     1       3.477   2.030  -1.278  0.00  0.00    +0.156 C 
BRANCH  16  17
ATOM     17  C   UNL     1       3.414   3.467  -1.726  0.00  0.00    +0.099 A 
ATOM     18  N   UNL     1       2.360   4.063  -2.260  0.00  0.00    -0.349 N 
ATOM     19  C   UNL     1       2.688   5.343  -2.528  0.00  0.00    +0.101 A 
ATOM     20  C   UNL     1       3.969   5.518  -2.146  0.00  0.00    +0.101 A 
ATOM     21  N   UNL     1       4.403   4.343  -1.645  0.00  0.00    -0.349 N 
ATOM     22  H   UNL     1       5.288   4.169  -1.288  0.00  0.00    +0.166 HD
ATOM     23  H   UNL     1       1.499   3.649  -2.429  0.00  0.00    +0.166 HD
ENDBRANCH  16  17
ENDBRANCH   3  16
TORSDOF 5
