REMARK  Name = ZINC36980438
REMARK  4 active torsions:
REMARK  status: ('A' for Active; 'I' for Inactive)
REMARK    1  A    between atoms: C_1  and  N_2
REMARK    2  A    between atoms: C_4  and  C_9
REMARK    3  A    between atoms: N_11  and  C_12
REMARK    4  A    between atoms: C_13  and  C_20
REMARK                            x       y       z     vdW  Elec       q    Type
REMARK                         _______ _______ _______ _____ _____    ______ ____
ROOT
ATOM      1  C   UNL     1      -1.303  -2.815  -1.793  0.00  0.00    +0.222 C 
ATOM      2  O   UNL     1      -2.211  -2.222  -2.337  0.00  0.00    -0.275 OA
ATOM      3  N   UNL     1      -0.460  -3.572  -2.523  0.00  0.00    -0.283 N 
ATOM      4  H   UNL     1       0.312  -3.981  -2.103  0.00  0.00    +0.155 HD
ENDROOT
BRANCH   3   5
ATOM      5  C   UNL     1      -0.699  -3.767  -3.881  0.00  0.00    +0.066 A 
ATOM      6  C   UNL     1      -0.740  -5.067  -4.411  0.00  0.00    +0.087 A 
ATOM      7  C   UNL     1      -0.980  -5.249  -5.777  0.00  0.00    +0.037 A 
ATOM      8  C   UNL     1      -1.174  -4.155  -6.593  0.00  0.00    +0.043 A 
ATOM      9  C   UNL     1      -1.132  -2.872  -6.066  0.00  0.00    +0.042 A 
ATOM     10  C   UNL     1      -0.902  -2.677  -4.718  0.00  0.00    +0.064 A 
ATOM     11 CL   UNL     1      -0.860  -1.067  -4.071  0.00  0.00    -0.082 Cl
ATOM     12 CL   UNL     1      -1.472  -4.383  -8.287  0.00  0.00    -0.083 Cl
BRANCH   6  13
ATOM     13  C   UNL     1      -0.532  -6.230  -3.534  0.00  0.00    +0.388 C 
ATOM     14  O   UNL     1      -0.465  -7.354  -4.014  0.00  0.00    -0.241 OA
ATOM     15  O   UNL     1      -0.426  -6.074  -2.325  0.00  0.00    -0.241 OA
ENDBRANCH   6  13
ENDBRANCH   3   5
BRANCH   1  19
ATOM     16  C   UNL     1      -2.358   0.790   0.530  0.00  0.00    +0.132 C 
ATOM     17  N   UNL     1      -1.597  -0.449   0.356  0.00  0.00    -0.304 N 
ATOM     18  C   UNL     1      -2.194  -1.790   0.323  0.00  0.00    +0.120 C 
ATOM     19  C   UNL     1      -1.118  -2.705  -0.302  0.00  0.00    +0.101 C 
ATOM     20  C   UNL     1       0.183  -1.942   0.040  0.00  0.00    +0.110 C 
ATOM     21  C   UNL     1      -0.263  -0.505   0.199  0.00  0.00    +0.216 C 
ATOM     22  O   UNL     1       0.476   0.457   0.189  0.00  0.00    -0.276 OA
ENDBRANCH   1  19
TORSDOF 3
