REMARK  Name = ZINC09542406
REMARK  9 active torsions:
REMARK  status: ('A' for Active; 'I' for Inactive)
REMARK    1  A    between atoms: C_1  and  C_2
REMARK    2  A    between atoms: C_2  and  O_3
REMARK    3  A    between atoms: O_3  and  C_4
REMARK    4  A    between atoms: C_8  and  C_11
REMARK    5  A    between atoms: C_9  and  O_10
REMARK    6  A    between atoms: C_14  and  C_26
REMARK    7  A    between atoms: C_16  and  C_18
REMARK    8  A    between atoms: C_21  and  C_25
REMARK    9  A    between atoms: C_23  and  C_24
REMARK                            x       y       z     vdW  Elec       q    Type
REMARK                         _______ _______ _______ _____ _____    ______ ____
ROOT
ATOM      1  C   UNL     1       3.274   2.895  -2.014  0.00  0.00    -0.028 C 
ATOM      2  C   UNL     1       3.460   4.240  -2.723  0.00  0.00    +0.044 C 
ATOM      3  C   UNL     1       2.709   5.308  -1.978  0.00  0.00    +0.040 C 
ATOM      4  N   UNL     1       2.279   5.155  -0.782  0.00  0.00    -0.299 NA
ATOM      5  C   UNL     1       2.451   3.937  -0.001  0.00  0.00    +0.081 C 
ATOM      6  N   UNL     1       3.514   3.096  -0.572  0.00  0.00    +0.401 N 
ATOM      7  H   UNL     1       4.421   3.557  -0.438  0.00  0.00    -0.081 HD
ATOM      8  H   UNL     1       3.519   2.185  -0.097  0.00  0.00    -0.081 HD
ENDROOT
BRANCH   5   9
ATOM      9  C   UNL     1       1.156   3.166   0.008  0.00  0.00    -0.038 A 
ATOM     10  C   UNL     1       1.175   1.783   0.000  0.00  0.00    +0.004 A 
ATOM     11  C   UNL     1      -0.013   1.076   0.008  0.00  0.00    +0.003 A 
ATOM     12  C   UNL     1      -1.219   1.751   0.017  0.00  0.00    -0.050 A 
ATOM     13  C   UNL     1      -1.238   3.133   0.030  0.00  0.00    +0.007 A 
ATOM     14  C   UNL     1      -0.050   3.840   0.023  0.00  0.00    -0.047 A 
ATOM     15  C   UNL     1      -0.070   5.347   0.031  0.00  0.00    +0.044 C 
ATOM     16  C   UNL     1      -2.514   0.980   0.019  0.00  0.00    +0.044 C 
ENDBRANCH   5   9
BRANCH   3  17
ATOM     17  C   UNL     1       2.455   6.593  -2.657  0.00  0.00    -0.004 A 
ATOM     18  C   UNL     1       2.914   6.800  -3.960  0.00  0.00    +0.011 A 
ATOM     19  C   UNL     1       2.669   8.001  -4.591  0.00  0.00    +0.020 A 
ATOM     20  C   UNL     1       1.980   9.006  -3.932  0.00  0.00    +0.041 A 
ATOM     21  C   UNL     1       1.527   8.809  -2.638  0.00  0.00    +0.020 A 
ATOM     22  C   UNL     1       1.761   7.610  -1.998  0.00  0.00    +0.011 A 
ATOM     23 CL   UNL     1       1.682  10.518  -4.731  0.00  0.00    -0.084 Cl
ENDBRANCH   3  17
BRANCH   1  28
ATOM     24  C   UNL     1       4.924   0.328  -4.254  0.00  0.00    +0.162 A 
ATOM     25  C   UNL     1       6.082   0.053  -3.545  0.00  0.00    +0.049 A 
ATOM     26  C   UNL     1       6.327   0.697  -2.346  0.00  0.00    +0.004 A 
ATOM     27  C   UNL     1       5.422   1.619  -1.855  0.00  0.00    +0.006 A 
ATOM     28  C   UNL     1       4.262   1.893  -2.555  0.00  0.00    -0.016 A 
ATOM     29  C   UNL     1       4.010   1.252  -3.757  0.00  0.00    +0.160 A 
BRANCH  29  30
ATOM     30  O   UNL     1       2.872   1.524  -4.450  0.00  0.00    -0.503 OA
ATOM     31  H   UNL     1       2.961   2.250  -5.083  0.00  0.00    +0.292 HD
ENDBRANCH  29  30
BRANCH  24  32
ATOM     32  O   UNL     1       4.681  -0.305  -5.433  0.00  0.00    -0.489 OA
BRANCH  32  34
ATOM     33  C   UNL     1       5.219  -1.847  -7.214  0.00  0.00    +0.048 C 
ATOM     34  C   UNL     1       5.663  -1.241  -5.881  0.00  0.00    +0.226 C 
ENDBRANCH  32  34
ENDBRANCH  24  32
ENDBRANCH   1  28
TORSDOF 6
