REMARK  Name = ZINC40825894
REMARK  5 active torsions:
REMARK  status: ('A' for Active; 'I' for Inactive)
REMARK    1  A    between atoms: C_1  and  C_2
REMARK    2  A    between atoms: C_6  and  C_7
REMARK    3  A    between atoms: N_9  and  C_10
REMARK    4  A    between atoms: N_21  and  N_22
REMARK    5  A    between atoms: C_23  and  C_25
REMARK                            x       y       z     vdW  Elec       q    Type
REMARK                         _______ _______ _______ _____ _____    ______ ____
ROOT
ATOM      1  C   UNL     1      -0.014   1.502   0.010  0.00  0.00    +0.048 C 
ATOM      2  C   UNL     1      -0.004  -0.005   0.002  0.00  0.00    +0.009 A 
ATOM      3  C   UNL     1      -0.007  -0.839  -1.123  0.00  0.00    +0.042 A 
ATOM      4  C   UNL     1       0.004  -2.139  -0.672  0.00  0.00    +0.115 A 
ATOM      5  O   UNL     1       0.018  -2.112   0.658  0.00  0.00    -0.454 OA
ATOM      6  C   UNL     1       0.018  -0.831   1.091  0.00  0.00    +0.193 A 
ATOM      7  C   UNL     1      -0.001  -3.328  -1.598  0.00  0.00    +0.075 C 
ATOM      8  C   UNL     1      -0.528  -2.901  -2.971  0.00  0.00    +0.014 C 
ATOM      9  C   UNL     1       0.249  -1.689  -3.495  0.00  0.00    +0.058 C 
ATOM     10  C   UNL     1      -0.018  -0.514  -2.566  0.00  0.00    +0.070 C 
ATOM     11  N   UNL     1      -0.240   0.687  -3.007  0.00  0.00    -0.184 NA
ENDROOT
BRANCH   6  12
ATOM     12  C   UNL     1       0.034  -0.400   2.493  0.00  0.00    +0.284 C 
ATOM     13  O   UNL     1       0.029   0.786   2.765  0.00  0.00    -0.266 OA
ATOM     14  N   UNL     1       0.054  -1.317   3.480  0.00  0.00    -0.279 N 
ATOM     15  H   UNL     1      -0.010  -2.261   3.266  0.00  0.00    +0.155 HD
BRANCH  14  16
ATOM     16  C   UNL     1       0.167  -0.909   4.813  0.00  0.00    +0.034 A 
ATOM     17  C   UNL     1       0.888  -1.677   5.718  0.00  0.00    +0.024 A 
ATOM     18  C   UNL     1       0.998  -1.271   7.033  0.00  0.00    +0.017 A 
ATOM     19  C   UNL     1       0.391  -0.099   7.450  0.00  0.00    +0.018 A 
ATOM     20  C   UNL     1      -0.328   0.668   6.550  0.00  0.00    +0.017 A 
ATOM     21  C   UNL     1      -0.437   0.270   5.233  0.00  0.00    +0.024 A 
ATOM     22 BR   UNL     1       0.543   0.453   9.252  0.00  0.00    -0.050 Br
ENDBRANCH  14  16
ENDBRANCH   6  12
BRANCH  11  23
ATOM     23  N   UNL     1      -0.239   0.938  -4.385  0.00  0.00    -0.201 N 
ATOM     24  C   UNL     1      -0.470   2.184  -4.844  0.00  0.00    +0.282 C 
ATOM     25  O   UNL     1      -0.679   3.090  -4.061  0.00  0.00    -0.267 OA
ATOM     26  H   UNL     1      -0.072   0.214  -5.010  0.00  0.00    +0.178 HD
BRANCH  24  27
ATOM     27  C   UNL     1      -0.469   2.449  -6.301  0.00  0.00    +0.128 A 
ATOM     28  C   UNL     1      -0.705   3.754  -6.761  0.00  0.00    +0.034 A 
ATOM     29  C   UNL     1      -0.706   4.011  -8.101  0.00  0.00    +0.012 A 
ATOM     30  C   UNL     1      -0.467   2.943  -8.985  0.00  0.00    +0.000 A 
ATOM     31  C   UNL     1      -0.454   3.136 -10.376  0.00  0.00    +0.010 A 
ATOM     32  C   UNL     1      -0.219   2.079 -11.201  0.00  0.00    +0.001 A 
ATOM     33  C   UNL     1       0.009   0.804 -10.684  0.00  0.00    +0.002 A 
ATOM     34  C   UNL     1       0.004   0.579  -9.343  0.00  0.00    +0.028 A 
ATOM     35  C   UNL     1      -0.235   1.646  -8.456  0.00  0.00    +0.072 A 
ATOM     36  N   UNL     1      -0.240   1.455  -7.137  0.00  0.00    -0.242 NA
ENDBRANCH  24  27
ENDBRANCH  11  23
TORSDOF 4
