REMARK  Name = ZINC48289399
REMARK  9 active torsions:
REMARK  status: ('A' for Active; 'I' for Inactive)
REMARK    1  A    between atoms: C_1  and  O_2
REMARK    2  A    between atoms: O_2  and  C_3
REMARK    3  A    between atoms: C_8  and  C_9
REMARK    4  A    between atoms: C_9  and  C_11
REMARK    5  A    between atoms: C_9  and  N_28
REMARK    6  A    between atoms: C_11  and  N_12
REMARK    7  A    between atoms: C_13  and  C_15
REMARK    8  A    between atoms: C_15  and  N_16
REMARK    9  A    between atoms: C_18  and  C_25
REMARK                            x       y       z     vdW  Elec       q    Type
REMARK                         _______ _______ _______ _____ _____    ______ ____
ROOT
ATOM      1  N   UNL     1      -1.950  -3.754   1.060  0.00  0.00    -0.315 N 
ATOM      2  C   UNL     1      -3.265  -4.019   1.180  0.00  0.00    +0.233 C 
ATOM      3  O   UNL     1      -4.058  -3.521   0.408  0.00  0.00    -0.274 OA
ATOM      4  H   UNL     1      -1.316  -4.152   1.677  0.00  0.00    +0.149 HD
ENDROOT
BRANCH   1   5
ATOM      5  C   UNL     1      -1.476  -2.862  -0.002  0.00  0.00    +0.093 C 
BRANCH   5   6
ATOM      6  C   UNL     1       0.053  -2.831   0.003  0.00  0.00    -0.017 C 
BRANCH   6  12
ATOM      7  C   UNL     1       0.545  -0.842   1.449  0.00  0.00    +0.122 A 
ATOM      8  C   UNL     1       0.988  -0.283   2.639  0.00  0.00    +0.046 A 
ATOM      9  C   UNL     1       1.427  -1.100   3.663  0.00  0.00    +0.004 A 
ATOM     10  C   UNL     1       1.425  -2.474   3.502  0.00  0.00    +0.000 A 
ATOM     11  C   UNL     1       0.985  -3.033   2.317  0.00  0.00    +0.005 A 
ATOM     12  C   UNL     1       0.539  -2.220   1.292  0.00  0.00    -0.018 A 
BRANCH   7  14
ATOM     13  C   UNL     1       0.146   1.369   0.672  0.00  0.00    +0.277 C 
ATOM     14  O   UNL     1       0.112  -0.041   0.440  0.00  0.00    -0.495 OA
ENDBRANCH   7  14
ENDBRANCH   6  12
BRANCH   6  15
ATOM     15  N   UNL     1       0.572  -4.200  -0.117  0.00  0.00    +0.385 N 
ATOM     16  C   UNL     1       0.071  -4.830  -1.365  0.00  0.00    -0.078 C 
ATOM     17  C   UNL     1       1.097  -5.961  -1.628  0.00  0.00    -0.020 C 
ATOM     18  C   UNL     1       2.436  -5.320  -1.197  0.00  0.00    -0.020 C 
ATOM     19  C   UNL     1       2.046  -4.178  -0.240  0.00  0.00    -0.078 C 
ATOM     20  H   UNL     1       0.298  -4.747   0.685  0.00  0.00    -0.081 HD
ENDBRANCH   6  15
ENDBRANCH   5   6
ENDBRANCH   1   5
BRANCH   2  21
ATOM     21  C   UNL     1      -3.752  -4.936   2.272  0.00  0.00    +0.217 C 
BRANCH  21  22
ATOM     22  N   UNL     1      -5.210  -5.063   2.190  0.00  0.00    -0.337 N 
ATOM     23  C   UNL     1      -6.091  -4.316   2.897  0.00  0.00    +0.100 A 
ATOM     24  C   UNL     1      -7.366  -4.688   2.585  0.00  0.00    +0.062 A 
ATOM     25  C   UNL     1      -7.253  -5.769   1.588  0.00  0.00    +0.012 A 
ATOM     26  C   UNL     1      -5.878  -5.955   1.377  0.00  0.00    +0.050 A 
ATOM     27  C   UNL     1      -5.451  -6.920   0.470  0.00  0.00    +0.026 A 
ATOM     28  C   UNL     1      -6.377  -7.678  -0.212  0.00  0.00    +0.002 A 
ATOM     29  C   UNL     1      -7.736  -7.491  -0.005  0.00  0.00    +0.001 A 
ATOM     30  C   UNL     1      -8.178  -6.545   0.895  0.00  0.00    +0.011 A 
BRANCH  24  31
ATOM     31  C   UNL     1      -8.606  -4.124   3.134  0.00  0.00    +0.244 C 
ATOM     32  O   UNL     1      -9.684  -4.551   2.766  0.00  0.00    -0.270 OA
ATOM     33  N   UNL     1      -8.550  -3.132   4.045  0.00  0.00    -0.325 N 
ATOM     34  H   UNL     1      -7.690  -2.791   4.338  0.00  0.00    +0.145 HD
ATOM     35  H   UNL     1      -9.368  -2.759   4.407  0.00  0.00    +0.145 HD
ENDBRANCH  24  31
ENDBRANCH  21  22
ENDBRANCH   2  21
TORSDOF 8
