REMARK  Name = ZINC12641956
REMARK  6 active torsions:
REMARK  status: ('A' for Active; 'I' for Inactive)
REMARK    1  A    between atoms: C_5  and  C_11
REMARK    2  A    between atoms: C_11  and  C_13
REMARK    3  A    between atoms: C_11  and  N_67
REMARK    4  A    between atoms: N_17  and  C_18
REMARK    5  A    between atoms: N_26  and  C_29
REMARK    6  A    between atoms: C_32  and  N_35
REMARK                            x       y       z     vdW  Elec       q    Type
REMARK                         _______ _______ _______ _____ _____    ______ ____
ROOT
ATOM      1  C   UNL     1      -0.800   1.987  -1.118  0.00  0.00    +0.033 C 
ENDROOT
BRANCH   1   6
ATOM      2  C   UNL     1      -0.564   7.727  -3.262  0.00  0.00    +0.020 A 
ATOM      3  C   UNL     1      -0.560   6.366  -3.375  0.00  0.00    +0.011 A 
ATOM      4  C   UNL     1      -0.678   5.601  -2.199  0.00  0.00    +0.001 A 
ATOM      5  C   UNL     1      -0.676   4.197  -2.236  0.00  0.00    +0.012 A 
ATOM      6  C   UNL     1      -0.798   3.494  -1.077  0.00  0.00    -0.053 A 
ATOM      7  C   UNL     1      -0.914   4.148   0.148  0.00  0.00    +0.004 A 
ATOM      8  C   UNL     1      -0.915   5.507   0.221  0.00  0.00    +0.028 A 
ATOM      9  C   UNL     1      -0.797   6.269  -0.955  0.00  0.00    +0.071 A 
ATOM     10  N   UNL     1      -0.794   7.605  -0.914  0.00  0.00    -0.255 NA
ATOM     11  C   UNL     1      -0.683   8.320  -2.007  0.00  0.00    +0.111 A 
ENDBRANCH   1   6
BRANCH   1  17
ATOM     12  C   UNL     1       1.348   2.008   0.000  0.00  0.00    -0.058 C 
ATOM     13  C   UNL     1       2.103   1.504   1.232  0.00  0.00    +0.086 C 
ATOM     14  N   UNL     1       2.123   0.034   1.224  0.00  0.00    -0.333 N 
ATOM     15  C   UNL     1       0.757  -0.508   1.234  0.00  0.00    +0.086 C 
ATOM     16  C   UNL     1       0.002  -0.004   0.002  0.00  0.00    -0.058 C 
ATOM     17  N   UNL     1      -0.030   1.473   0.034  0.00  0.00    +0.391 N 
ATOM     18  H   UNL     1      -0.485   1.779   0.902  0.00  0.00    -0.080 HD
BRANCH  14  19
ATOM     19  C   UNL     1       2.867  -0.462   2.297  0.00  0.00    +0.030 A 
ATOM     20  C   UNL     1       2.285  -1.344   3.198  0.00  0.00    +0.025 A 
ATOM     21  C   UNL     1       3.025  -1.838   4.255  0.00  0.00    +0.034 A 
ATOM     22  C   UNL     1       4.340  -1.446   4.423  0.00  0.00    +0.126 A 
ATOM     23  C   UNL     1       4.921  -0.563   3.530  0.00  0.00    +0.034 A 
ATOM     24  C   UNL     1       4.189  -0.070   2.468  0.00  0.00    +0.025 A 
BRANCH  22  25
ATOM     25  N   UNL     1       5.128  -1.972   5.559  0.00  0.00    +0.056 N 
ATOM     26  O   UNL     1       6.287  -1.628   5.708  0.00  0.00    -0.126 OA
ATOM     27  O   UNL     1       4.618  -2.749   6.346  0.00  0.00    -0.126 OA
ENDBRANCH  22  25
ENDBRANCH  14  19
ENDBRANCH   1  17
BRANCH   1  28
ATOM     28  C   UNL     1      -2.217   1.484  -1.023  0.00  0.00    +0.143 A 
ATOM     29  N   UNL     1      -2.965   1.452   0.053  0.00  0.00    -0.115 NA
ATOM     30  N   UNL     1      -4.109   0.955  -0.272  0.00  0.00    -0.023 NA
ATOM     31  N   UNL     1      -4.110   0.670  -1.527  0.00  0.00    -0.044 NA
ATOM     32  N   UNL     1      -2.963   0.987  -2.027  0.00  0.00    -0.227 N 
BRANCH  32  33
ATOM     33  C   UNL     1      -2.549   0.830  -3.423  0.00  0.00    +0.111 C 
ATOM     34  C   UNL     1      -3.476   1.648  -4.324  0.00  0.00    +0.027 C 
ATOM     35  C   UNL     1      -3.044   1.485  -5.783  0.00  0.00    +0.002 C 
ATOM     36  C   UNL     1      -3.123   0.009  -6.176  0.00  0.00    +0.000 C 
ATOM     37  C   UNL     1      -2.196  -0.809  -5.275  0.00  0.00    +0.002 C 
ATOM     38  C   UNL     1      -2.628  -0.646  -3.816  0.00  0.00    +0.027 C 
ENDBRANCH  32  33
ENDBRANCH   1  28
TORSDOF 6
