REMARK  Name = ZINC20617393
REMARK  11 active torsions:
REMARK  status: ('A' for Active; 'I' for Inactive)
REMARK    1  A    between atoms: C_1  and  C_2
REMARK    2  A    between atoms: C_5  and  N_9
REMARK    3  A    between atoms: C_11  and  C_23
REMARK    4  A    between atoms: C_14  and  C_21
REMARK    5  A    between atoms: C_17  and  C_20
REMARK    6  A    between atoms: C_21  and  O_22
REMARK    7  A    between atoms: N_25  and  C_26
REMARK    8  A    between atoms: C_29  and  O_34
REMARK    9  A    between atoms: C_31  and  O_32
REMARK   10  A    between atoms: O_32  and  C_33
REMARK   11  A    between atoms: O_34  and  C_35
REMARK                            x       y       z     vdW  Elec       q    Type
REMARK                         _______ _______ _______ _____ _____    ______ ____
ROOT
ATOM      1  N   UNL     1       0.101  -4.539   0.350  0.00  0.00    -0.324 N 
ATOM      2  C   UNL     1       1.179  -4.992  -0.252  0.00  0.00    +0.212 A 
ATOM      3  C   UNL     1       2.430  -4.207  -0.257  0.00  0.00    +0.098 A 
ATOM      4  C   UNL     1       3.611  -4.904  -0.383  0.00  0.00    +0.030 A 
ATOM      5  C   UNL     1       3.522  -6.362  -0.491  0.00  0.00    +0.027 A 
ATOM      6  C   UNL     1       4.648  -7.183  -0.353  0.00  0.00    +0.007 A 
ATOM      7  C   UNL     1       4.485  -8.548  -0.469  0.00  0.00    +0.117 A 
ATOM      8  N   UNL     1       3.298  -9.078  -0.704  0.00  0.00    -0.256 NA
ATOM      9  C   UNL     1       2.210  -8.348  -0.843  0.00  0.00    +0.081 A 
ATOM     10  C   UNL     1       2.275  -6.965  -0.744  0.00  0.00    +0.159 A 
ATOM     11  O   UNL     1       1.172  -6.193  -0.885  0.00  0.00    -0.437 OA
ATOM     12  C   UNL     1       0.887  -9.018  -1.110  0.00  0.00    +0.069 C 
ATOM     13  H   UNL     1       0.097  -3.530   0.787  0.00  0.00    +0.169 HD
ENDROOT
BRANCH   1  18
ATOM     14  C   UNL     1      -4.509  -7.779   0.688  0.00  0.00    +0.044 C 
ATOM     15  C   UNL     1      -3.279  -6.914   0.599  0.00  0.00    -0.049 A 
ATOM     16  C   UNL     1      -3.058  -6.146  -0.531  0.00  0.00    +0.005 A 
ATOM     17  C   UNL     1      -1.933  -5.352  -0.621  0.00  0.00    +0.027 A 
ATOM     18  C   UNL     1      -1.016  -5.324   0.432  0.00  0.00    +0.060 A 
ATOM     19  C   UNL     1      -1.244  -6.105   1.569  0.00  0.00    +0.065 A 
ATOM     20  C   UNL     1      -2.376  -6.891   1.647  0.00  0.00    +0.025 A 
ATOM     21 CL   UNL     1      -0.108  -6.083   2.882  0.00  0.00    -0.081 Cl
ENDBRANCH   1  18
BRANCH   3  22
ATOM     22  C   UNL     1       2.415  -2.738  -0.139  0.00  0.00    +0.253 C 
ATOM     23  O   UNL     1       3.461  -2.116  -0.146  0.00  0.00    -0.270 OA
ATOM     24  N   UNL     1       1.243  -2.083  -0.022  0.00  0.00    -0.278 N 
ATOM     25  H   UNL     1       0.303  -2.648   0.057  0.00  0.00    +0.155 HD
BRANCH  24  26
ATOM     26  C   UNL     1       1.222  -0.681  -0.003  0.00  0.00    +0.076 A 
ATOM     27  C   UNL     1       2.258   0.021   0.596  0.00  0.00    +0.030 A 
ATOM     28  C   UNL     1       2.237   1.402   0.615  0.00  0.00    +0.047 A 
ATOM     29  C   UNL     1       1.181   2.091   0.036  0.00  0.00    +0.124 A 
ATOM     30  C   UNL     1       0.143   1.393  -0.565  0.00  0.00    +0.093 A 
ATOM     31  C   UNL     1       0.161   0.009  -0.586  0.00  0.00    +0.145 A 
BRANCH  31  32
ATOM     32  O   UNL     1      -0.856  -0.676  -1.174  0.00  0.00    -0.493 OA
ATOM     33  C   UNL     1      -1.910   0.096  -1.751  0.00  0.00    +0.277 C 
ENDBRANCH  31  32
BRANCH  29  34
ATOM     34  O   UNL     1       1.163   3.450   0.056  0.00  0.00    -0.495 OA
ATOM     35  C   UNL     1       2.264   4.103   0.692  0.00  0.00    +0.277 C 
ENDBRANCH  29  34
ENDBRANCH  24  26
ENDBRANCH   3  22
BRANCH   6  36
ATOM     36  C   UNL     1       6.006  -6.589  -0.084  0.00  0.00    +0.193 C 
BRANCH  36  37
ATOM     37  O   UNL     1       6.974  -7.636   0.012  0.00  0.00    -0.390 OA
ATOM     38  H   UNL     1       8.029  -7.394   0.207  0.00  0.00    +0.210 HD
ENDBRANCH  36  37
ENDBRANCH   6  36
TORSDOF 7
