REMARK  Name = ZINC44875505
REMARK  8 active torsions:
REMARK  status: ('A' for Active; 'I' for Inactive)
REMARK    1  A    between atoms: C_1  and  C_2
REMARK    2  A    between atoms: C_2  and  C_4
REMARK    3  A    between atoms: C_2  and  N_10
REMARK    4  A    between atoms: C_4  and  N_5
REMARK    5  A    between atoms: C_11  and  C_13
REMARK    6  A    between atoms: C_13  and  C_15
REMARK    7  A    between atoms: C_13  and  C_16
REMARK    8  A    between atoms: N_17  and  O_18
REMARK                            x       y       z     vdW  Elec       q    Type
REMARK                         _______ _______ _______ _____ _____    ______ ____
ROOT
ATOM      1  N   UNL     1       0.711  -0.489   1.189  0.00  0.00    -0.314 N 
ATOM      2  C   UNL     1       2.054  -0.600   1.174  0.00  0.00    +0.223 C 
ATOM      3  O   UNL     1       2.676  -0.297   0.177  0.00  0.00    -0.275 OA
ATOM      4  H   UNL     1       0.213  -0.731   1.986  0.00  0.00    +0.149 HD
ENDROOT
BRANCH   1   6
ATOM      5  C   UNL     1      -0.019   1.526   0.010  0.00  0.00    +0.026 C 
ATOM      6  C   UNL     1       0.002  -0.004   0.002  0.00  0.00    +0.053 C 
BRANCH   6   7
ATOM      7  C   UNL     1      -1.433  -0.534   0.013  0.00  0.00    -0.057 C 
BRANCH   7   8
ATOM      8  N   UNL     1      -1.414  -1.998   0.126  0.00  0.00    +0.381 N 
ATOM      9  C   UNL     1      -0.926  -2.402   1.469  0.00  0.00    -0.079 C 
ATOM     10  C   UNL     1      -1.483  -3.839   1.631  0.00  0.00    -0.020 C 
ATOM     11  C   UNL     1      -2.874  -3.748   0.963  0.00  0.00    -0.020 C 
ATOM     12  C   UNL     1      -2.788  -2.536   0.017  0.00  0.00    -0.079 C 
ATOM     13  H   UNL     1      -0.827  -2.395  -0.593  0.00  0.00    -0.082 HD
ENDBRANCH   7   8
ENDBRANCH   6   7
ENDBRANCH   1   6
BRANCH   2  14
ATOM     14  C   UNL     1       2.783  -1.099   2.395  0.00  0.00    +0.138 C 
ATOM     15  C   UNL     1       2.300  -2.510   2.736  0.00  0.00    +0.025 C 
BRANCH  14  16
ATOM     16  C   UNL     1       4.264  -1.128   2.119  0.00  0.00    +0.143 C 
ATOM     17  N   UNL     1       4.825  -2.220   1.716  0.00  0.00    -0.076 NA
ATOM     18  N   UNL     1       5.020   0.010   2.295  0.00  0.00    -0.343 N 
ATOM     19  H   UNL     1       4.599   0.830   2.597  0.00  0.00    +0.144 HD
ATOM     20  H   UNL     1       5.973  -0.009   2.117  0.00  0.00    +0.144 HD
BRANCH  17  21
ATOM     21  O   UNL     1       6.216  -2.248   1.457  0.00  0.00    -0.408 OA
ATOM     22  H   UNL     1       6.544  -3.108   1.161  0.00  0.00    +0.328 HD
ENDBRANCH  17  21
ENDBRANCH  14  16
ENDBRANCH   2  14
TORSDOF 6
