REMARK  Name = ZINC45163419
REMARK  9 active torsions:
REMARK  status: ('A' for Active; 'I' for Inactive)
REMARK    1  A    between atoms: C_1  and  C_2
REMARK    2  A    between atoms: C_2  and  C_3
REMARK    3  A    between atoms: N_11  and  C_15
REMARK    4  A    between atoms: C_15  and  C_16
REMARK    5  A    between atoms: N_18  and  C_19
REMARK    6  A    between atoms: C_21  and  C_27
REMARK    7  A    between atoms: C_21  and  C_28
REMARK    8  A    between atoms: C_23  and  C_25
REMARK    9  A    between atoms: C_23  and  C_26
REMARK                            x       y       z     vdW  Elec       q    Type
REMARK                         _______ _______ _______ _____ _____    ______ ____
ROOT
ATOM      1  C   UNL     1      -1.933  -3.771  -5.531  0.00  0.00    +0.213 C 
ENDROOT
BRANCH   1  10
ATOM      2  C   UNL     1       0.261   0.500  -1.825  0.00  0.00    -0.011 C 
ATOM      3  C   UNL     1      -0.553   0.765  -3.094  0.00  0.00    +0.006 C 
ATOM      4  C   UNL     1       0.203   0.217  -4.307  0.00  0.00    +0.035 C 
ATOM      5  C   UNL     1       0.432  -1.280  -4.133  0.00  0.00    +0.113 C 
ATOM      6  C   UNL     1       1.220  -1.562  -2.859  0.00  0.00    +0.035 C 
ATOM      7  C   UNL     1       0.460  -1.007  -1.651  0.00  0.00    +0.006 C 
ATOM      8  C   UNL     1      -0.887  -2.017  -4.112  0.00  0.00    +0.247 C 
ATOM      9  O   UNL     1      -1.790  -1.883  -3.313  0.00  0.00    -0.273 OA
ATOM     10  N   UNL     1      -0.849  -2.855  -5.168  0.00  0.00    -0.215 N 
ATOM     11  C   UNL     1       0.302  -2.746  -5.843  0.00  0.00    +0.310 C 
ATOM     12  O   UNL     1       0.569  -3.399  -6.832  0.00  0.00    -0.252 OA
ATOM     13  N   UNL     1       1.130  -1.832  -5.301  0.00  0.00    -0.285 N 
ATOM     14  H   UNL     1       2.012  -1.587  -5.620  0.00  0.00    +0.151 HD
BRANCH   2  16
ATOM     15  C   UNL     1      -0.579   2.582  -0.727  0.00  0.00    +0.004 C 
ATOM     16  C   UNL     1      -0.488   1.058  -0.613  0.00  0.00    -0.000 C 
ENDBRANCH   2  16
ENDBRANCH   1  10
BRANCH   1  17
ATOM     17  C   UNL     1      -2.881  -3.078  -6.476  0.00  0.00    +0.231 C 
ATOM     18  O   UNL     1      -2.672  -1.932  -6.812  0.00  0.00    -0.274 OA
ATOM     19  N   UNL     1      -3.962  -3.733  -6.947  0.00  0.00    -0.311 N 
ATOM     20  H   UNL     1      -4.129  -4.649  -6.678  0.00  0.00    +0.149 HD
BRANCH  19  21
ATOM     21  C   UNL     1      -4.886  -3.057  -7.867  0.00  0.00    +0.070 C 
ATOM     22  C   UNL     1      -4.381  -3.229  -9.301  0.00  0.00    +0.009 C 
ATOM     23  C   UNL     1      -5.340  -2.542 -10.273  0.00  0.00    -0.072 C 
ATOM     24  N   UNL     1      -6.711  -2.998 -10.105  0.00  0.00    +0.386 N 
ATOM     25  C   UNL     1      -7.238  -3.074  -8.752  0.00  0.00    -0.072 C 
ATOM     26  C   UNL     1      -6.265  -3.707  -7.762  0.00  0.00    +0.009 C 
ATOM     27  C   UNL     1      -7.683  -1.701  -8.240  0.00  0.00    -0.010 C 
ATOM     28  C   UNL     1      -8.498  -3.970  -8.793  0.00  0.00    -0.010 C 
ATOM     29  C   UNL     1      -4.893  -2.921 -11.703  0.00  0.00    -0.010 C 
ATOM     30  C   UNL     1      -5.219  -1.023 -10.148  0.00  0.00    -0.010 C 
ATOM     31  H   UNL     1      -7.322  -2.389 -10.655  0.00  0.00    -0.084 HD
ATOM     32  H   UNL     1      -6.796  -3.923 -10.535  0.00  0.00    -0.084 HD
ENDBRANCH  19  21
ENDBRANCH   1  17
TORSDOF 4
