REMARK  Name = ZINC49123011
REMARK  8 active torsions:
REMARK  status: ('A' for Active; 'I' for Inactive)
REMARK    1  A    between atoms: C_1  and  C_2
REMARK    2  A    between atoms: C_2  and  C_3
REMARK    3  A    between atoms: C_9  and  N_11
REMARK    4  A    between atoms: N_11  and  S_12
REMARK    5  A    between atoms: S_12  and  C_15
REMARK    6  A    between atoms: C_18  and  C_20
REMARK    7  A    between atoms: C_20  and  C_21
REMARK    8  A    between atoms: C_21  and  N_22
REMARK                            x       y       z     vdW  Elec       q    Type
REMARK                         _______ _______ _______ _____ _____    ______ ____
ROOT
ATOM      1  S   UNL     1       0.158  -3.801  -1.463  0.00  0.00    +0.065 S 
ATOM      2  O   UNL     1       0.619  -3.900  -2.804  0.00  0.00    -0.153 OA
ATOM      3  O   UNL     1       1.044  -3.760  -0.354  0.00  0.00    -0.153 OA
ENDROOT
BRANCH   1   4
ATOM      4  C   UNL     1      -0.918  -5.171  -1.199  0.00  0.00    +0.143 A 
ATOM      5  C   UNL     1      -1.614  -5.898  -2.107  0.00  0.00    +0.036 A 
ATOM      6  C   UNL     1      -2.404  -6.943  -1.665  0.00  0.00    +0.013 A 
ATOM      7  C   UNL     1      -2.459  -7.210  -0.338  0.00  0.00    -0.010 A 
ATOM      8  S   UNL     1      -1.367  -5.968   0.335  0.00  0.00    -0.074 S 
BRANCH   7   9
ATOM      9  C   UNL     1      -3.236  -8.281   0.383  0.00  0.00    +0.023 C 
BRANCH   9  10
ATOM     10  C   UNL     1      -2.382  -9.545   0.492  0.00  0.00    -0.081 C 
BRANCH  10  11
ATOM     11  N   UNL     1      -3.139 -10.589   1.195  0.00  0.00    +0.378 N 
ATOM     12  H   UNL     1      -2.576 -11.423   1.267  0.00  0.00    -0.090 HD
ATOM     13  H   UNL     1      -3.380 -10.265   2.120  0.00  0.00    -0.090 HD
ATOM     14  H   UNL     1      -3.983 -10.797   0.681  0.00  0.00    -0.090 HD
ENDBRANCH  10  11
ENDBRANCH   9  10
ENDBRANCH   7   9
ENDBRANCH   1   4
BRANCH   1  15
ATOM     15  N   UNL     1      -0.767  -2.429  -1.381  0.00  0.00    -0.186 NA
ATOM     16  H   UNL     1      -0.880  -1.873  -2.167  0.00  0.00    +0.148 HD
BRANCH  15  22
ATOM     17  C   UNL     1      -1.433  -0.534   0.013  0.00  0.00    +0.007 C 
ATOM     18  C   UNL     1      -2.110  -0.145   1.329  0.00  0.00    +0.005 C 
ATOM     19  C   UNL     1      -3.546  -0.675   1.340  0.00  0.00    +0.000 C 
ATOM     20  C   UNL     1      -3.528  -2.199   1.206  0.00  0.00    +0.002 C 
ATOM     21  C   UNL     1      -2.851  -2.587  -0.110  0.00  0.00    +0.020 C 
ATOM     22  C   UNL     1      -1.416  -2.058  -0.121  0.00  0.00    +0.080 C 
BRANCH  17  24
ATOM     23  C   UNL     1      -0.019   1.526   0.010  0.00  0.00    +0.004 C 
ATOM     24  C   UNL     1       0.002  -0.004   0.002  0.00  0.00    +0.002 C 
ENDBRANCH  17  24
ENDBRANCH  15  22
ENDBRANCH   1  15
TORSDOF 7
