REMARK  Name = ZINC33725879
REMARK  7 active torsions:
REMARK  status: ('A' for Active; 'I' for Inactive)
REMARK    1  A    between atoms: C_4  and  C_7
REMARK    2  A    between atoms: C_7  and  C_8
REMARK    3  A    between atoms: C_8  and  C_9
REMARK    4  A    between atoms: C_9  and  N_10
REMARK    5  A    between atoms: C_14  and  C_26
REMARK    6  A    between atoms: N_18  and  C_19
REMARK    7  A    between atoms: N_28  and  C_29
REMARK                            x       y       z     vdW  Elec       q    Type
REMARK                         _______ _______ _______ _____ _____    ______ ____
ROOT
ATOM      1  N   UNL     1       5.943  -1.938   2.759  0.00  0.00    -0.251 N 
ATOM      2  C   UNL     1       6.704  -1.024   3.342  0.00  0.00    +0.223 C 
ATOM      3  O   UNL     1       6.856   0.007   2.723  0.00  0.00    -0.275 OA
ATOM      4  C   UNL     1       7.398  -1.094   4.659  0.00  0.00    +0.120 C 
ATOM      5  C   UNL     1       6.684  -2.018   5.648  0.00  0.00    +0.149 C 
ATOM      6  S   UNL     1       6.410  -3.620   4.821  0.00  0.00    -0.077 S 
ATOM      7  C   UNL     1       5.534  -3.111   3.365  0.00  0.00    +0.164 C 
ATOM      8  N   UNL     1       4.540  -3.820   2.882  0.00  0.00    -0.226 NA
ENDROOT
BRANCH   8   9
ATOM      9  C   UNL     1       4.158  -4.978   3.505  0.00  0.00    +0.068 A 
ATOM     10  C   UNL     1       5.121  -5.894   3.935  0.00  0.00    +0.028 A 
ATOM     11  C   UNL     1       4.729  -7.058   4.562  0.00  0.00    +0.003 A 
ATOM     12  C   UNL     1       3.386  -7.321   4.766  0.00  0.00    +0.020 A 
ATOM     13  C   UNL     1       2.426  -6.417   4.342  0.00  0.00    +0.043 A 
ATOM     14  C   UNL     1       2.805  -5.245   3.718  0.00  0.00    +0.047 A 
ATOM     15 CL   UNL     1       0.743  -6.756   4.602  0.00  0.00    -0.083 Cl
ENDBRANCH   8   9
BRANCH   5  16
ATOM     16  C   UNL     1       7.541  -2.214   6.872  0.00  0.00    +0.231 C 
ATOM     17  O   UNL     1       8.749  -2.169   6.779  0.00  0.00    -0.274 OA
ATOM     18  N   UNL     1       6.964  -2.440   8.069  0.00  0.00    -0.285 N 
ATOM     19  H   UNL     1       5.999  -2.410   8.155  0.00  0.00    +0.155 HD
BRANCH  18  20
ATOM     20  C   UNL     1       7.759  -2.719   9.186  0.00  0.00    +0.033 A 
ATOM     21  C   UNL     1       7.314  -3.614  10.151  0.00  0.00    +0.023 A 
ATOM     22  C   UNL     1       8.100  -3.886  11.253  0.00  0.00    +0.002 A 
ATOM     23  C   UNL     1       9.329  -3.269  11.397  0.00  0.00    +0.000 A 
ATOM     24  C   UNL     1       9.775  -2.377  10.439  0.00  0.00    +0.002 A 
ATOM     25  C   UNL     1       8.996  -2.104   9.331  0.00  0.00    +0.023 A 
ENDBRANCH  18  20
ENDBRANCH   5  16
BRANCH   1  26
ATOM     26  C   UNL     1       5.502  -1.687   1.385  0.00  0.00    +0.116 C 
BRANCH  26  27
ATOM     27  C   UNL     1       4.173  -0.931   1.406  0.00  0.00    +0.024 C 
BRANCH  27  28
ATOM     28  C   UNL     1       3.712  -0.668  -0.030  0.00  0.00    +0.036 C 
BRANCH  28  32
ATOM     29  C   UNL     1      -0.001   1.443   0.027  0.00  0.00    +0.000 A 
ATOM     30  C   UNL     1       1.192   2.142   0.019  0.00  0.00    +0.000 A 
ATOM     31  C   UNL     1       2.393   1.459   0.001  0.00  0.00    +0.003 A 
ATOM     32  C   UNL     1       2.402   0.076  -0.009  0.00  0.00    -0.047 A 
ATOM     33  C   UNL     1       1.210  -0.623  -0.000  0.00  0.00    +0.003 A 
ATOM     34  C   UNL     1       0.008   0.061   0.017  0.00  0.00    +0.000 A 
ENDBRANCH  28  32
ENDBRANCH  27  28
ENDBRANCH  26  27
ENDBRANCH   1  26
TORSDOF 7
