REMARK  Name = ZINC64480187
REMARK  6 active torsions:
REMARK  status: ('A' for Active; 'I' for Inactive)
REMARK    1  A    between atoms: C_1  and  O_2
REMARK    2  A    between atoms: O_2  and  C_3
REMARK    3  A    between atoms: C_7  and  N_9
REMARK    4  A    between atoms: C_10  and  O_34
REMARK    5  A    between atoms: C_13  and  O_33
REMARK    6  A    between atoms: C_14  and  C_18
REMARK                            x       y       z     vdW  Elec       q    Type
REMARK                         _______ _______ _______ _____ _____    ______ ____
ROOT
ATOM      1  N   UNL     1      -2.695  -3.974   0.026  0.00  0.00    -0.225 N 
ATOM      2  C   UNL     1      -1.400  -4.635  -0.050  0.00  0.00    +0.338 C 
ATOM      3  N   UNL     1      -1.515  -6.014  -0.496  0.00  0.00    -0.204 NA
ATOM      4  C   UNL     1      -2.589  -6.701  -0.436  0.00  0.00    +0.200 C 
ATOM      5  C   UNL     1      -3.877  -6.153   0.107  0.00  0.00    +0.179 C 
ATOM      6  C   UNL     1      -3.847  -4.651   0.113  0.00  0.00    +0.237 C 
ATOM      7  O   UNL     1      -4.890  -4.038   0.195  0.00  0.00    -0.274 OA
ENDROOT
BRANCH   5   8
ATOM      8  C   UNL     1      -4.076  -6.653   1.539  0.00  0.00    +0.101 C 
ATOM      9  C   UNL     1      -5.439  -6.193   2.061  0.00  0.00    +0.124 C 
ATOM     10  C   UNL     1      -5.484  -6.580   3.535  0.00  0.00    -0.036 C 
ATOM     11  C   UNL     1      -6.586  -7.298   3.700  0.00  0.00    -0.001 A 
ATOM     12  C   UNL     1      -7.211  -7.875   4.901  0.00  0.00    +0.010 A 
ATOM     13  C   UNL     1      -8.356  -8.581   4.702  0.00  0.00    +0.001 A 
ATOM     14  C   UNL     1      -8.934  -8.768   3.443  0.00  0.00    +0.002 A 
ATOM     15  C   UNL     1      -8.431  -8.269   2.286  0.00  0.00    +0.026 A 
ATOM     16  C   UNL     1      -7.232  -7.504   2.367  0.00  0.00    +0.043 A 
ATOM     17  N   UNL     1      -6.552  -6.889   1.419  0.00  0.00    -0.376 N 
ATOM     18  C   UNL     1      -4.362  -6.229   4.481  0.00  0.00    +0.048 C 
ATOM     19  C   UNL     1      -3.057  -6.636   3.770  0.00  0.00    +0.085 C 
ATOM     20  N   UNL     1      -3.032  -6.091   2.410  0.00  0.00    -0.310 NA
ATOM     21  H   UNL     1      -2.118  -6.197   1.995  0.00  0.00    +0.122 HD
ATOM     22  H   UNL     1      -6.745  -6.896   0.468  0.00  0.00    +0.160 HD
ENDBRANCH   5   8
BRANCH   1  27
ATOM     23  C   UNL     1      -2.752  -0.484   1.191  0.00  0.00    +0.122 A 
ATOM     24  C   UNL     1      -2.820   0.193  -0.019  0.00  0.00    +0.046 A 
ATOM     25  C   UNL     1      -2.845  -0.512  -1.207  0.00  0.00    +0.005 A 
ATOM     26  C   UNL     1      -2.804  -1.893  -1.194  0.00  0.00    +0.024 A 
ATOM     27  C   UNL     1      -2.736  -2.576   0.013  0.00  0.00    +0.044 A 
ATOM     28  C   UNL     1      -2.705  -1.869   1.207  0.00  0.00    +0.069 A 
BRANCH  23  30
ATOM     29  C   UNL     1      -2.778   1.636   2.267  0.00  0.00    +0.277 C 
ATOM     30  O   UNL     1      -2.727   0.211   2.358  0.00  0.00    -0.495 OA
ENDBRANCH  23  30
ENDBRANCH   1  27
BRANCH   4  31
ATOM     31  O   UNL     1      -2.566  -7.974  -0.880  0.00  0.00    -0.495 OA
ATOM     32  H   UNL     1      -1.704  -8.259  -1.215  0.00  0.00    +0.293 HD
ENDBRANCH   4  31
BRANCH   2  33
ATOM     33  O   UNL     1      -0.792  -4.616   1.243  0.00  0.00    -0.356 OA
ATOM     34  H   UNL     1       0.077  -5.039   1.275  0.00  0.00    +0.214 HD
ENDBRANCH   2  33
TORSDOF 5
