REMARK  Name = ZINC15675675
REMARK  9 active torsions:
REMARK  status: ('A' for Active; 'I' for Inactive)
REMARK    1  A    between atoms: C_1  and  C_2
REMARK    2  A    between atoms: C_7  and  C_37
REMARK    3  A    between atoms: C_9  and  C_10
REMARK    4  A    between atoms: C_9  and  N_80
REMARK    5  A    between atoms: C_10  and  C_11
REMARK    6  A    between atoms: C_11  and  N_12
REMARK    7  A    between atoms: C_21  and  C_22
REMARK    8  A    between atoms: C_21  and  C_23
REMARK    9  A    between atoms: N_25  and  C_26
REMARK                            x       y       z     vdW  Elec       q    Type
REMARK                         _______ _______ _______ _____ _____    ______ ____
ROOT
ATOM      1  N   UNL     1      -1.032   1.607   2.826  0.00  0.00    -0.281 N 
ATOM      2  C   UNL     1      -0.516   2.845   2.655  0.00  0.00    +0.264 C 
ATOM      3  O   UNL     1       0.321   3.301   3.412  0.00  0.00    -0.268 OA
ATOM      4  C   UNL     1      -1.019   3.608   1.507  0.00  0.00    +0.109 A 
ATOM      5  C   UNL     1      -0.583   4.779   0.960  0.00  0.00    +0.079 A 
ATOM      6  C   UNL     1      -1.405   5.060  -0.142  0.00  0.00    +0.153 A 
ATOM      7  C   UNL     1      -2.345   4.035  -0.240  0.00  0.00    +0.088 A 
ATOM      8  N   UNL     1      -2.112   3.154   0.773  0.00  0.00    -0.331 N 
ATOM      9  C   UNL     1      -2.821   1.922   1.131  0.00  0.00    +0.157 C 
ATOM     10  C   UNL     1      -1.843   0.958   1.802  0.00  0.00    +0.128 C 
ATOM     11  C   UNL     1      -2.636  -0.180   2.448  0.00  0.00    +0.043 C 
ATOM     12  C   UNL     1      -3.151   4.346  -1.362  0.00  0.00    +0.067 A 
ATOM     13  C   UNL     1      -2.691   5.501  -1.875  0.00  0.00    +0.198 A 
ATOM     14  O   UNL     1      -1.648   5.931  -1.145  0.00  0.00    -0.461 OA
ENDROOT
BRANCH  10  15
ATOM     15  C   UNL     1      -0.931   0.380   0.752  0.00  0.00    +0.238 C 
ATOM     16  O   UNL     1      -1.207  -0.676   0.223  0.00  0.00    -0.273 OA
ATOM     17  N   UNL     1       0.193   1.036   0.400  0.00  0.00    -0.311 N 
ATOM     18  H   UNL     1       0.414   1.881   0.823  0.00  0.00    +0.149 HD
BRANCH  17  19
ATOM     19  C   UNL     1       1.080   0.474  -0.622  0.00  0.00    +0.073 C 
ATOM     20  C   UNL     1       0.582   0.882  -2.010  0.00  0.00    +0.022 C 
ATOM     21  C   UNL     1       1.691   0.650  -3.038  0.00  0.00    +0.002 C 
ATOM     22  C   UNL     1       1.801  -0.846  -3.340  0.00  0.00    +0.000 C 
ATOM     23  C   UNL     1       2.508  -1.549  -2.180  0.00  0.00    +0.000 C 
ATOM     24  C   UNL     1       3.718  -0.722  -1.743  0.00  0.00    +0.000 C 
ATOM     25  C   UNL     1       3.477  -0.169  -0.337  0.00  0.00    +0.002 C 
ATOM     26  C   UNL     1       2.499   1.005  -0.412  0.00  0.00    +0.022 C 
ENDBRANCH  17  19
ENDBRANCH  10  15
BRANCH   1  27
ATOM     27  C   UNL     1      -0.767   0.896   4.079  0.00  0.00    +0.107 C 
BRANCH  27  28
ATOM     28  C   UNL     1       0.516   0.074   3.937  0.00  0.00    +0.000 C 
BRANCH  28  29
ATOM     29  C   UNL     1       0.793  -0.669   5.246  0.00  0.00    -0.077 C 
BRANCH  29  37
ATOM     30  C   UNL     1       0.778  -3.236   6.397  0.00  0.00    -0.013 C 
ATOM     31  C   UNL     1       2.091  -2.473   6.205  0.00  0.00    -0.071 C 
ATOM     32  C   UNL     1       3.221  -3.466   5.924  0.00  0.00    -0.016 C 
ATOM     33  C   UNL     1       4.528  -2.696   5.713  0.00  0.00    -0.003 C 
ATOM     34  C   UNL     1       4.347  -1.705   4.560  0.00  0.00    -0.016 C 
ATOM     35  C   UNL     1       3.184  -0.764   4.881  0.00  0.00    -0.071 C 
ATOM     36  C   UNL     1       3.497   0.016   6.160  0.00  0.00    -0.013 C 
ATOM     37  N   UNL     1       1.952  -1.563   5.048  0.00  0.00    +0.383 N 
ATOM     38  H   UNL     1       1.801  -2.123   4.201  0.00  0.00    -0.081 HD
ENDBRANCH  29  37
ENDBRANCH  28  29
ENDBRANCH  27  28
ENDBRANCH   1  27
TORSDOF 6
