REMARK  Name = ZINC14006032
REMARK  10 active torsions:
REMARK  status: ('A' for Active; 'I' for Inactive)
REMARK    1  A    between atoms: C_1  and  O_2
REMARK    2  A    between atoms: O_2  and  C_3
REMARK    3  A    between atoms: C_8  and  C_9
REMARK    4  A    between atoms: N_11  and  C_12
REMARK    5  A    between atoms: C_12  and  N_14
REMARK    6  A    between atoms: N_14  and  C_15
REMARK    7  A    between atoms: C_20  and  C_21
REMARK    8  A    between atoms: N_23  and  C_24
REMARK    9  A    between atoms: C_27  and  N_30
REMARK   10  A    between atoms: N_30  and  C_31
REMARK                            x       y       z     vdW  Elec       q    Type
REMARK                         _______ _______ _______ _____ _____    ______ ____
ROOT
ATOM      1  C   UNL     1       8.204   7.657  -0.053  0.00  0.00    +0.045 A 
ATOM      2  C   UNL     1       9.389   8.361   0.118  0.00  0.00    +0.024 A 
ATOM      3  C   UNL     1      10.602   7.736  -0.091  0.00  0.00    +0.002 A 
ATOM      4  C   UNL     1      10.648   6.404  -0.474  0.00  0.00    +0.001 A 
ATOM      5  C   UNL     1       9.483   5.689  -0.644  0.00  0.00    +0.015 A 
ATOM      6  C   UNL     1       8.247   6.309  -0.441  0.00  0.00    +0.058 A 
ENDROOT
BRANCH   6   7
ATOM      7  C   UNL     1       6.997   5.550  -0.626  0.00  0.00    +0.250 C 
ATOM      8  O   UNL     1       5.924   6.121  -0.564  0.00  0.00    -0.270 OA
ATOM      9  N   UNL     1       7.042   4.225  -0.865  0.00  0.00    -0.281 N 
ATOM     10  H   UNL     1       7.897   3.780  -0.971  0.00  0.00    +0.155 HD
BRANCH   9  11
ATOM     11  C   UNL     1       5.853   3.489  -0.959  0.00  0.00    +0.034 A 
ATOM     12  C   UNL     1       5.802   2.188  -0.476  0.00  0.00    +0.025 A 
ATOM     13  C   UNL     1       4.631   1.463  -0.568  0.00  0.00    +0.025 A 
ATOM     14  C   UNL     1       3.504   2.035  -1.145  0.00  0.00    +0.031 A 
ATOM     15  C   UNL     1       3.557   3.335  -1.632  0.00  0.00    +0.025 A 
ATOM     16  C   UNL     1       4.726   4.061  -1.534  0.00  0.00    +0.025 A 
BRANCH  14  17
ATOM     17  N   UNL     1       2.317   1.300  -1.238  0.00  0.00    -0.314 N 
ATOM     18  H   UNL     1       2.350   0.340  -1.370  0.00  0.00    +0.152 HD
BRANCH  17  19
ATOM     19  C   UNL     1       1.084   1.950  -1.142  0.00  0.00    +0.031 A 
ATOM     20  C   UNL     1      -0.058   1.357  -1.666  0.00  0.00    +0.023 A 
ATOM     21  C   UNL     1      -1.274   2.005  -1.575  0.00  0.00    +0.002 A 
ATOM     22  C   UNL     1      -1.358   3.237  -0.952  0.00  0.00    +0.000 A 
ATOM     23  C   UNL     1      -0.223   3.830  -0.430  0.00  0.00    +0.002 A 
ATOM     24  C   UNL     1       0.997   3.191  -0.523  0.00  0.00    +0.023 A 
ENDBRANCH  17  19
ENDBRANCH  14  17
ENDBRANCH   9  11
ENDBRANCH   6   7
BRANCH   1  25
ATOM     25  N   UNL     1       6.981   8.286   0.157  0.00  0.00    -0.296 N 
ATOM     26  H   UNL     1       6.274   7.824   0.636  0.00  0.00    +0.154 HD
BRANCH  25  27
ATOM     27  C   UNL     1       6.777   9.536  -0.304  0.00  0.00    +0.141 C 
ATOM     28  S   UNL     1       7.968  10.296  -1.270  0.00  0.00    -0.018 S 
BRANCH  27  31
ATOM     29  C   UNL     1       5.431  11.436  -0.466  0.00  0.00    +0.253 C 
ATOM     30  O   UNL     1       6.277  11.977  -1.152  0.00  0.00    -0.270 OA
ATOM     31  N   UNL     1       5.635  10.186  -0.005  0.00  0.00    -0.263 N 
ATOM     32  H   UNL     1       4.960   9.755   0.542  0.00  0.00    +0.157 HD
BRANCH  29  38
ATOM     33  C   UNL     1       3.966  13.448  -0.617  0.00  0.00    +0.132 A 
ATOM     34  C   UNL     1       2.787  14.109  -0.303  0.00  0.00    +0.046 A 
ATOM     35  C   UNL     1       1.832  13.487   0.476  0.00  0.00    +0.004 A 
ATOM     36  C   UNL     1       2.042  12.202   0.950  0.00  0.00    +0.001 A 
ATOM     37  C   UNL     1       3.204  11.529   0.644  0.00  0.00    +0.017 A 
ATOM     38  C   UNL     1       4.182  12.148  -0.139  0.00  0.00    +0.079 A 
BRANCH  33  40
ATOM     39  C   UNL     1       4.615  15.383  -1.833  0.00  0.00    +0.277 C 
ATOM     40  O   UNL     1       4.905  14.058  -1.383  0.00  0.00    -0.494 OA
ENDBRANCH  33  40
ENDBRANCH  29  38
ENDBRANCH  27  31
ENDBRANCH  25  27
ENDBRANCH   1  25
TORSDOF 9
