REMARK  Name = ZINC63296213
REMARK  7 active torsions:
REMARK  status: ('A' for Active; 'I' for Inactive)
REMARK    1  A    between atoms: C_9  and  S_14
REMARK    2  A    between atoms: C_11  and  O_13
REMARK    3  A    between atoms: S_14  and  C_15
REMARK    4  A    between atoms: C_15  and  C_16
REMARK    5  A    between atoms: N_18  and  C_19
REMARK    6  A    between atoms: C_19  and  C_20
REMARK    7  A    between atoms: C_20  and  C_21
REMARK                            x       y       z     vdW  Elec       q    Type
REMARK                         _______ _______ _______ _____ _____    ______ ____
ROOT
ATOM      1  C   UNL     1       6.936  -5.351   0.196  0.00  0.00    +0.223 C 
ATOM      2  O   UNL     1       6.660  -5.989   1.189  0.00  0.00    -0.275 OA
ATOM      3  N   UNL     1       8.108  -5.562  -0.437  0.00  0.00    -0.314 N 
ATOM      4  H   UNL     1       8.329  -5.051  -1.231  0.00  0.00    +0.149 HD
ENDROOT
BRANCH   1   5
ATOM      5  C   UNL     1       5.969  -4.323  -0.332  0.00  0.00    +0.165 C 
BRANCH   5   6
ATOM      6  S   UNL     1       4.498  -4.275   0.728  0.00  0.00    -0.139 S 
BRANCH   6  15
ATOM      7  C   UNL     1      -0.017   1.373   0.010  0.00  0.00    +0.000 A 
ATOM      8  C   UNL     1       1.178   2.071   0.002  0.00  0.00    +0.002 A 
ATOM      9  C   UNL     1       2.366   1.387  -0.008  0.00  0.00    +0.028 A 
ATOM     10  C   UNL     1       2.401  -0.025  -0.013  0.00  0.00    +0.071 A 
ATOM     11  C   UNL     1       1.200  -0.715  -0.015  0.00  0.00    -0.022 A 
ATOM     12  C   UNL     1       0.002  -0.004   0.002  0.00  0.00    +0.006 A 
ATOM     13  C   UNL     1       1.070  -2.205  -0.048  0.00  0.00    +0.039 C 
ATOM     14  C   UNL     1       2.129  -2.960   0.696  0.00  0.00    +0.028 C 
ATOM     15  C   UNL     1       3.450  -3.006  -0.033  0.00  0.00    +0.132 C 
ATOM     16  C   UNL     1       4.161  -1.702   0.015  0.00  0.00    +0.201 C 
ATOM     17  N   UNL     1       3.636  -0.563  -0.009  0.00  0.00    -0.216 NA
BRANCH  16  18
ATOM     18  O   UNL     1       5.507  -1.747   0.093  0.00  0.00    -0.495 OA
ATOM     19  H   UNL     1       5.929  -0.878   0.122  0.00  0.00    +0.293 HD
ENDBRANCH  16  18
ENDBRANCH   6  15
ENDBRANCH   5   6
ENDBRANCH   1   5
BRANCH   3  20
ATOM     20  C   UNL     1       9.047  -6.562   0.076  0.00  0.00    +0.108 C 
BRANCH  20  21
ATOM     21  C   UNL     1      10.288  -6.602  -0.818  0.00  0.00    +0.052 C 
BRANCH  21  22
ATOM     22  C   UNL     1      11.255  -7.630  -0.290  0.00  0.00    -0.040 C 
ATOM     23  C   UNL     1      11.374  -8.916  -0.693  0.00  0.00    +0.000 A 
ATOM     24  C   UNL     1      10.665  -9.711  -1.702  0.00  0.00    +0.030 A 
ATOM     25  C   UNL     1      11.015 -11.006  -1.882  0.00  0.00    +0.042 A 
ATOM     26  C   UNL     1      12.035 -11.605  -1.129  0.00  0.00    +0.022 A 
ATOM     27  C   UNL     1      12.731 -10.939  -0.183  0.00  0.00    +0.027 A 
ATOM     28  C   UNL     1      12.447  -9.572   0.089  0.00  0.00    +0.043 A 
ATOM     29  N   UNL     1      12.971  -8.725   0.941  0.00  0.00    -0.380 N 
ATOM     30  C   UNL     1      12.293  -7.432   0.791  0.00  0.00    +0.144 C 
ATOM     31 CL   UNL     1      10.179 -11.950  -3.075  0.00  0.00    -0.084 Cl
ATOM     32  H   UNL     1      13.689  -8.918   1.563  0.00  0.00    +0.160 HD
ENDBRANCH  21  22
ENDBRANCH  20  21
ENDBRANCH   3  20
TORSDOF 7
