REMARK  Name = ZINC26458672
REMARK  8 active torsions:
REMARK  status: ('A' for Active; 'I' for Inactive)
REMARK    1  A    between atoms: C_1  and  C_2
REMARK    2  A    between atoms: C_9  and  N_24
REMARK    3  A    between atoms: C_10  and  C_13
REMARK    4  A    between atoms: N_17  and  C_21
REMARK    5  A    between atoms: C_21  and  C_22
REMARK    6  A    between atoms: C_21  and  C_23
REMARK    7  A    between atoms: C_26  and  C_33
REMARK    8  A    between atoms: C_29  and  C_32
REMARK                            x       y       z     vdW  Elec       q    Type
REMARK                         _______ _______ _______ _____ _____    ______ ____
ROOT
ATOM      1  C   UNL     1       2.666  -1.949   1.713  0.00  0.00    +0.047 C 
ATOM      2  C   UNL     1       2.277  -1.514   3.103  0.00  0.00    -0.007 A 
ATOM      3  C   UNL     1       2.838  -2.113   4.191  0.00  0.00    +0.008 A 
ATOM      4  C   UNL     1       2.466  -1.697   5.477  0.00  0.00    +0.019 A 
ATOM      5  C   UNL     1       1.558  -0.709   5.634  0.00  0.00    +0.096 A 
ATOM      6  N   UNL     1       0.991  -0.103   4.552  0.00  0.00    -0.267 N 
ATOM      7  C   UNL     1       1.333  -0.487   3.285  0.00  0.00    +0.145 A 
ATOM      8  N   UNL     1       0.790   0.092   2.215  0.00  0.00    -0.213 NA
ATOM      9  C   UNL     1      -0.104   1.064   2.328  0.00  0.00    +0.136 A 
ATOM     10  C   UNL     1      -0.493   1.507   3.614  0.00  0.00    +0.081 A 
ATOM     11  C   UNL     1       0.087   0.881   4.744  0.00  0.00    +0.267 A 
ATOM     12  O   UNL     1      -0.222   1.228   5.871  0.00  0.00    -0.267 OA
ENDROOT
BRANCH  10  13
ATOM     13  C   UNL     1      -1.440   2.546   3.768  0.00  0.00    +0.037 C 
ATOM     14  C   UNL     1      -2.678   2.429   3.204  0.00  0.00    +0.077 C 
ATOM     15  C   UNL     1      -3.735   3.381   3.135  0.00  0.00    +0.259 C 
ATOM     16  O   UNL     1      -3.612   4.490   3.622  0.00  0.00    -0.269 OA
ATOM     17  N   UNL     1      -4.854   3.026   2.527  0.00  0.00    -0.253 N 
ATOM     18  C   UNL     1      -4.991   1.794   1.988  0.00  0.00    +0.121 C 
ATOM     19  S   UNL     1      -6.335   1.126   1.164  0.00  0.00    -0.027 S 
ATOM     20  S   UNL     1      -3.410   1.042   2.346  0.00  0.00    -0.061 S 
BRANCH  17  21
ATOM     21  C   UNL     1      -5.961   3.980   2.438  0.00  0.00    +0.077 C 
ATOM     22  C   UNL     1      -6.286   4.249   0.967  0.00  0.00    +0.028 C 
ATOM     23  C   UNL     1      -7.194   3.399   3.134  0.00  0.00    +0.028 C 
ENDBRANCH  17  21
ENDBRANCH  10  13
BRANCH   9  24
ATOM     24  N   UNL     1      -0.646   1.643   1.202  0.00  0.00    -0.314 N 
ATOM     25  C   UNL     1      -0.825   0.650   0.134  0.00  0.00    +0.109 C 
ATOM     26  C   UNL     1      -1.560   1.294  -1.044  0.00  0.00    +0.004 C 
ATOM     27  C   UNL     1      -0.746   2.484  -1.559  0.00  0.00    +0.009 C 
ATOM     28  C   UNL     1      -0.532   3.479  -0.415  0.00  0.00    +0.004 C 
ATOM     29  C   UNL     1       0.173   2.773   0.745  0.00  0.00    +0.109 C 
ATOM     30  C   UNL     1      -1.886   4.011   0.058  0.00  0.00    +0.009 C 
ATOM     31  C   UNL     1      -1.727   0.266  -2.164  0.00  0.00    +0.009 C 
ENDBRANCH   9  24
TORSDOF 3
