REMARK  Name = ZINC17306824
REMARK  9 active torsions:
REMARK  status: ('A' for Active; 'I' for Inactive)
REMARK    1  A    between atoms: C_1  and  C_2
REMARK    2  A    between atoms: C_2  and  C_3
REMARK    3  A    between atoms: C_2  and  N_4
REMARK    4  A    between atoms: C_5  and  C_7
REMARK    5  A    between atoms: C_7  and  N_8
REMARK    6  A    between atoms: N_8  and  C_9
REMARK    7  A    between atoms: N_8  and  C_10
REMARK    8  A    between atoms: C_10  and  C_11
REMARK    9  A    between atoms: N_16  and  C_17
REMARK                            x       y       z     vdW  Elec       q    Type
REMARK                         _______ _______ _______ _____ _____    ______ ____
ROOT
ATOM      1  C   UNL     1      -5.954  -1.542  -3.886  0.00  0.00    +0.204 C 
ATOM      2  O   UNL     1      -5.247  -1.191  -4.806  0.00  0.00    -0.277 OA
ATOM      3  N   UNL     1      -7.243  -1.864  -4.112  0.00  0.00    -0.241 N 
ATOM      4  C   UNL     1      -7.746  -1.795  -5.361  0.00  0.00    +0.310 C 
ATOM      5  O   UNL     1      -7.037  -1.443  -6.283  0.00  0.00    -0.252 OA
ATOM      6  N   UNL     1      -9.035  -2.117  -5.586  0.00  0.00    -0.269 N 
ATOM      7  H   UNL     1      -7.809  -2.145  -3.376  0.00  0.00    +0.159 HD
ATOM      8  H   UNL     1      -9.583  -2.462  -4.863  0.00  0.00    +0.156 HD
ENDROOT
BRANCH   6   9
ATOM      9  C   UNL     1      -9.584  -1.953  -6.863  0.00  0.00    +0.035 A 
ATOM     10  C   UNL     1     -10.908  -1.560  -7.006  0.00  0.00    +0.024 A 
ATOM     11  C   UNL     1     -11.447  -1.399  -8.267  0.00  0.00    +0.017 A 
ATOM     12  C   UNL     1     -10.669  -1.630  -9.388  0.00  0.00    +0.018 A 
ATOM     13  C   UNL     1      -9.350  -2.022  -9.249  0.00  0.00    +0.017 A 
ATOM     14  C   UNL     1      -8.804  -2.179  -7.990  0.00  0.00    +0.024 A 
ATOM     15 BR   UNL     1     -11.411  -1.409 -11.114  0.00  0.00    -0.050 Br
ENDBRANCH   6   9
BRANCH   1  16
ATOM     16  C   UNL     1      -5.391  -1.619  -2.490  0.00  0.00    +0.019 C 
BRANCH  16  17
ATOM     17  N   UNL     1      -3.977  -1.222  -2.510  0.00  0.00    +0.389 N 
ATOM     18  C   UNL     1      -3.205  -2.195  -3.294  0.00  0.00    -0.095 C 
ATOM     19  H   UNL     1      -3.890  -0.308  -2.929  0.00  0.00    -0.081 HD
BRANCH  17  20
ATOM     20  C   UNL     1      -3.461  -1.181  -1.135  0.00  0.00    +0.019 C 
BRANCH  20  22
ATOM     21  N   UNL     1      -1.369  -0.531   0.013  0.00  0.00    -0.315 N 
ATOM     22  C   UNL     1      -2.048  -0.656  -1.144  0.00  0.00    +0.197 C 
ATOM     23  O   UNL     1      -1.523  -0.346  -2.193  0.00  0.00    -0.278 OA
ATOM     24  H   UNL     1      -1.788  -0.778   0.851  0.00  0.00    +0.149 HD
BRANCH  21  26
ATOM     25  C   UNL     1      -0.020   1.510   0.023  0.00  0.00    +0.027 C 
ATOM     26  C   UNL     1       0.004  -0.020   0.004  0.00  0.00    +0.067 C 
ATOM     27  C   UNL     1       0.748  -0.533   1.239  0.00  0.00    +0.027 C 
ENDBRANCH  21  26
ENDBRANCH  20  22
ENDBRANCH  17  20
ENDBRANCH  16  17
ENDBRANCH   1  16
TORSDOF 6
