REMARK  Name = ZINC46279807
REMARK  11 active torsions:
REMARK  status: ('A' for Active; 'I' for Inactive)
REMARK    1  A    between atoms: C_1  and  C_2
REMARK    2  A    between atoms: C_2  and  N_3
REMARK    3  A    between atoms: N_3  and  C_4
REMARK    4  A    between atoms: N_3  and  C_6
REMARK    5  A    between atoms: C_4  and  C_5
REMARK    6  A    between atoms: C_6  and  C_8
REMARK    7  A    between atoms: C_6  and  C_9
REMARK    8  A    between atoms: C_9  and  N_10
REMARK    9  A    between atoms: N_13  and  N_14
REMARK   10  A    between atoms: N_14  and  C_15
REMARK   11  A    between atoms: C_15  and  C_22
REMARK                            x       y       z     vdW  Elec       q    Type
REMARK                         _______ _______ _______ _____ _____    ______ ____
ROOT
ATOM      1  N   UNL     1       2.727  -1.878  -2.441  0.00  0.00    -0.300 N 
ATOM      2  C   UNL     1       3.633  -2.096  -3.415  0.00  0.00    +0.313 C 
ATOM      3  O   UNL     1       3.291  -2.624  -4.455  0.00  0.00    -0.252 OA
ATOM      4  N   UNL     1       4.917  -1.728  -3.235  0.00  0.00    -0.234 N 
ATOM      5  H   UNL     1       2.982  -1.392  -1.641  0.00  0.00    +0.150 HD
ATOM      6  H   UNL     1       5.553  -1.818  -3.962  0.00  0.00    +0.171 HD
ENDROOT
BRANCH   4   7
ATOM      7  N   UNL     1       5.322  -1.229  -2.030  0.00  0.00    -0.232 NA
ATOM      8  H   UNL     1       4.720  -0.477  -1.729  0.00  0.00    +0.145 HD
BRANCH   7   9
ATOM      9  C   UNL     1       6.723  -0.791  -2.086  0.00  0.00    +0.054 C 
ATOM     10  C   UNL     1       6.873   0.228  -3.215  0.00  0.00    +0.047 C 
ATOM     11  C   UNL     1       6.632   1.666  -2.678  0.00  0.00    +0.168 C 
ATOM     12  S   UNL     1       7.486   1.533  -1.046  0.00  0.00    -0.029 S 
ATOM     13  O   UNL     1       6.806   2.341  -0.096  0.00  0.00    -0.174 OA
ATOM     14  O   UNL     1       8.884   1.697  -1.236  0.00  0.00    -0.174 OA
ATOM     15  C   UNL     1       7.123  -0.239  -0.704  0.00  0.00    +0.189 C 
ATOM     16  C   UNL     1       7.602  -2.002  -2.404  0.00  0.00    +0.031 C 
ENDBRANCH   7   9
ENDBRANCH   4   7
BRANCH   1  17
ATOM     17  C   UNL     1       1.357  -2.374  -2.591  0.00  0.00    +0.090 C 
BRANCH  17  18
ATOM     18  C   UNL     1       0.505  -1.884  -1.418  0.00  0.00    -0.054 C 
ATOM     19  C   UNL     1      -0.946  -2.325  -1.621  0.00  0.00    -0.012 C 
BRANCH  18  20
ATOM     20  N   UNL     1       0.566  -0.418  -1.348  0.00  0.00    +0.382 N 
ATOM     21  H   UNL     1       1.529  -0.124  -1.283  0.00  0.00    -0.081 HD
BRANCH  20  23
ATOM     22  C   UNL     1       0.135   1.676  -2.543  0.00  0.00    -0.017 C 
ATOM     23  C   UNL     1      -0.040   0.156  -2.557  0.00  0.00    -0.082 C 
ENDBRANCH  20  23
BRANCH  20  24
ATOM     24  C   UNL     1      -0.169   0.047  -0.164  0.00  0.00    -0.082 C 
ATOM     25  C   UNL     1       0.548  -0.428   1.101  0.00  0.00    -0.017 C 
ENDBRANCH  20  24
ENDBRANCH  18  20
ENDBRANCH  17  18
ENDBRANCH   1  17
TORSDOF 7
