REMARK  Name = ZINC39327025
REMARK  10 active torsions:
REMARK  status: ('A' for Active; 'I' for Inactive)
REMARK    1  A    between atoms: C_1  and  C_2
REMARK    2  A    between atoms: C_3  and  C_33
REMARK    3  A    between atoms: C_4  and  C_25
REMARK    4  A    between atoms: C_7  and  N_24
REMARK    5  A    between atoms: C_8  and  C_12
REMARK    6  A    between atoms: C_12  and  C_14
REMARK    7  A    between atoms: C_28  and  O_31
REMARK    8  A    between atoms: O_31  and  C_32
REMARK    9  A    between atoms: C_33  and  O_35
REMARK   10  A    between atoms: O_35  and  C_36
REMARK                            x       y       z     vdW  Elec       q    Type
REMARK                         _______ _______ _______ _____ _____    ______ ____
ROOT
ATOM      1  C   UNL     1      -0.018   1.503   0.010  0.00  0.00    +0.061 C 
ATOM      2  C   UNL     1       0.002  -0.004   0.002  0.00  0.00    +0.016 C 
ATOM      3  C   UNL     1      -1.160  -0.670   0.004  0.00  0.00    +0.065 C 
ATOM      4  C   UNL     1      -1.290  -2.164  -0.023  0.00  0.00    +0.091 C 
ATOM      5  C   UNL     1       0.063  -2.801   0.268  0.00  0.00    +0.014 A 
ATOM      6  C   UNL     1       0.253  -4.138   0.556  0.00  0.00    +0.048 A 
ATOM      7  C   UNL     1       1.551  -4.604   0.803  0.00  0.00    +0.078 A 
ATOM      8  S   UNL     1       2.523  -3.115   0.624  0.00  0.00    -0.068 S 
ATOM      9  C   UNL     1       1.201  -2.002   0.249  0.00  0.00    +0.076 A 
ATOM     10  N   UNL     1       1.213  -0.655  -0.013  0.00  0.00    -0.312 N 
ATOM     11  H   UNL     1       2.039  -0.182  -0.198  0.00  0.00    +0.152 HD
ENDROOT
BRANCH   4  12
ATOM     12  C   UNL     1      -1.767  -2.602  -1.385  0.00  0.00    -0.035 A 
ATOM     13  C   UNL     1      -1.010  -2.315  -2.506  0.00  0.00    +0.008 A 
ATOM     14  C   UNL     1      -1.445  -2.715  -3.755  0.00  0.00    +0.046 A 
ATOM     15  C   UNL     1      -2.643  -3.404  -3.883  0.00  0.00    +0.120 A 
ATOM     16  C   UNL     1      -3.400  -3.690  -2.757  0.00  0.00    +0.046 A 
ATOM     17  C   UNL     1      -2.958  -3.293  -1.509  0.00  0.00    +0.008 A 
BRANCH  15  18
ATOM     18  O   UNL     1      -3.073  -3.797  -5.111  0.00  0.00    -0.495 OA
ATOM     19  C   UNL     1      -4.314  -4.503  -5.168  0.00  0.00    +0.277 C 
ENDBRANCH  15  18
ENDBRANCH   4  12
BRANCH   6  20
ATOM     20  N   UNL     1      -0.828  -5.009   0.600  0.00  0.00    -0.357 N 
ATOM     21  H   UNL     1      -1.724  -4.680   0.427  0.00  0.00    +0.142 HD
ATOM     22  H   UNL     1      -0.687  -5.947   0.802  0.00  0.00    +0.142 HD
ENDBRANCH   6  20
BRANCH   7  23
ATOM     23  C   UNL     1       1.976  -5.898   1.112  0.00  0.00    +0.178 C 
ATOM     24  O   UNL     1       1.165  -6.801   1.194  0.00  0.00    -0.291 OA
BRANCH  23  25
ATOM     25  C   UNL     1       3.439  -6.176   1.341  0.00  0.00    +0.035 C 
ATOM     26  C   UNL     1       4.230  -5.818   0.082  0.00  0.00    +0.018 C 
ATOM     27  C   UNL     1       5.716  -6.100   0.316  0.00  0.00    -0.010 C 
ATOM     28  C   UNL     1       5.909  -7.584   0.634  0.00  0.00    +0.007 C 
ATOM     29  C   UNL     1       5.118  -7.943   1.893  0.00  0.00    -0.010 C 
ATOM     30  C   UNL     1       3.632  -7.660   1.660  0.00  0.00    +0.018 C 
ATOM     31  C   UNL     1       5.619  -7.100   3.068  0.00  0.00    +0.007 C 
ATOM     32  C   UNL     1       5.426  -5.616   2.749  0.00  0.00    -0.010 C 
ATOM     33  C   UNL     1       6.217  -5.257   1.490  0.00  0.00    +0.007 C 
ATOM     34  C   UNL     1       3.940  -5.333   2.516  0.00  0.00    +0.018 C 
ENDBRANCH  23  25
ENDBRANCH   7  23
BRANCH   3  35
ATOM     35  C   UNL     1      -2.350   0.090   0.035  0.00  0.00    +0.337 C 
ATOM     36  O   UNL     1      -2.295   1.306   0.058  0.00  0.00    -0.245 OA
BRANCH  35  37
ATOM     37  O   UNL     1      -3.548  -0.531   0.038  0.00  0.00    -0.465 OA
ATOM     38  C   UNL     1      -4.710   0.300   0.070  0.00  0.00    +0.280 C 
ENDBRANCH  35  37
ENDBRANCH   3  35
TORSDOF 7
