REMARK  Name = ZINC03182098
REMARK  9 active torsions:
REMARK  status: ('A' for Active; 'I' for Inactive)
REMARK    1  A    between atoms: C_1  and  O_2
REMARK    2  A    between atoms: O_2  and  C_3
REMARK    3  A    between atoms: C_5  and  C_10
REMARK    4  A    between atoms: C_8  and  O_9
REMARK    5  A    between atoms: N_11  and  C_12
REMARK    6  A    between atoms: C_12  and  C_13
REMARK    7  A    between atoms: C_13  and  C_14
REMARK    8  A    between atoms: C_17  and  S_20
REMARK    9  A    between atoms: S_20  and  N_23
REMARK                            x       y       z     vdW  Elec       q    Type
REMARK                         _______ _______ _______ _____ _____    ______ ____
ROOT
ATOM      1  C   UNL     1       3.569   0.575  -6.287  0.00  0.00    +0.117 C 
ENDROOT
BRANCH   1   3
ATOM      2  C   UNL     1       2.395   0.347  -4.217  0.00  0.00    +0.086 C 
ATOM      3  N   UNL     1       2.969  -0.232  -5.222  0.00  0.00    -0.389 N 
ATOM      4  H   UNL     1       3.002  -1.200  -5.269  0.00  0.00    +0.159 HD
BRANCH   2   7
ATOM      5  C   UNL     1       0.606  -0.608  -1.056  0.00  0.00    +0.162 A 
ATOM      6  C   UNL     1       1.171   0.158  -2.058  0.00  0.00    +0.058 A 
ATOM      7  C   UNL     1       1.791  -0.465  -3.144  0.00  0.00    -0.006 A 
ATOM      8  C   UNL     1       1.838  -1.860  -3.212  0.00  0.00    +0.013 A 
ATOM      9  C   UNL     1       1.272  -2.618  -2.209  0.00  0.00    +0.050 A 
ATOM     10  C   UNL     1       0.661  -1.998  -1.128  0.00  0.00    +0.158 A 
BRANCH   5  12
ATOM     11  C   UNL     1      -0.017   1.425   0.010  0.00  0.00    +0.277 C 
ATOM     12  O   UNL     1       0.002  -0.004   0.002  0.00  0.00    -0.491 OA
ENDBRANCH   5  12
BRANCH  10  13
ATOM     13  O   UNL     1       0.110  -2.750  -0.139  0.00  0.00    -0.503 OA
ATOM     14  H   UNL     1      -0.819  -2.975  -0.287  0.00  0.00    +0.292 HD
ENDBRANCH  10  13
ENDBRANCH   2   7
ENDBRANCH   1   3
BRANCH   1  15
ATOM     15  C   UNL     1       5.083   0.354  -6.303  0.00  0.00    +0.056 C 
BRANCH  15  16
ATOM     16  C   UNL     1       5.700   1.185  -7.399  0.00  0.00    -0.046 A 
ATOM     17  C   UNL     1       5.837   0.659  -8.671  0.00  0.00    +0.005 A 
ATOM     18  C   UNL     1       6.403   1.421  -9.676  0.00  0.00    +0.029 A 
ATOM     19  C   UNL     1       6.831   2.708  -9.410  0.00  0.00    +0.105 A 
ATOM     20  C   UNL     1       6.693   3.234  -8.139  0.00  0.00    +0.029 A 
ATOM     21  C   UNL     1       6.123   2.474  -7.135  0.00  0.00    +0.005 A 
BRANCH  19  22
ATOM     22  S   UNL     1       7.554   3.678 -10.691  0.00  0.00    +0.056 S 
ATOM     23  O   UNL     1       8.369   4.651 -10.053  0.00  0.00    -0.153 OA
ATOM     24  O   UNL     1       8.067   2.765 -11.652  0.00  0.00    -0.153 OA
BRANCH  22  25
ATOM     25  N   UNL     1       6.324   4.503 -11.433  0.00  0.00    -0.204 NA
ATOM     26  H   UNL     1       5.411   4.390 -11.127  0.00  0.00    +0.144 HD
ATOM     27  H   UNL     1       6.518   5.099 -12.173  0.00  0.00    +0.144 HD
ENDBRANCH  22  25
ENDBRANCH  19  22
ENDBRANCH  15  16
ENDBRANCH   1  15
TORSDOF 8
