REMARK  Name = ZINC45104453
REMARK  12 active torsions:
REMARK  status: ('A' for Active; 'I' for Inactive)
REMARK    1  A    between atoms: C_1  and  C_2
REMARK    2  A    between atoms: C_2  and  C_3
REMARK    3  A    between atoms: C_2  and  C_4
REMARK    4  A    between atoms: C_2  and  O_5
REMARK    5  A    between atoms: O_5  and  C_6
REMARK    6  A    between atoms: N_8  and  N_9
REMARK    7  A    between atoms: N_12  and  C_13
REMARK    8  A    between atoms: C_13  and  C_14
REMARK    9  A    between atoms: C_19  and  C_20
REMARK   10  A    between atoms: C_20  and  N_21
REMARK   11  A    between atoms: N_21  and  C_22
REMARK   12  A    between atoms: N_21  and  C_23
REMARK                            x       y       z     vdW  Elec       q    Type
REMARK                         _______ _______ _______ _____ _____    ______ ____
ROOT
ATOM      1  N   UNL     1       2.047  -1.726  -4.183  0.00  0.00    -0.216 N 
ATOM      2  C   UNL     1       2.927  -2.057  -5.149  0.00  0.00    +0.316 C 
ATOM      3  O   UNL     1       2.624  -2.878  -5.992  0.00  0.00    -0.251 OA
ATOM      4  N   UNL     1       4.144  -1.477  -5.179  0.00  0.00    -0.294 N 
ATOM      5  H   UNL     1       1.172  -2.143  -4.160  0.00  0.00    +0.174 HD
ATOM      6  H   UNL     1       4.386  -0.822  -4.506  0.00  0.00    +0.151 HD
ENDROOT
BRANCH   1   9
ATOM      7  C   UNL     1       1.517  -0.450  -2.244  0.00  0.00    +0.417 C 
ATOM      8  O   UNL     1       1.821   0.371  -1.401  0.00  0.00    -0.225 OA
ATOM      9  N   UNL     1       2.397  -0.780  -3.210  0.00  0.00    -0.198 N 
ATOM     10  H   UNL     1       3.273  -0.363  -3.232  0.00  0.00    +0.176 HD
BRANCH   7  11
ATOM     11  O   UNL     1       0.302  -1.029  -2.213  0.00  0.00    -0.444 OA
BRANCH  11  13
ATOM     12  C   UNL     1      -0.843   0.873  -1.258  0.00  0.00    +0.055 C 
ATOM     13  C   UNL     1      -0.580  -0.631  -1.162  0.00  0.00    +0.107 C 
ATOM     14  C   UNL     1       0.062  -0.950   0.190  0.00  0.00    +0.055 C 
ATOM     15  C   UNL     1      -1.902  -1.390  -1.290  0.00  0.00    +0.055 C 
ENDBRANCH  11  13
ENDBRANCH   7  11
ENDBRANCH   1   9
BRANCH   4  16
ATOM     16  C   UNL     1       5.100  -1.836  -6.229  0.00  0.00    +0.141 C 
BRANCH  16  17
ATOM     17  C   UNL     1       6.420  -1.161  -5.959  0.00  0.00    -0.029 A 
ATOM     18  C   UNL     1       6.747   0.007  -6.621  0.00  0.00    +0.005 A 
ATOM     19  C   UNL     1       7.958   0.626  -6.372  0.00  0.00    +0.000 A 
ATOM     20  C   UNL     1       8.841   0.076  -5.462  0.00  0.00    +0.000 A 
ATOM     21  C   UNL     1       8.514  -1.091  -4.799  0.00  0.00    +0.002 A 
ATOM     22  C   UNL     1       7.301  -1.708  -5.045  0.00  0.00    -0.059 A 
BRANCH  22  23
ATOM     23  C   UNL     1       6.941  -2.978  -4.318  0.00  0.00    -0.043 C 
BRANCH  23  24
ATOM     24  N   UNL     1       6.073  -2.661  -3.176  0.00  0.00    +0.379 N 
ATOM     25  C   UNL     1       5.621  -3.907  -2.544  0.00  0.00    -0.096 C 
ATOM     26  C   UNL     1       6.823  -1.860  -2.200  0.00  0.00    -0.096 C 
ATOM     27  H   UNL     1       5.273  -2.137  -3.498  0.00  0.00    -0.082 HD
ENDBRANCH  23  24
ENDBRANCH  22  23
ENDBRANCH  16  17
ENDBRANCH   4  16
TORSDOF 7
