REMARK  Name = ZINC38899557
REMARK  7 active torsions:
REMARK  status: ('A' for Active; 'I' for Inactive)
REMARK    1  A    between atoms: C_5  and  C_7
REMARK    2  A    between atoms: C_7  and  N_8
REMARK    3  A    between atoms: C_16  and  S_18
REMARK    4  A    between atoms: S_18  and  C_19
REMARK    5  A    between atoms: C_19  and  C_20
REMARK    6  A    between atoms: N_22  and  N_23
REMARK    7  A    between atoms: C_24  and  C_25
REMARK                            x       y       z     vdW  Elec       q    Type
REMARK                         _______ _______ _______ _____ _____    ______ ____
ROOT
ATOM      1  N   UNL     1       1.594  -2.620   1.329  0.00  0.00    -0.297 N 
ATOM      2  C   UNL     1       2.894  -2.756   1.834  0.00  0.00    +0.053 A 
ATOM      3  C   UNL     1       4.126  -2.531   1.230  0.00  0.00    +0.025 A 
ATOM      4  C   UNL     1       5.294  -2.737   1.938  0.00  0.00    +0.002 A 
ATOM      5  C   UNL     1       5.243  -3.169   3.250  0.00  0.00    +0.002 A 
ATOM      6  C   UNL     1       4.024  -3.396   3.859  0.00  0.00    +0.025 A 
ATOM      7  C   UNL     1       2.843  -3.191   3.155  0.00  0.00    +0.050 A 
ATOM      8  N   UNL     1       1.508  -3.351   3.551  0.00  0.00    -0.316 N 
ATOM      9  C   UNL     1       0.666  -2.987   2.405  0.00  0.00    +0.220 C 
ATOM     10  H   UNL     1       1.198  -3.644   4.422  0.00  0.00    +0.149 HD
ENDROOT
BRANCH   1  11
ATOM     11  C   UNL     1       1.229  -2.186  -0.022  0.00  0.00    +0.144 C 
BRANCH  11  16
ATOM     12  C   UNL     1      -0.774   1.010   0.155  0.00  0.00    +0.000 A 
ATOM     13  C   UNL     1       0.219   1.965   0.041  0.00  0.00    +0.001 A 
ATOM     14  C   UNL     1       1.539   1.578  -0.094  0.00  0.00    +0.020 A 
ATOM     15  C   UNL     1       1.866   0.234  -0.114  0.00  0.00    +0.046 A 
ATOM     16  C   UNL     1       0.873  -0.722   0.001  0.00  0.00    -0.012 A 
ATOM     17  C   UNL     1      -0.447  -0.333   0.135  0.00  0.00    +0.006 A 
ATOM     18 CL   UNL     1       3.524  -0.254  -0.284  0.00  0.00    -0.083 Cl
ENDBRANCH  11  16
ENDBRANCH   1  11
BRANCH   9  19
ATOM     19  S   UNL     1      -0.346  -4.406   1.902  0.00  0.00    -0.110 S 
BRANCH  19  20
ATOM     20  C   UNL     1       0.865  -5.717   1.580  0.00  0.00    +0.170 C 
BRANCH  20  21
ATOM     21  C   UNL     1       0.147  -6.970   1.147  0.00  0.00    +0.242 C 
ATOM     22  O   UNL     1      -1.063  -6.977   1.065  0.00  0.00    -0.273 OA
ATOM     23  N   UNL     1       0.849  -8.082   0.852  0.00  0.00    -0.206 N 
ATOM     24  H   UNL     1       1.817  -8.076   0.918  0.00  0.00    +0.177 HD
BRANCH  23  25
ATOM     25  N   UNL     1       0.181  -9.246   0.450  0.00  0.00    -0.188 NA
ATOM     26  C   UNL     1       0.863 -10.326   0.164  0.00  0.00    +0.136 C 
BRANCH  26  27
ATOM     27  C   UNL     1       0.195 -11.491  -0.239  0.00  0.00    +0.000 C 
ATOM     28  C   UNL     1       0.766 -12.717  -0.572  0.00  0.00    +0.004 A 
ATOM     29  C   UNL     1       2.104 -13.166  -0.614  0.00  0.00    +0.010 A 
ATOM     30  C   UNL     1       2.374 -14.443  -0.985  0.00  0.00    +0.001 A 
ATOM     31  C   UNL     1       1.355 -15.337  -1.329  0.00  0.00    +0.002 A 
ATOM     32  C   UNL     1       0.050 -14.976  -1.311  0.00  0.00    +0.026 A 
ATOM     33  C   UNL     1      -0.311 -13.655  -0.934  0.00  0.00    +0.043 A 
ATOM     34  N   UNL     1      -1.485 -13.067  -0.838  0.00  0.00    -0.380 N 
ATOM     35  C   UNL     1      -1.298 -11.681  -0.395  0.00  0.00    +0.150 C 
ATOM     36  H   UNL     1      -2.340 -13.485  -1.026  0.00  0.00    +0.160 HD
ENDBRANCH  26  27
ENDBRANCH  23  25
ENDBRANCH  20  21
ENDBRANCH  19  20
ENDBRANCH   9  19
TORSDOF 7
