REMARK  Name = ZINC39677057
REMARK  10 active torsions:
REMARK  status: ('A' for Active; 'I' for Inactive)
REMARK    1  A    between atoms: C_1  and  C_2
REMARK    2  A    between atoms: C_5  and  C_40
REMARK    3  A    between atoms: C_6  and  C_8
REMARK    4  A    between atoms: C_8  and  C_9
REMARK    5  A    between atoms: C_9  and  N_10
REMARK    6  A    between atoms: C_11  and  C_13
REMARK    7  A    between atoms: C_24  and  C_26
REMARK    8  A    between atoms: C_26  and  O_27
REMARK    9  A    between atoms: O_27  and  C_28
REMARK   10  A    between atoms: C_38  and  C_39
REMARK                            x       y       z     vdW  Elec       q    Type
REMARK                         _______ _______ _______ _____ _____    ______ ____
ROOT
ATOM      1  C   UNL     1       2.701  -5.104   5.948  0.00  0.00    +0.100 C 
ATOM      2  C   UNL     1       1.844  -6.385   5.833  0.00  0.00    +0.121 C 
ATOM      3  N   UNL     1       2.811  -7.453   5.485  0.00  0.00    -0.297 N 
ATOM      4  C   UNL     1       4.011  -7.143   6.299  0.00  0.00    +0.115 C 
ATOM      5  C   UNL     1       4.121  -5.606   6.257  0.00  0.00    -0.004 C 
ATOM      6  C   UNL     1       5.085  -5.177   5.154  0.00  0.00    -0.010 C 
ATOM      7  C   UNL     1       6.500  -5.638   5.513  0.00  0.00    -0.082 C 
ATOM      8  N   UNL     1       6.899  -5.047   6.796  0.00  0.00    +0.379 N 
ATOM      9  C   UNL     1       6.024  -5.538   7.867  0.00  0.00    -0.082 C 
ATOM     10  C   UNL     1       4.588  -5.073   7.608  0.00  0.00    -0.010 C 
ATOM     11  C   UNL     1       2.639  -8.474   4.623  0.00  0.00    +0.253 C 
ATOM     12  O   UNL     1       3.533  -9.274   4.444  0.00  0.00    -0.272 OA
ATOM     13  H   UNL     1       7.854  -5.303   7.000  0.00  0.00    -0.086 HD
ATOM     14  H   UNL     1       6.828  -4.043   6.738  0.00  0.00    -0.086 HD
ENDROOT
BRANCH   1  16
ATOM     15  N   UNL     1       2.846  -3.006   4.646  0.00  0.00    -0.315 N 
ATOM     16  C   UNL     1       2.684  -4.344   4.647  0.00  0.00    +0.218 C 
ATOM     17  O   UNL     1       2.525  -4.936   3.600  0.00  0.00    -0.275 OA
ATOM     18  H   UNL     1       2.974  -2.533   5.484  0.00  0.00    +0.149 HD
BRANCH  15  19
ATOM     19  C   UNL     1       2.830  -2.267   3.382  0.00  0.00    +0.109 C 
BRANCH  19  20
ATOM     20  C   UNL     1       3.034  -0.776   3.660  0.00  0.00    +0.054 C 
BRANCH  20  26
ATOM     21  C   UNL     1       5.485   1.301  -0.177  0.00  0.00    +0.044 C 
ATOM     22  C   UNL     1       4.191   0.979   0.524  0.00  0.00    -0.050 A 
ATOM     23  C   UNL     1       2.988   1.381  -0.027  0.00  0.00    +0.003 A 
ATOM     24  C   UNL     1       1.800   1.085   0.616  0.00  0.00    +0.004 A 
ATOM     25  C   UNL     1       1.815   0.387   1.809  0.00  0.00    -0.047 A 
ATOM     26  C   UNL     1       3.018  -0.015   2.359  0.00  0.00    -0.043 A 
ATOM     27  C   UNL     1       4.205   0.277   1.714  0.00  0.00    +0.007 A 
ATOM     28  C   UNL     1       0.521   0.066   2.510  0.00  0.00    +0.044 C 
ENDBRANCH  20  26
ENDBRANCH  19  20
ENDBRANCH  15  19
ENDBRANCH   1  16
BRANCH  11  29
ATOM     29  C   UNL     1       1.336  -8.623   3.881  0.00  0.00    +0.324 C 
BRANCH  29  30
ATOM     30  O   UNL     1       1.398  -9.773   3.035  0.00  0.00    -0.479 OA
BRANCH  30  31
ATOM     31  C   UNL     1       0.295 -10.051   2.290  0.00  0.00    +0.164 A 
ATOM     32  C   UNL     1      -0.818  -9.234   2.368  0.00  0.00    +0.049 A 
ATOM     33  C   UNL     1      -1.950  -9.508   1.614  0.00  0.00    +0.004 A 
ATOM     34  C   UNL     1      -1.980 -10.599   0.775  0.00  0.00    +0.012 A 
ATOM     35  C   UNL     1      -0.863 -11.435   0.683  0.00  0.00    +0.024 A 
ATOM     36  C   UNL     1       0.286 -11.157   1.442  0.00  0.00    +0.181 A 
ATOM     37  O   UNL     1       1.365 -11.964   1.349  0.00  0.00    -0.418 OA
ATOM     38  C   UNL     1       1.373 -13.032   0.538  0.00  0.00    +0.338 A 
ATOM     39  O   UNL     1       2.369 -13.731   0.487  0.00  0.00    -0.245 OA
ATOM     40  C   UNL     1       0.256 -13.368  -0.257  0.00  0.00    +0.096 A 
ATOM     41  C   UNL     1      -0.865 -12.605  -0.201  0.00  0.00    -0.033 A 
ATOM     42  C   UNL     1      -2.072 -12.940  -1.038  0.00  0.00    +0.045 C 
ENDBRANCH  30  31
ENDBRANCH  29  30
ENDBRANCH  11  29
TORSDOF 7
