REMARK  Name = ZINC38212293
REMARK  11 active torsions:
REMARK  status: ('A' for Active; 'I' for Inactive)
REMARK    1  A    between atoms: C_1  and  C_2
REMARK    2  A    between atoms: C_2  and  N_3
REMARK    3  A    between atoms: N_6  and  C_9
REMARK    4  A    between atoms: C_9  and  C_10
REMARK    5  A    between atoms: C_11  and  O_36
REMARK    6  A    between atoms: C_17  and  C_32
REMARK    7  A    between atoms: C_18  and  O_21
REMARK    8  A    between atoms: O_21  and  C_22
REMARK    9  A    between atoms: C_25  and  C_28
REMARK   10  A    between atoms: C_28  and  O_30
REMARK   11  A    between atoms: O_30  and  C_31
REMARK                            x       y       z     vdW  Elec       q    Type
REMARK                         _______ _______ _______ _____ _____    ______ ____
ROOT
ATOM      1  C   UNL     1      -5.074  -3.865  -1.100  0.00  0.00    +0.051 A 
ATOM      2  C   UNL     1      -5.097  -4.355  -2.395  0.00  0.00    +0.125 A 
ATOM      3  C   UNL     1      -5.023  -5.725  -2.636  0.00  0.00    +0.046 A 
ATOM      4  C   UNL     1      -4.926  -6.605  -1.596  0.00  0.00    +0.019 A 
ATOM      5  C   UNL     1      -4.900  -6.127  -0.285  0.00  0.00    +0.068 A 
ATOM      6  C   UNL     1      -4.969  -4.745  -0.033  0.00  0.00    +0.147 A 
ATOM      7  O   UNL     1      -4.939  -4.294   1.238  0.00  0.00    -0.447 OA
ATOM      8  C   UNL     1      -4.839  -5.117   2.290  0.00  0.00    +0.254 A 
ATOM      9  C   UNL     1      -4.761  -6.457   2.162  0.00  0.00    +0.222 A 
ATOM     10  C   UNL     1      -4.797  -7.042   0.865  0.00  0.00    +0.235 A 
ATOM     11  O   UNL     1      -4.729  -8.250   0.710  0.00  0.00    -0.283 OA
ENDROOT
BRANCH   8  12
ATOM     12  C   UNL     1      -4.813  -4.521   3.673  0.00  0.00    +0.454 C 
ATOM     13  F   UNL     1      -4.842  -5.547   4.624  0.00  0.00    -0.163 F 
ATOM     14  F   UNL     1      -3.645  -3.768   3.835  0.00  0.00    -0.163 F 
ATOM     15  F   UNL     1      -5.928  -3.694   3.846  0.00  0.00    -0.163 F 
ENDBRANCH   8  12
BRANCH   2  16
ATOM     16  O   UNL     1      -5.194  -3.493  -3.439  0.00  0.00    -0.506 OA
ATOM     17  H   UNL     1      -4.341  -3.188  -3.778  0.00  0.00    +0.292 HD
ENDBRANCH   2  16
BRANCH   1  18
ATOM     18  C   UNL     1      -5.155  -2.380  -0.851  0.00  0.00    +0.126 C 
BRANCH  18  22
ATOM     19  N   UNL     1      -1.672  -0.276   0.292  0.00  0.00    +0.381 N 
ATOM     20  C   UNL     1      -2.420   0.209  -0.875  0.00  0.00    -0.063 C 
ATOM     21  C   UNL     1      -3.847  -0.343  -0.832  0.00  0.00    +0.066 C 
ATOM     22  N   UNL     1      -3.801  -1.812  -0.835  0.00  0.00    -0.301 NA
ATOM     23  C   UNL     1      -3.034  -2.312   0.315  0.00  0.00    +0.066 C 
ATOM     24  C   UNL     1      -1.614  -1.744   0.263  0.00  0.00    -0.063 C 
ATOM     25  H   UNL     1      -2.135   0.025   1.137  0.00  0.00    -0.082 HD
BRANCH  19  27
ATOM     26  C   UNL     1      -0.362   1.789   0.417  0.00  0.00    -0.017 C 
ATOM     27  C   UNL     1      -0.308   0.268   0.261  0.00  0.00    -0.082 C 
ENDBRANCH  19  27
ENDBRANCH  18  22
ENDBRANCH   1  18
BRANCH   9  28
ATOM     28  O   UNL     1      -4.660  -7.245   3.267  0.00  0.00    -0.448 OA
BRANCH  28  29
ATOM     29  C   UNL     1      -3.504  -7.930   3.458  0.00  0.00    +0.129 A 
ATOM     30  C   UNL     1      -2.426  -7.721   2.605  0.00  0.00    +0.047 A 
ATOM     31  C   UNL     1      -1.251  -8.413   2.795  0.00  0.00    +0.018 A 
ATOM     32  C   UNL     1      -1.143  -9.328   3.847  0.00  0.00    +0.059 A 
ATOM     33  C   UNL     1      -2.230  -9.535   4.702  0.00  0.00    +0.018 A 
ATOM     34  C   UNL     1      -3.399  -8.834   4.509  0.00  0.00    +0.047 A 
BRANCH  32  35
ATOM     35  C   UNL     1       0.113 -10.072   4.054  0.00  0.00    +0.339 C 
ATOM     36  O   UNL     1       1.056  -9.891   3.309  0.00  0.00    -0.245 OA
BRANCH  35  37
ATOM     37  O   UNL     1       0.215 -10.953   5.068  0.00  0.00    -0.464 OA
ATOM     38  C   UNL     1       1.460 -11.638   5.209  0.00  0.00    +0.280 C 
ENDBRANCH  35  37
ENDBRANCH  32  35
ENDBRANCH  28  29
ENDBRANCH   9  28
TORSDOF 9
