REMARK  Name = ZINC37913139
REMARK  6 active torsions:
REMARK  status: ('A' for Active; 'I' for Inactive)
REMARK    1  A    between atoms: C_1  and  C_2
REMARK    2  A    between atoms: C_2  and  C_3
REMARK    3  A    between atoms: N_8  and  C_9
REMARK    4  A    between atoms: C_9  and  C_10
REMARK    5  A    between atoms: N_12  and  C_13
REMARK    6  A    between atoms: C_16  and  N_20
REMARK                            x       y       z     vdW  Elec       q    Type
REMARK                         _______ _______ _______ _____ _____    ______ ____
ROOT
ATOM      1  C   UNL     1       0.028   1.138   4.518  0.00  0.00    +0.201 C 
ATOM      2  O   UNL     1      -1.138   0.819   4.620  0.00  0.00    -0.278 OA
ATOM      3  N   UNL     1       0.602   1.904   5.467  0.00  0.00    -0.286 N 
ATOM      4  H   UNL     1       1.552   2.092   5.428  0.00  0.00    +0.155 HD
ENDROOT
BRANCH   3   5
ATOM      5  C   UNL     1      -0.175   2.427   6.510  0.00  0.00    +0.048 A 
ATOM      6  C   UNL     1      -1.538   2.618   6.332  0.00  0.00    +0.026 A 
ATOM      7  C   UNL     1      -2.304   3.133   7.359  0.00  0.00    +0.024 A 
ATOM      8  C   UNL     1      -1.710   3.461   8.571  0.00  0.00    +0.026 A 
ATOM      9  C   UNL     1      -0.346   3.270   8.750  0.00  0.00    +0.039 A 
ATOM     10  C   UNL     1       0.419   2.749   7.724  0.00  0.00    +0.041 A 
ATOM     11 BR   UNL     1       2.275   2.482   7.969  0.00  0.00    -0.048 Br
BRANCH   8  12
ATOM     12  N   UNL     1      -2.485   3.984   9.611  0.00  0.00    -0.358 N 
ATOM     13  H   UNL     1      -3.438   4.117   9.486  0.00  0.00    +0.142 HD
ATOM     14  H   UNL     1      -2.070   4.213  10.458  0.00  0.00    +0.142 HD
ENDBRANCH   8  12
ENDBRANCH   3   5
BRANCH   1  15
ATOM     15  C   UNL     1       0.834   0.678   3.330  0.00  0.00    +0.019 C 
BRANCH  15  20
ATOM     16  C   UNL     1       0.735  -0.487   1.228  0.00  0.00    -0.068 C 
ATOM     17  C   UNL     1       0.840  -2.026   1.179  0.00  0.00    -0.017 C 
ATOM     18  C   UNL     1       0.638  -2.437   2.661  0.00  0.00    -0.020 C 
ATOM     19  C   UNL     1      -0.397  -1.389   3.139  0.00  0.00    -0.078 C 
ATOM     20  N   UNL     1      -0.013  -0.136   2.449  0.00  0.00    +0.387 N 
ATOM     21  H   UNL     1      -0.842   0.384   2.201  0.00  0.00    -0.081 HD
BRANCH  16  23
ATOM     22  C   UNL     1      -0.040   1.553   0.011  0.00  0.00    +0.002 C 
ATOM     23  C   UNL     1      -0.012   0.023  -0.006  0.00  0.00    -0.019 C 
ENDBRANCH  16  23
ENDBRANCH  15  20
ENDBRANCH   1  15
TORSDOF 5
