REMARK  Name = ZINC63743890
REMARK  6 active torsions:
REMARK  status: ('A' for Active; 'I' for Inactive)
REMARK    1  A    between atoms: C_1  and  O_2
REMARK    2  A    between atoms: O_2  and  C_3
REMARK    3  A    between atoms: C_3  and  C_5
REMARK    4  A    between atoms: C_14  and  N_16
REMARK    5  A    between atoms: N_19  and  C_20
REMARK    6  A    between atoms: C_23  and  C_26
REMARK                            x       y       z     vdW  Elec       q    Type
REMARK                         _______ _______ _______ _____ _____    ______ ____
ROOT
ATOM      1  N   UNL     1      -1.409  -2.975   0.142  0.00  0.00    -0.283 N 
ATOM      2  C   UNL     1      -2.199  -2.800  -0.936  0.00  0.00    +0.305 C 
ATOM      3  O   UNL     1      -1.703  -2.601  -2.028  0.00  0.00    -0.252 OA
ATOM      4  N   UNL     1      -3.540  -2.844  -0.803  0.00  0.00    -0.269 N 
ATOM      5  H   UNL     1      -1.805  -3.134   1.013  0.00  0.00    +0.152 HD
ATOM      6  H   UNL     1      -3.935  -3.069   0.054  0.00  0.00    +0.156 HD
ENDROOT
BRANCH   1  15
ATOM      7  C   UNL     1       0.679  -2.092   1.097  0.00  0.00    +0.067 C 
ATOM      8  C   UNL     1       1.273  -2.703   2.091  0.00  0.00    -0.044 C 
ATOM      9  C   UNL     1       2.046  -2.014   3.216  0.00  0.00    +0.032 C 
ATOM     10  C   UNL     1       2.302  -3.081   4.285  0.00  0.00    +0.004 C 
ATOM     11  C   UNL     1       3.125  -4.241   3.745  0.00  0.00    +0.002 C 
ATOM     12  C   UNL     1       2.715  -4.658   2.335  0.00  0.00    +0.018 C 
ATOM     13  C   UNL     1       1.265  -4.239   2.081  0.00  0.00    +0.075 C 
ATOM     14  S   UNL     1       0.809  -4.577   0.332  0.00  0.00    -0.126 S 
ATOM     15  C   UNL     1       0.048  -2.927  -0.002  0.00  0.00    +0.170 C 
BRANCH   7  16
ATOM     16  C   UNL     1       0.619  -0.625   1.050  0.00  0.00    +0.338 C 
ATOM     17  O   UNL     1       1.128   0.033   1.937  0.00  0.00    -0.245 OA
BRANCH  16  19
ATOM     18  C   UNL     1      -0.020   1.421   0.042  0.00  0.00    +0.280 C 
ATOM     19  O   UNL     1       0.000  -0.008   0.024  0.00  0.00    -0.465 OA
ENDBRANCH  16  19
ENDBRANCH   7  16
ENDBRANCH   1  15
BRANCH   4  20
ATOM     20  C   UNL     1      -4.361  -2.567  -1.901  0.00  0.00    +0.035 A 
ATOM     21  C   UNL     1      -5.568  -1.905  -1.718  0.00  0.00    +0.024 A 
ATOM     22  C   UNL     1      -6.376  -1.632  -2.804  0.00  0.00    +0.008 A 
ATOM     23  C   UNL     1      -5.985  -2.016  -4.073  0.00  0.00    -0.021 A 
ATOM     24  C   UNL     1      -4.784  -2.676  -4.259  0.00  0.00    +0.008 A 
ATOM     25  C   UNL     1      -3.968  -2.947  -3.178  0.00  0.00    +0.024 A 
BRANCH  23  26
ATOM     26  C   UNL     1      -6.869  -1.716  -5.256  0.00  0.00    +0.133 C 
ATOM     27  C   UNL     1      -7.614  -2.963  -5.679  0.00  0.00    +0.012 C 
ATOM     28  C   UNL     1      -7.229  -3.215  -6.951  0.00  0.00    -0.002 A 
ATOM     29  C   UNL     1      -7.588  -4.269  -7.908  0.00  0.00    +0.029 A 
ATOM     30  C   UNL     1      -7.025  -4.258  -9.139  0.00  0.00    +0.042 A 
ATOM     31  C   UNL     1      -6.109  -3.266  -9.521  0.00  0.00    +0.022 A 
ATOM     32  C   UNL     1      -5.731  -2.267  -8.697  0.00  0.00    +0.027 A 
ATOM     33  C   UNL     1      -6.260  -2.181  -7.380  0.00  0.00    +0.043 A 
ATOM     34  N   UNL     1      -6.054  -1.321  -6.410  0.00  0.00    -0.374 N 
ATOM     35 CL   UNL     1      -7.447  -5.502 -10.273  0.00  0.00    -0.084 Cl
ATOM     36  H   UNL     1      -5.462  -0.554  -6.448  0.00  0.00    +0.161 HD
ENDBRANCH  23  26
ENDBRANCH   4  20
TORSDOF 5
