REMARK  Name = ZINC66371937
REMARK  3 active torsions:
REMARK  status: ('A' for Active; 'I' for Inactive)
REMARK    1  A    between atoms: C_1  and  C_2
REMARK    2  A    between atoms: N_8  and  C_9
REMARK    3  A    between atoms: C_10  and  N_12
REMARK                            x       y       z     vdW  Elec       q    Type
REMARK                         _______ _______ _______ _____ _____    ______ ____
ROOT
ATOM      1  C   UNL     1      -0.027   1.503   0.010  0.00  0.00    +0.088 C 
ATOM      2  C   UNL     1      -0.002  -0.004   0.002  0.00  0.00    +0.130 A 
ATOM      3  N   UNL     1       0.005  -0.629  -1.155  0.00  0.00    -0.213 NA
ATOM      4  C   UNL     1       0.027  -1.959  -1.209  0.00  0.00    +0.163 A 
ATOM      5  C   UNL     1       0.043  -2.688  -0.004  0.00  0.00    +0.079 A 
ATOM      6  C   UNL     1       0.064  -4.057  -0.348  0.00  0.00    +0.148 A 
ATOM      7  N   UNL     1       0.061  -4.156  -1.647  0.00  0.00    -0.177 NA
ATOM      8  N   UNL     1       0.038  -2.877  -2.218  0.00  0.00    -0.249 N 
ATOM      9  C   UNL     1       0.029  -2.576  -3.651  0.00  0.00    +0.174 C 
ATOM     10  C   UNL     1       0.035  -1.972   1.209  0.00  0.00    +0.140 A 
ATOM     11  N   UNL     1       0.018  -0.644   1.158  0.00  0.00    -0.217 NA
ENDROOT
BRANCH  10  12
ATOM     12  N   UNL     1       0.050  -2.634   2.422  0.00  0.00    -0.284 N 
ATOM     13  C   UNL     1      -0.028  -4.088   2.587  0.00  0.00    +0.117 C 
ATOM     14  C   UNL     1       0.025  -4.325   4.105  0.00  0.00    +0.056 C 
ATOM     15  C   UNL     1       0.132  -2.940   4.702  0.00  0.00    -0.023 A 
ATOM     16  C   UNL     1       0.147  -2.014   3.671  0.00  0.00    +0.038 A 
ATOM     17  C   UNL     1       0.246  -0.656   3.980  0.00  0.00    +0.025 A 
ATOM     18  C   UNL     1       0.333  -0.246   5.293  0.00  0.00    +0.017 A 
ATOM     19  C   UNL     1       0.322  -1.178   6.316  0.00  0.00    +0.018 A 
ATOM     20  C   UNL     1       0.215  -2.525   6.017  0.00  0.00    +0.020 A 
ATOM     21 BR   UNL     1       0.442  -0.612   8.116  0.00  0.00    -0.050 Br
ENDBRANCH  10  12
TORSDOF 1
