REMARK  Name = ZINC08790270
REMARK  6 active torsions:
REMARK  status: ('A' for Active; 'I' for Inactive)
REMARK    1  A    between atoms: C_1  and  C_2
REMARK    2  A    between atoms: C_16  and  C_18
REMARK    3  A    between atoms: C_18  and  C_19
REMARK    4  A    between atoms: N_24  and  C_27
REMARK    5  A    between atoms: C_27  and  C_28
REMARK    6  A    between atoms: C_28  and  C_29
REMARK                            x       y       z     vdW  Elec       q    Type
REMARK                         _______ _______ _______ _____ _____    ______ ____
ROOT
ATOM      1  C   UNL     1       2.967   4.426  -0.006  0.00  0.00    +0.047 C 
ATOM      2  C   UNL     1       1.464   4.531   0.007  0.00  0.00    -0.011 A 
ATOM      3  C   UNL     1       0.861   5.773   0.018  0.00  0.00    +0.046 A 
ATOM      4  C   UNL     1      -0.519   5.879   0.030  0.00  0.00    +0.020 A 
ATOM      5  C   UNL     1      -1.298   4.735   0.034  0.00  0.00    +0.006 A 
ATOM      6  C   UNL     1      -0.700   3.495   0.024  0.00  0.00    -0.027 A 
ATOM      7  C   UNL     1       0.687   3.375   0.011  0.00  0.00    +0.040 A 
ATOM      8  N   UNL     1       1.055   2.028   0.003  0.00  0.00    -0.286 N 
ATOM      9  C   UNL     1      -0.014   1.209   0.009  0.00  0.00    +0.211 C 
ATOM     10  O   UNL     1       0.002  -0.004   0.002  0.00  0.00    -0.277 OA
ATOM     11  C   UNL     1      -1.233   2.090   0.018  0.00  0.00    +0.050 C 
ATOM     12  C   UNL     1      -2.112   1.820   1.246  0.00  0.00    +0.088 C 
ATOM     13  C   UNL     1      -3.567   2.009   0.733  0.00  0.00    +0.073 C 
ATOM     14  C   UNL     1      -3.417   2.383  -0.757  0.00  0.00    -0.049 C 
ATOM     15  C   UNL     1      -4.159   0.623   0.843  0.00  0.00    +0.224 C 
ATOM     16  O   UNL     1      -5.292   0.319   0.536  0.00  0.00    -0.275 OA
ATOM     17  N   UNL     1      -3.239  -0.216   1.333  0.00  0.00    -0.241 N 
ATOM     18  C   UNL     1      -2.056   0.349   1.596  0.00  0.00    +0.225 C 
ATOM     19  O   UNL     1      -1.089  -0.227   2.046  0.00  0.00    -0.275 OA
ATOM     20 CL   UNL     1       1.837   7.208   0.013  0.00  0.00    -0.083 Cl
ATOM     21  H   UNL     1       1.974   1.718  -0.006  0.00  0.00    +0.155 HD
ATOM     22  N   UNL     1      -2.100   1.856  -1.123  0.00  0.00    +0.394 N 
ATOM     23  H   UNL     1      -2.162   0.851  -1.322  0.00  0.00    -0.083 HD
ATOM     24  H   UNL     1      -1.739   2.347  -1.949  0.00  0.00    -0.083 HD
ENDROOT
BRANCH  14  25
ATOM     25  C   UNL     1      -4.528   1.732  -1.583  0.00  0.00    +0.080 C 
BRANCH  25  26
ATOM     26  C   UNL     1      -4.390   2.147  -3.025  0.00  0.00    +0.209 C 
ATOM     27  O   UNL     1      -3.492   2.890  -3.359  0.00  0.00    -0.276 OA
ATOM     28  N   UNL     1      -5.266   1.692  -3.944  0.00  0.00    -0.329 N 
ATOM     29  H   UNL     1      -5.984   1.098  -3.676  0.00  0.00    +0.145 HD
ATOM     30  H   UNL     1      -5.177   1.960  -4.872  0.00  0.00    +0.145 HD
ENDBRANCH  25  26
ENDBRANCH  14  25
BRANCH  17  31
ATOM     31  C   UNL     1      -3.506  -1.639   1.561  0.00  0.00    +0.121 C 
BRANCH  31  32
ATOM     32  C   UNL     1      -3.158  -2.432   0.300  0.00  0.00    +0.054 C 
BRANCH  32  33
ATOM     33  C   UNL     1      -3.432  -3.895   0.535  0.00  0.00    -0.046 A 
ATOM     34  C   UNL     1      -2.437  -4.712   1.037  0.00  0.00    +0.004 A 
ATOM     35  C   UNL     1      -2.691  -6.053   1.257  0.00  0.00    +0.000 A 
ATOM     36  C   UNL     1      -3.935  -6.579   0.965  0.00  0.00    +0.000 A 
ATOM     37  C   UNL     1      -4.928  -5.762   0.457  0.00  0.00    +0.000 A 
ATOM     38  C   UNL     1      -4.677  -4.420   0.242  0.00  0.00    +0.004 A 
ENDBRANCH  32  33
ENDBRANCH  31  32
ENDBRANCH  17  31
TORSDOF 5
