REMARK  Name = ZINC39226945
REMARK  7 active torsions:
REMARK  status: ('A' for Active; 'I' for Inactive)
REMARK    1  A    between atoms: C_1  and  O_2
REMARK    2  A    between atoms: O_2  and  C_3
REMARK    3  A    between atoms: N_13  and  C_16
REMARK    4  A    between atoms: C_16  and  C_17
REMARK    5  A    between atoms: N_19  and  C_20
REMARK    6  A    between atoms: C_25  and  S_26
REMARK    7  A    between atoms: S_26  and  C_27
REMARK                            x       y       z     vdW  Elec       q    Type
REMARK                         _______ _______ _______ _____ _____    ______ ____
ROOT
ATOM      1  C   UNL     1       2.858  -0.459   2.077  0.00  0.00    +0.124 A 
ATOM      2  C   UNL     1       3.881   0.213   2.742  0.00  0.00    +0.046 A 
ATOM      3  C   UNL     1       4.833  -0.487   3.427  0.00  0.00    +0.018 A 
ATOM      4  C   UNL     1       4.779  -1.884   3.460  0.00  0.00    +0.059 A 
ATOM      5  C   UNL     1       3.745  -2.569   2.797  0.00  0.00    +0.135 A 
ATOM      6  C   UNL     1       2.787  -1.844   2.108  0.00  0.00    +0.092 A 
ATOM      7  O   UNL     1       3.672  -3.920   2.837  0.00  0.00    -0.485 OA
ATOM      8  C   UNL     1       4.858  -4.662   3.117  0.00  0.00    +0.114 C 
ATOM      9  C   UNL     1       5.844  -4.517   1.956  0.00  0.00    +0.030 C 
ATOM     10  C   UNL     1       5.229  -5.128   0.694  0.00  0.00    -0.074 C 
ATOM     11  N   UNL     1       4.942  -6.549   0.923  0.00  0.00    +0.386 N 
ATOM     12  C   UNL     1       3.942  -6.691   1.988  0.00  0.00    -0.074 C 
ATOM     13  C   UNL     1       4.508  -6.141   3.300  0.00  0.00    +0.030 C 
ATOM     14  C   UNL     1       5.505  -4.131   4.403  0.00  0.00    +0.127 C 
ATOM     15  C   UNL     1       5.799  -2.658   4.183  0.00  0.00    +0.170 C 
ATOM     16  O   UNL     1       6.824  -2.145   4.583  0.00  0.00    -0.292 OA
ATOM     17  H   UNL     1       5.791  -7.022   1.194  0.00  0.00    -0.081 HD
ENDROOT
BRANCH   1  19
ATOM     18  C   UNL     1       2.049   1.671   1.403  0.00  0.00    +0.277 C 
ATOM     19  O   UNL     1       1.920   0.248   1.397  0.00  0.00    -0.495 OA
ENDBRANCH   1  19
BRANCH  11  20
ATOM     20  C   UNL     1       4.425  -7.148  -0.315  0.00  0.00    +0.019 C 
BRANCH  20  21
ATOM     21  C   UNL     1       4.246  -8.631  -0.118  0.00  0.00    +0.201 C 
ATOM     22  O   UNL     1       4.521  -9.139   0.948  0.00  0.00    -0.278 OA
ATOM     23  N   UNL     1       3.779  -9.393  -1.127  0.00  0.00    -0.286 N 
ATOM     24  H   UNL     1       3.488  -8.978  -1.954  0.00  0.00    +0.155 HD
BRANCH  23  25
ATOM     25  C   UNL     1       3.714 -10.785  -0.981  0.00  0.00    +0.047 A 
ATOM     26  C   UNL     1       3.528 -11.345   0.274  0.00  0.00    +0.024 A 
ATOM     27  C   UNL     1       3.464 -12.719   0.415  0.00  0.00    +0.002 A 
ATOM     28  C   UNL     1       3.584 -13.539  -0.692  0.00  0.00    +0.001 A 
ATOM     29  C   UNL     1       3.769 -12.990  -1.947  0.00  0.00    +0.017 A 
ATOM     30  C   UNL     1       3.829 -11.612  -2.099  0.00  0.00    +0.034 A 
BRANCH  30  31
ATOM     31  S   UNL     1       4.059 -10.908  -3.699  0.00  0.00    -0.088 S 
BRANCH  31  32
ATOM     32  C   UNL     1       4.104 -12.303  -4.775  0.00  0.00    +0.013 A 
ATOM     33  C   UNL     1       2.921 -12.848  -5.258  0.00  0.00    +0.015 A 
ATOM     34  C   UNL     1       2.960 -13.941  -6.101  0.00  0.00    +0.001 A 
ATOM     35  C   UNL     1       4.175 -14.492  -6.465  0.00  0.00    +0.000 A 
ATOM     36  C   UNL     1       5.354 -13.952  -5.986  0.00  0.00    +0.001 A 
ATOM     37  C   UNL     1       5.323 -12.856  -5.147  0.00  0.00    +0.015 A 
ENDBRANCH  31  32
ENDBRANCH  30  31
ENDBRANCH  23  25
ENDBRANCH  20  21
ENDBRANCH  11  20
TORSDOF 6
