REMARK  Name = ZINC35926703
REMARK  6 active torsions:
REMARK  status: ('A' for Active; 'I' for Inactive)
REMARK    1  A    between atoms: C_4  and  O_7
REMARK    2  A    between atoms: O_7  and  C_8
REMARK    3  A    between atoms: C_8  and  C_9
REMARK    4  A    between atoms: C_24  and  C_26
REMARK    5  A    between atoms: C_26  and  N_27
REMARK    6  A    between atoms: N_30  and  C_33
REMARK                            x       y       z     vdW  Elec       q    Type
REMARK                         _______ _______ _______ _____ _____    ______ ____
ROOT
ATOM      1  C   UNL     1       4.932  -2.615  -0.061  0.00  0.00    +0.253 C 
ATOM      2  O   UNL     1       5.883  -1.863  -0.067  0.00  0.00    -0.272 OA
ATOM      3  N   UNL     1       5.128  -3.949  -0.070  0.00  0.00    -0.297 N 
ATOM      4  C   UNL     1       6.508  -4.434  -0.081  0.00  0.00    +0.109 C 
ATOM      5  C   UNL     1       6.895  -4.778   1.343  0.00  0.00    +0.038 C 
ATOM      6  C   UNL     1       6.481  -6.213   1.676  0.00  0.00    +0.109 C 
ATOM      7  N   UNL     1       5.154  -6.556   1.144  0.00  0.00    -0.300 N 
ATOM      8  C   UNL     1       4.011  -5.662   1.215  0.00  0.00    +0.127 C 
ATOM      9  C   UNL     1       3.980  -4.787  -0.063  0.00  0.00    +0.127 C 
ATOM     10  C   UNL     1       4.986  -7.779   0.551  0.00  0.00    +0.199 A 
ATOM     11  N   UNL     1       3.769  -8.116   0.046  0.00  0.00    -0.295 N 
ATOM     12  H   UNL     1       3.027  -7.493   0.107  0.00  0.00    +0.172 HD
ATOM     13  C   UNL     1       3.596  -9.319  -0.541  0.00  0.00    +0.253 A 
ATOM     14  O   UNL     1       2.511  -9.638  -0.999  0.00  0.00    -0.268 OA
ATOM     15  C   UNL     1       4.691 -10.199  -0.613  0.00  0.00    +0.094 A 
ATOM     16  C   UNL     1       5.888  -9.806  -0.089  0.00  0.00    +0.064 A 
ATOM     17  N   UNL     1       6.009  -8.607   0.474  0.00  0.00    -0.219 NA
ENDROOT
BRANCH   1  18
ATOM     18  C   UNL     1       3.531  -2.060  -0.044  0.00  0.00    +0.324 C 
BRANCH  18  19
ATOM     19  O   UNL     1       3.586  -0.632  -0.037  0.00  0.00    -0.483 OA
BRANCH  19  23
ATOM     20  C   UNL     1      -0.017   1.378   0.010  0.00  0.00    +0.000 A 
ATOM     21  C   UNL     1       1.170   2.088   0.002  0.00  0.00    +0.004 A 
ATOM     22  C   UNL     1       2.377   1.417  -0.013  0.00  0.00    +0.045 A 
ATOM     23  C   UNL     1       2.399   0.030  -0.021  0.00  0.00    +0.121 A 
ATOM     24  C   UNL     1       1.207  -0.680  -0.013  0.00  0.00    +0.045 A 
ATOM     25  C   UNL     1       0.002  -0.004   0.002  0.00  0.00    +0.004 A 
ENDBRANCH  19  23
ENDBRANCH  18  19
ENDBRANCH   1  18
BRANCH  16  26
ATOM     26  C   UNL     1       7.077 -10.730  -0.154  0.00  0.00    +0.140 C 
BRANCH  26  27
ATOM     27  N   UNL     1       8.113 -10.136  -1.010  0.00  0.00    -0.300 NA
ATOM     28  C   UNL     1       7.662 -10.057  -2.406  0.00  0.00    +0.066 C 
ATOM     29  C   UNL     1       8.743  -9.379  -3.251  0.00  0.00    -0.063 C 
ATOM     30  N   UNL     1       9.988 -10.153  -3.164  0.00  0.00    +0.383 N 
ATOM     31  C   UNL     1      10.440 -10.202  -1.767  0.00  0.00    -0.063 C 
ATOM     32  C   UNL     1       9.373 -10.886  -0.910  0.00  0.00    +0.066 C 
ATOM     33  H   UNL     1       9.826 -11.091  -3.498  0.00  0.00    -0.081 HD
BRANCH  30  34
ATOM     34  C   UNL     1      11.021  -9.512  -3.990  0.00  0.00    -0.068 C 
ATOM     35  C   UNL     1      10.552  -9.462  -5.445  0.00  0.00    -0.015 C 
ATOM     36  C   UNL     1      11.627  -8.794  -6.305  0.00  0.00    -0.002 C 
ATOM     37  C   UNL     1      12.925  -9.600  -6.215  0.00  0.00    -0.000 C 
ATOM     38  C   UNL     1      13.394  -9.650  -4.759  0.00  0.00    -0.002 C 
ATOM     39  C   UNL     1      12.319 -10.317  -3.900  0.00  0.00    -0.015 C 
ENDBRANCH  30  34
ENDBRANCH  26  27
ENDBRANCH  16  26
TORSDOF 6
