REMARK  Name = ZINC53096506
REMARK  8 active torsions:
REMARK  status: ('A' for Active; 'I' for Inactive)
REMARK    1  A    between atoms: C_1  and  C_2
REMARK    2  A    between atoms: C_2  and  O_3
REMARK    3  A    between atoms: O_3  and  C_4
REMARK    4  A    between atoms: C_7  and  C_11
REMARK    5  A    between atoms: C_11  and  N_12
REMARK    6  A    between atoms: N_12  and  C_13
REMARK    7  A    between atoms: C_13  and  C_19
REMARK    8  A    between atoms: C_19  and  O_20
REMARK                            x       y       z     vdW  Elec       q    Type
REMARK                         _______ _______ _______ _____ _____    ______ ____
ROOT
ATOM      1  C   UNL     1       1.305  -6.127  -1.886  0.00  0.00    -0.046 C 
ENDROOT
BRANCH   1   5
ATOM      2  C   UNL     1       1.658  -1.908  -1.295  0.00  0.00    +0.148 A 
ATOM      3  C   UNL     1       2.633  -2.763  -0.802  0.00  0.00    +0.061 A 
ATOM      4  C   UNL     1       2.516  -4.127  -0.994  0.00  0.00    +0.020 A 
ATOM      5  C   UNL     1       1.429  -4.640  -1.678  0.00  0.00    -0.062 A 
ATOM      6  C   UNL     1       0.456  -3.790  -2.171  0.00  0.00    +0.020 A 
ATOM      7  C   UNL     1       0.565  -2.426  -1.976  0.00  0.00    +0.061 A 
ATOM      8 BR   UNL     1      -0.770  -1.265  -2.644  0.00  0.00    -0.046 Br
ATOM      9 BR   UNL     1       4.121  -2.063   0.132  0.00  0.00    -0.046 Br
BRANCH   2  10
ATOM     10  O   UNL     1       1.770  -0.567  -1.107  0.00  0.00    -0.490 OA
BRANCH  10  12
ATOM     11  C   UNL     1       1.413   1.486   0.118  0.00  0.00    +0.048 C 
ATOM     12  C   UNL     1       1.187  -0.027   0.081  0.00  0.00    +0.226 C 
ENDBRANCH  10  12
ENDBRANCH   2  10
ENDBRANCH   1   5
BRANCH   1  13
ATOM     13  N   UNL     1       0.567  -6.719  -0.763  0.00  0.00    +0.387 N 
ATOM     14  H   UNL     1       1.050  -6.518   0.100  0.00  0.00    -0.085 HD
ATOM     15  H   UNL     1      -0.363  -6.327  -0.727  0.00  0.00    -0.085 HD
BRANCH  13  16
ATOM     16  C   UNL     1       0.477  -8.174  -0.947  0.00  0.00    -0.044 C 
ATOM     17  C   UNL     1      -0.361  -8.780   0.179  0.00  0.00    -0.010 C 
ATOM     18  C   UNL     1       0.298  -8.476   1.526  0.00  0.00    -0.001 C 
ATOM     19  C   UNL     1       1.704  -9.081   1.554  0.00  0.00    -0.000 C 
ATOM     20  C   UNL     1       2.542  -8.474   0.427  0.00  0.00    -0.001 C 
ATOM     21  C   UNL     1       1.883  -8.778  -0.920  0.00  0.00    -0.010 C 
BRANCH  16  22
ATOM     22  C   UNL     1      -0.182  -8.477  -2.294  0.00  0.00    +0.143 C 
BRANCH  22  23
ATOM     23  O   UNL     1      -1.441  -7.806  -2.370  0.00  0.00    -0.396 OA
ATOM     24  H   UNL     1      -1.917  -7.954  -3.199  0.00  0.00    +0.209 HD
ENDBRANCH  22  23
ENDBRANCH  16  22
ENDBRANCH  13  16
ENDBRANCH   1  13
TORSDOF 7
