REMARK  Name = ZINC50249728
REMARK  4 active torsions:
REMARK  status: ('A' for Active; 'I' for Inactive)
REMARK    1  A    between atoms: C_5  and  N_10
REMARK    2  A    between atoms: C_6  and  N_7
REMARK    3  A    between atoms: C_13  and  C_16
REMARK    4  A    between atoms: C_16  and  N_17
REMARK                            x       y       z     vdW  Elec       q    Type
REMARK                         _______ _______ _______ _____ _____    ______ ____
ROOT
ATOM      1  C   UNL     1      -0.016   1.361   0.009  0.00  0.00    +0.050 A 
ATOM      2  C   UNL     1       1.185   2.069   0.002  0.00  0.00    +0.067 A 
ATOM      3  C   UNL     1       2.419   1.377  -0.014  0.00  0.00    +0.080 A 
ATOM      4  C   UNL     1       2.419  -0.017  -0.021  0.00  0.00    +0.054 A 
ATOM      5  C   UNL     1       1.213  -0.699  -0.013  0.00  0.00    +0.062 A 
ATOM      6  C   UNL     1       0.002  -0.004   0.002  0.00  0.00    +0.148 A 
ATOM      7  N   UNL     1       3.574   2.089  -0.021  0.00  0.00    -0.237 NA
ATOM      8  C   UNL     1       3.572   3.387  -0.015  0.00  0.00    +0.199 A 
ATOM      9  N   UNL     1       2.435   4.132   0.000  0.00  0.00    -0.313 N 
ATOM     10  H   UNL     1       2.496   5.100   0.004  0.00  0.00    +0.170 HD
ATOM     11  C   UNL     1       1.220   3.537   0.009  0.00  0.00    +0.259 A 
ATOM     12  O   UNL     1       0.195   4.193   0.023  0.00  0.00    -0.267 OA
ENDROOT
BRANCH   5  13
ATOM     13  N   UNL     1       1.209  -2.091  -0.021  0.00  0.00    -0.328 N 
ATOM     14  C   UNL     1       1.201  -2.943  -1.224  0.00  0.00    +0.105 C 
ATOM     15  C   UNL     1       1.812  -4.289  -0.760  0.00  0.00    +0.022 C 
ATOM     16  C   UNL     1       1.234  -4.416   0.674  0.00  0.00    -0.010 C 
ATOM     17  C   UNL     1       1.218  -2.954   1.169  0.00  0.00    +0.107 C 
BRANCH  16  18
ATOM     18  C   UNL     1       2.146  -5.275   1.551  0.00  0.00    -0.081 C 
BRANCH  18  19
ATOM     19  N   UNL     1       2.143  -6.658   1.055  0.00  0.00    +0.378 N 
ATOM     20  H   UNL     1       2.744  -7.225   1.634  0.00  0.00    -0.090 HD
ATOM     21  H   UNL     1       1.203  -7.024   1.087  0.00  0.00    -0.090 HD
ATOM     22  H   UNL     1       2.478  -6.675   0.103  0.00  0.00    -0.090 HD
ENDBRANCH  18  19
ENDBRANCH  16  18
ENDBRANCH   5  13
BRANCH   6  23
ATOM     23  N   UNL     1      -1.274  -0.755   0.011  0.00  0.00    +0.058 N 
ATOM     24  O   UNL     1      -2.326  -0.159   0.024  0.00  0.00    -0.126 OA
ATOM     25  O   UNL     1      -1.264  -1.964   0.004  0.00  0.00    -0.126 OA
ENDBRANCH   6  23
TORSDOF 4
