REMARK  Name = ZINC15404670
REMARK  9 active torsions:
REMARK  status: ('A' for Active; 'I' for Inactive)
REMARK    1  A    between atoms: C_1  and  C_2
REMARK    2  A    between atoms: C_4  and  S_25
REMARK    3  A    between atoms: C_6  and  N_9
REMARK    4  A    between atoms: C_7  and  C_8
REMARK    5  A    between atoms: C_10  and  C_12
REMARK    6  A    between atoms: C_12  and  N_55
REMARK    7  A    between atoms: C_13  and  N_55
REMARK    8  A    between atoms: C_14  and  N_55
REMARK    9  A    between atoms: S_25  and  N_28
REMARK                            x       y       z     vdW  Elec       q    Type
REMARK                         _______ _______ _______ _____ _____    ______ ____
ROOT
ATOM      1  N   UNL     1      -0.540   6.636   0.923  0.00  0.00    -0.287 N 
ATOM      2  C   UNL     1       0.249   5.584   1.220  0.00  0.00    +0.201 C 
ATOM      3  O   UNL     1       1.077   5.676   2.101  0.00  0.00    -0.278 OA
ATOM      4  H   UNL     1      -1.243   6.543   0.261  0.00  0.00    +0.155 HD
ENDROOT
BRANCH   1  10
ATOM      5  C   UNL     1      -0.603  11.550   0.790  0.00  0.00    +0.044 C 
ATOM      6  C   UNL     1      -0.369  10.258   1.530  0.00  0.00    -0.044 A 
ATOM      7  C   UNL     1       0.040  10.283   2.851  0.00  0.00    +0.032 A 
ATOM      8  C   UNL     1       0.256   9.100   3.533  0.00  0.00    +0.107 A 
ATOM      9  C   UNL     1       0.065   7.889   2.897  0.00  0.00    +0.052 A 
ATOM     10  C   UNL     1      -0.345   7.861   1.570  0.00  0.00    +0.038 A 
ATOM     11  C   UNL     1      -0.555   9.051   0.886  0.00  0.00    -0.026 A 
ATOM     12  C   UNL     1      -0.994   9.025  -0.556  0.00  0.00    +0.046 C 
BRANCH   8  13
ATOM     13  S   UNL     1       0.776   9.138   5.216  0.00  0.00    +0.056 S 
ATOM     14  O   UNL     1       0.357  10.389   5.743  0.00  0.00    -0.153 OA
ATOM     15  O   UNL     1       0.382   7.899   5.790  0.00  0.00    -0.153 OA
BRANCH  13  16
ATOM     16  N   UNL     1       2.432   9.154   5.217  0.00  0.00    -0.204 NA
ATOM     17  H   UNL     1       2.913   9.593   5.936  0.00  0.00    +0.144 HD
ATOM     18  H   UNL     1       2.922   8.726   4.498  0.00  0.00    +0.144 HD
ENDBRANCH  13  16
ENDBRANCH   8  13
ENDBRANCH   1  10
BRANCH   2  19
ATOM     19  C   UNL     1       0.102   4.293   0.456  0.00  0.00    +0.019 C 
BRANCH  19  21
ATOM     20  C   UNL     1       0.673   2.822   2.292  0.00  0.00    -0.095 C 
ATOM     21  N   UNL     1       1.094   3.324   0.967  0.00  0.00    +0.388 N 
ATOM     22  H   UNL     1       2.002   3.793   1.062  0.00  0.00    -0.081 HD
BRANCH  21  23
ATOM     23  C   UNL     1       1.232   2.196   0.021  0.00  0.00    -0.037 C 
ATOM     24  C   UNL     1      -0.132   1.571  -0.262  0.00  0.00    -0.010 C 
ATOM     25  C   UNL     1       0.026   0.562  -1.406  0.00  0.00    +0.003 C 
ATOM     26  C   UNL     1       0.299   1.334  -2.695  0.00  0.00    +0.035 C 
ATOM     27  C   UNL     1       1.429   2.311  -2.498  0.00  0.00    -0.046 A 
ATOM     28  C   UNL     1       1.855   2.710  -1.251  0.00  0.00    -0.058 A 
ATOM     29  C   UNL     1       2.900   3.618  -1.139  0.00  0.00    +0.002 A 
ATOM     30  C   UNL     1       3.514   4.122  -2.267  0.00  0.00    +0.000 A 
ATOM     31  C   UNL     1       3.090   3.718  -3.518  0.00  0.00    +0.000 A 
ATOM     32  C   UNL     1       2.052   2.816  -3.632  0.00  0.00    +0.004 A 
ENDBRANCH  21  23
ENDBRANCH  19  21
ENDBRANCH   2  19
TORSDOF 6
