REMARK  Name = ZINC24215460
REMARK  7 active torsions:
REMARK  status: ('A' for Active; 'I' for Inactive)
REMARK    1  A    between atoms: C_1  and  C_2
REMARK    2  A    between atoms: C_3  and  C_14
REMARK    3  A    between atoms: C_4  and  C_13
REMARK    4  A    between atoms: N_5  and  C_7
REMARK    5  A    between atoms: N_21  and  C_22
REMARK    6  A    between atoms: C_22  and  C_23
REMARK    7  A    between atoms: N_28  and  C_29
REMARK                            x       y       z     vdW  Elec       q    Type
REMARK                         _______ _______ _______ _____ _____    ______ ____
ROOT
ATOM      1  C   UNL     1       3.627   0.768  -0.024  0.00  0.00    +0.054 C 
ATOM      2  C   UNL     1       4.121   0.418  -1.399  0.00  0.00    +0.204 C 
ATOM      3  O   UNL     1       3.571   0.916  -2.358  0.00  0.00    -0.277 OA
ATOM      4  N   UNL     1       5.141  -0.418  -1.611  0.00  0.00    -0.318 N 
ATOM      5  C   UNL     1       5.846  -1.100  -0.529  0.00  0.00    +0.085 C 
ATOM      6  C   UNL     1       5.572  -0.395   0.801  0.00  0.00    -0.058 C 
ATOM      7  N   UNL     1       4.119  -0.216   0.950  0.00  0.00    +0.397 N 
ATOM      8  H   UNL     1       5.445  -0.583  -2.655  0.00  0.00    +0.149 HD
ATOM      9  H   UNL     1       3.625  -1.179   0.751  0.00  0.00    -0.079 HD
ENDROOT
BRANCH   1  12
ATOM     10  C   UNL     1       1.766  -1.797  -0.037  0.00  0.00    +0.068 C 
ATOM     11  C   UNL     1       1.298  -0.365  -0.024  0.00  0.00    +0.063 A 
ATOM     12  C   UNL     1       2.120   0.767  -0.018  0.00  0.00    -0.009 A 
ATOM     13  C   UNL     1       1.323   1.861  -0.006  0.00  0.00    +0.044 A 
ATOM     14  N   UNL     1       0.040   1.435  -0.005  0.00  0.00    -0.237 N 
ATOM     15  N   UNL     1       0.051   0.034  -0.016  0.00  0.00    -0.171 NA
ATOM     16  C   UNL     1       1.783   3.295   0.003  0.00  0.00    +0.066 C 
BRANCH  14  17
ATOM     17  C   UNL     1      -1.100   2.250   0.000  0.00  0.00    +0.066 A 
ATOM     18  C   UNL     1      -1.096   3.447   0.703  0.00  0.00    +0.028 A 
ATOM     19  C   UNL     1      -2.219   4.252   0.702  0.00  0.00    +0.002 A 
ATOM     20  C   UNL     1      -3.351   3.860   0.011  0.00  0.00    +0.000 A 
ATOM     21  C   UNL     1      -3.360   2.666  -0.685  0.00  0.00    +0.002 A 
ATOM     22  C   UNL     1      -2.238   1.860  -0.693  0.00  0.00    +0.028 A 
ENDBRANCH  14  17
ENDBRANCH   1  12
BRANCH   7  23
ATOM     23  C   UNL     1       3.776   0.183   2.321  0.00  0.00    +0.021 C 
BRANCH  23  24
ATOM     24  C   UNL     1       4.073  -0.954   3.265  0.00  0.00    +0.204 C 
ATOM     25  O   UNL     1       4.525  -1.994   2.837  0.00  0.00    -0.277 OA
ATOM     26  N   UNL     1       3.835  -0.815   4.584  0.00  0.00    -0.241 N 
ATOM     27  C   UNL     1       4.101  -1.831   5.428  0.00  0.00    +0.310 C 
ATOM     28  O   UNL     1       4.555  -2.874   4.999  0.00  0.00    -0.252 OA
ATOM     29  N   UNL     1       3.863  -1.692   6.747  0.00  0.00    -0.267 N 
ATOM     30  H   UNL     1       3.424   0.129   4.972  0.00  0.00    +0.159 HD
ATOM     31  H   UNL     1       3.522  -0.725   7.145  0.00  0.00    +0.156 HD
BRANCH  29  32
ATOM     32  C   UNL     1       4.051  -2.778   7.611  0.00  0.00    +0.070 A 
ATOM     33  C   UNL     1       5.070  -3.689   7.372  0.00  0.00    +0.026 A 
ATOM     34  C   UNL     1       5.253  -4.760   8.226  0.00  0.00    +0.002 A 
ATOM     35  C   UNL     1       4.422  -4.925   9.319  0.00  0.00    +0.003 A 
ATOM     36  C   UNL     1       3.405  -4.021   9.561  0.00  0.00    +0.040 A 
ATOM     37  C   UNL     1       3.220  -2.943   8.714  0.00  0.00    +0.145 A 
ATOM     38  F   UNL     1       2.230  -2.056   8.954  0.00  0.00    -0.204 F 
ENDBRANCH  29  32
ENDBRANCH  23  24
ENDBRANCH   7  23
TORSDOF 5
