REMARK  Name = ZINC66244547
REMARK  8 active torsions:
REMARK  status: ('A' for Active; 'I' for Inactive)
REMARK    1  A    between atoms: C_1  and  O_2
REMARK    2  A    between atoms: O_2  and  C_3
REMARK    3  A    between atoms: C_6  and  C_9
REMARK    4  A    between atoms: C_9  and  C_10
REMARK    5  A    between atoms: C_10  and  N_11
REMARK    6  A    between atoms: N_14  and  C_15
REMARK    7  A    between atoms: C_15  and  C_16
REMARK    8  A    between atoms: C_21  and  N_22
REMARK                            x       y       z     vdW  Elec       q    Type
REMARK                         _______ _______ _______ _____ _____    ______ ____
ROOT
ATOM      1  N   UNL     1       4.636  -3.373  -5.207  0.00  0.00    -0.357 N 
ATOM      2  C   UNL     1       5.977  -3.672  -5.154  0.00  0.00    +0.169 C 
ATOM      3  N   UNL     1       6.669  -3.377  -4.089  0.00  0.00    -0.371 N 
ATOM      4  N   UNL     1       6.588  -4.282  -6.224  0.00  0.00    -0.354 N 
ATOM      5  H   UNL     1       4.121  -3.592  -5.999  0.00  0.00    +0.162 HD
ATOM      6  H   UNL     1       7.615  -3.589  -4.052  0.00  0.00    +0.159 HD
ATOM      7  H   UNL     1       6.073  -4.501  -7.016  0.00  0.00    +0.163 HD
ATOM      8  H   UNL     1       6.239  -2.947  -3.334  0.00  0.00    +0.159 HD
ENDROOT
BRANCH   1   9
ATOM      9  C   UNL     1       3.986  -2.723  -4.066  0.00  0.00    +0.120 C 
BRANCH   9  10
ATOM     10  C   UNL     1       2.505  -2.503  -4.381  0.00  0.00    +0.056 C 
BRANCH  10  14
ATOM     11  C   UNL     1       0.606  -0.607  -1.056  0.00  0.00    +0.120 A 
ATOM     12  C   UNL     1       1.173   0.161  -2.062  0.00  0.00    +0.046 A 
ATOM     13  C   UNL     1       1.786  -0.455  -3.136  0.00  0.00    +0.007 A 
ATOM     14  C   UNL     1       1.835  -1.835  -3.209  0.00  0.00    -0.045 A 
ATOM     15  C   UNL     1       1.270  -2.602  -2.207  0.00  0.00    +0.007 A 
ATOM     16  C   UNL     1       0.661  -1.992  -1.128  0.00  0.00    +0.046 A 
BRANCH  11  18
ATOM     17  C   UNL     1      -0.017   1.425   0.010  0.00  0.00    +0.277 C 
ATOM     18  O   UNL     1       0.002  -0.004   0.002  0.00  0.00    -0.495 OA
ENDBRANCH  11  18
ENDBRANCH  10  14
ENDBRANCH   9  10
ENDBRANCH   1   9
BRANCH   4  19
ATOM     19  C   UNL     1       8.017  -4.601  -6.168  0.00  0.00    +0.153 C 
BRANCH  19  20
ATOM     20  C   UNL     1       8.435  -5.260  -7.457  0.00  0.00    -0.007 A 
ATOM     21  C   UNL     1       8.563  -6.634  -7.521  0.00  0.00    +0.007 A 
ATOM     22  C   UNL     1       8.948  -7.239  -8.704  0.00  0.00    +0.000 A 
ATOM     23  C   UNL     1       9.206  -6.471  -9.825  0.00  0.00    +0.002 A 
ATOM     24  C   UNL     1       9.080  -5.098  -9.767  0.00  0.00    +0.023 A 
ATOM     25  C   UNL     1       8.688  -4.487  -8.582  0.00  0.00    +0.035 A 
BRANCH  25  26
ATOM     26  N   UNL     1       8.555  -3.098  -8.522  0.00  0.00    -0.330 N 
ATOM     27  C   UNL     1       9.621  -2.149  -8.168  0.00  0.00    +0.105 C 
ATOM     28  C   UNL     1       9.007  -0.734  -8.208  0.00  0.00    +0.020 C 
ATOM     29  C   UNL     1       7.490  -1.008  -8.031  0.00  0.00    +0.020 C 
ATOM     30  C   UNL     1       7.323  -2.340  -8.809  0.00  0.00    +0.105 C 
ENDBRANCH  25  26
ENDBRANCH  19  20
ENDBRANCH   4  19
TORSDOF 7
