REMARK  Name = ZINC10138407
REMARK  12 active torsions:
REMARK  status: ('A' for Active; 'I' for Inactive)
REMARK    1  A    between atoms: C_1  and  C_2
REMARK    2  A    between atoms: C_2  and  C_3
REMARK    3  A    between atoms: C_3  and  N_4
REMARK    4  A    between atoms: C_5  and  N_28
REMARK    5  A    between atoms: C_6  and  C_13
REMARK    6  A    between atoms: C_13  and  C_15
REMARK    7  A    between atoms: C_15  and  N_51
REMARK    8  A    between atoms: C_16  and  C_18
REMARK    9  A    between atoms: C_16  and  C_25
REMARK   10  A    between atoms: C_16  and  N_51
REMARK   11  A    between atoms: C_25  and  C_26
REMARK   12  A    between atoms: C_25  and  C_27
REMARK                            x       y       z     vdW  Elec       q    Type
REMARK                         _______ _______ _______ _____ _____    ______ ____
ROOT
ATOM      1  C   UNL     1       0.456  -3.856  -1.706  0.00  0.00    +0.155 C 
ATOM      2  O   UNL     1       0.576  -3.030  -2.588  0.00  0.00    -0.294 OA
ENDROOT
BRANCH   1   5
ATOM      3  N   UNL     1       1.779  -2.041   1.217  0.00  0.00    -0.281 N 
ATOM      4  C   UNL     1       1.362  -2.278  -0.062  0.00  0.00    +0.116 A 
ATOM      5  C   UNL     1       0.894  -3.560  -0.398  0.00  0.00    +0.118 A 
ATOM      6  C   UNL     1       0.871  -4.580   0.659  0.00  0.00    +0.266 A 
ATOM      7  O   UNL     1       0.472  -5.707   0.426  0.00  0.00    -0.267 OA
ATOM      8  N   UNL     1       1.301  -4.243   1.892  0.00  0.00    -0.274 N 
ATOM      9  H   UNL     1       1.291  -4.927   2.622  0.00  0.00    +0.173 HD
ATOM     10  C   UNL     1       1.741  -3.002   2.153  0.00  0.00    +0.331 A 
ATOM     11  O   UNL     1       2.119  -2.739   3.277  0.00  0.00    -0.246 OA
BRANCH   4  12
ATOM     12  N   UNL     1       1.402  -1.290  -0.997  0.00  0.00    -0.344 N 
ATOM     13  H   UNL     1       2.012  -0.544  -0.888  0.00  0.00    +0.144 HD
ATOM     14  H   UNL     1       0.821  -1.332  -1.772  0.00  0.00    +0.144 HD
ENDBRANCH   4  12
BRANCH   3  15
ATOM     15  C   UNL     1       2.272  -0.709   1.575  0.00  0.00    +0.128 C 
BRANCH  15  17
ATOM     16  C   UNL     1       4.299   0.746   1.718  0.00  0.00    +0.005 C 
ATOM     17  C   UNL     1       3.784  -0.645   1.344  0.00  0.00    +0.018 C 
ENDBRANCH  15  17
ENDBRANCH   3  15
ENDBRANCH   1   5
BRANCH   1  18
ATOM     18  C   UNL     1      -0.160  -5.198  -2.009  0.00  0.00    -0.000 C 
BRANCH  18  19
ATOM     19  N   UNL     1      -0.528  -5.250  -3.437  0.00  0.00    +0.389 N 
ATOM     20  H   UNL     1       0.316  -5.123  -4.008  0.00  0.00    -0.084 HD
ATOM     21  H   UNL     1      -1.196  -4.497  -3.642  0.00  0.00    -0.084 HD
BRANCH  19  22
ATOM     22  C   UNL     1      -1.145  -6.550  -3.760  0.00  0.00    -0.038 C 
BRANCH  22  23
ATOM     23  C   UNL     1      -2.012  -6.396  -4.982  0.00  0.00    -0.061 A 
ATOM     24  C   UNL     1      -1.590  -5.603  -6.033  0.00  0.00    +0.003 A 
ATOM     25  C   UNL     1      -2.383  -5.466  -7.157  0.00  0.00    +0.020 A 
ATOM     26  C   UNL     1      -3.604  -6.112  -7.225  0.00  0.00    +0.041 A 
ATOM     27  C   UNL     1      -4.028  -6.901  -6.171  0.00  0.00    +0.020 A 
ATOM     28  C   UNL     1      -3.232  -7.042  -5.050  0.00  0.00    +0.003 A 
ATOM     29 CL   UNL     1      -4.604  -5.934  -8.633  0.00  0.00    -0.084 Cl
ENDBRANCH  22  23
BRANCH  22  30
ATOM     30  C   UNL     1      -0.049  -7.580  -4.039  0.00  0.00    -0.027 C 
ATOM     31  C   UNL     1      -0.681  -8.961  -4.223  0.00  0.00    +0.006 C 
ATOM     32  C   UNL     1       0.705  -7.191  -5.312  0.00  0.00    +0.006 C 
ENDBRANCH  22  30
ENDBRANCH  19  22
ENDBRANCH  18  19
ENDBRANCH   1  18
TORSDOF 9
