REMARK  Name = ZINC00930980
REMARK  6 active torsions:
REMARK  status: ('A' for Active; 'I' for Inactive)
REMARK    1  A    between atoms: C_9  and  C_12
REMARK    2  A    between atoms: N_14  and  C_15
REMARK    3  A    between atoms: N_14  and  C_25
REMARK    4  A    between atoms: C_25  and  C_27
REMARK    5  A    between atoms: C_25  and  C_32
REMARK    6  A    between atoms: N_34  and  C_35
REMARK                            x       y       z     vdW  Elec       q    Type
REMARK                         _______ _______ _______ _____ _____    ______ ____
ROOT
ATOM      1  C   UNL     1       6.054  -5.550  -1.701  0.00  0.00    +0.265 C 
ATOM      2  O   UNL     1       5.607  -4.514  -2.148  0.00  0.00    -0.271 OA
ATOM      3  N   UNL     1       6.526  -5.591  -0.440  0.00  0.00    -0.252 N 
ENDROOT
BRANCH   1  12
ATOM      4  C   UNL     1       4.359  -9.870  -6.033  0.00  0.00    +0.004 A 
ATOM      5  C   UNL     1       4.316  -8.605  -6.589  0.00  0.00    +0.004 A 
ATOM      6  C   UNL     1       4.647  -7.500  -5.828  0.00  0.00    +0.049 A 
ATOM      7  C   UNL     1       5.026  -7.659  -4.503  0.00  0.00    +0.163 A 
ATOM      8  C   UNL     1       5.072  -8.930  -3.944  0.00  0.00    +0.162 A 
ATOM      9  C   UNL     1       4.736 -10.034  -4.713  0.00  0.00    +0.049 A 
ATOM     10  O   UNL     1       5.448  -9.108  -2.648  0.00  0.00    -0.484 OA
ATOM     11  C   UNL     1       5.418  -7.952  -1.804  0.00  0.00    +0.283 C 
ATOM     12  C   UNL     1       6.081  -6.790  -2.557  0.00  0.00    +0.296 C 
ATOM     13  O   UNL     1       5.346  -6.561  -3.764  0.00  0.00    -0.472 OA
ENDBRANCH   1  12
BRANCH   3  14
ATOM     14  C   UNL     1       7.458  -6.571  -0.072  0.00  0.00    +0.041 A 
ATOM     15  C   UNL     1       7.650  -7.684  -0.879  0.00  0.00    +0.027 A 
ATOM     16  C   UNL     1       8.568  -8.650  -0.517  0.00  0.00    +0.051 A 
ATOM     17  C   UNL     1       9.300  -8.513   0.653  0.00  0.00    +0.162 A 
ATOM     18  C   UNL     1       9.111  -7.398   1.463  0.00  0.00    +0.164 A 
ATOM     19  C   UNL     1       8.192  -6.426   1.096  0.00  0.00    +0.073 A 
ATOM     20  O   UNL     1       9.825  -7.242   2.611  0.00  0.00    -0.485 OA
ATOM     21  C   UNL     1      10.468  -8.409   3.133  0.00  0.00    +0.270 C 
ATOM     22  C   UNL     1      11.180  -9.125   1.976  0.00  0.00    +0.270 C 
ATOM     23  O   UNL     1      10.197  -9.478   0.996  0.00  0.00    -0.485 OA
ENDBRANCH   3  14
BRANCH   3  24
ATOM     24  C   UNL     1       6.066  -4.611   0.547  0.00  0.00    +0.204 C 
BRANCH  24  25
ATOM     25  C   UNL     1       5.344  -5.322   1.663  0.00  0.00    +0.019 A 
ATOM     26  C   UNL     1       5.631  -5.345   2.987  0.00  0.00    +0.013 A 
ATOM     27  C   UNL     1       4.820  -6.074   3.836  0.00  0.00    +0.008 A 
ATOM     28  C   UNL     1       3.761  -6.744   3.319  0.00  0.00    +0.045 A 
ATOM     29  S   UNL     1       3.884  -6.346   1.583  0.00  0.00    -0.099 S 
ENDBRANCH  24  25
BRANCH  24  30
ATOM     30  C   UNL     1       7.251  -3.869   1.109  0.00  0.00    +0.239 C 
ATOM     31  O   UNL     1       8.370  -4.132   0.723  0.00  0.00    -0.273 OA
ATOM     32  N   UNL     1       7.067  -2.912   2.040  0.00  0.00    -0.311 N 
ATOM     33  H   UNL     1       6.172  -2.701   2.349  0.00  0.00    +0.149 HD
BRANCH  32  34
ATOM     34  C   UNL     1       8.220  -2.191   2.586  0.00  0.00    +0.073 C 
ATOM     35  C   UNL     1       8.823  -2.993   3.741  0.00  0.00    +0.022 C 
ATOM     36  C   UNL     1      10.027  -2.239   4.311  0.00  0.00    +0.002 C 
ATOM     37  C   UNL     1       9.575  -0.870   4.823  0.00  0.00    +0.000 C 
ATOM     38  C   UNL     1       8.972  -0.068   3.668  0.00  0.00    +0.002 C 
ATOM     39  C   UNL     1       7.768  -0.821   3.098  0.00  0.00    +0.022 C 
ENDBRANCH  32  34
ENDBRANCH  24  30
ENDBRANCH   3  24
TORSDOF 6
