REMARK  Name = ZINC59960346
REMARK  12 active torsions:
REMARK  status: ('A' for Active; 'I' for Inactive)
REMARK    1  A    between atoms: C_1  and  C_2
REMARK    2  A    between atoms: C_2  and  C_4
REMARK    3  A    between atoms: C_2  and  N_10
REMARK    4  A    between atoms: C_11  and  C_13
REMARK    5  A    between atoms: C_13  and  O_14
REMARK    6  A    between atoms: O_14  and  C_15
REMARK    7  A    between atoms: C_18  and  C_21
REMARK    8  A    between atoms: N_22  and  N_23
REMARK    9  A    between atoms: C_24  and  C_26
REMARK   10  A    between atoms: N_28  and  C_29
REMARK   11  A    between atoms: C_32  and  O_36
REMARK   12  A    between atoms: O_36  and  C_37
REMARK                            x       y       z     vdW  Elec       q    Type
REMARK                         _______ _______ _______ _____ _____    ______ ____
ROOT
ATOM      1  C   UNL     1       4.936  -1.488  -3.256  0.00  0.00    +0.121 A 
ATOM      2  C   UNL     1       4.359  -1.865  -4.462  0.00  0.00    +0.046 A 
ATOM      3  C   UNL     1       5.153  -2.297  -5.502  0.00  0.00    +0.013 A 
ATOM      4  C   UNL     1       6.540  -2.355  -5.343  0.00  0.00    -0.005 A 
ATOM      5  C   UNL     1       7.116  -1.974  -4.127  0.00  0.00    +0.013 A 
ATOM      6  C   UNL     1       6.315  -1.539  -3.094  0.00  0.00    +0.046 A 
ENDROOT
BRANCH   4   7
ATOM      7  C   UNL     1       7.393  -2.816  -6.452  0.00  0.00    +0.138 C 
ATOM      8  N   UNL     1       8.682  -2.869  -6.301  0.00  0.00    -0.187 NA
BRANCH   8   9
ATOM      9  N   UNL     1       9.493  -3.308  -7.356  0.00  0.00    -0.199 N 
ATOM     10  C   UNL     1      10.831  -3.363  -7.200  0.00  0.00    +0.318 C 
ATOM     11  O   UNL     1      11.333  -3.032  -6.145  0.00  0.00    -0.263 OA
ATOM     12  H   UNL     1       9.092  -3.572  -8.199  0.00  0.00    +0.178 HD
BRANCH  10  13
ATOM     13  C   UNL     1      11.694  -3.830  -8.322  0.00  0.00    +0.305 C 
ATOM     14  O   UNL     1      11.192  -4.161  -9.377  0.00  0.00    -0.265 OA
ATOM     15  N   UNL     1      13.031  -3.885  -8.166  0.00  0.00    -0.278 N 
ATOM     16  H   UNL     1      13.438  -3.558  -7.348  0.00  0.00    +0.155 HD
BRANCH  15  17
ATOM     17  C   UNL     1      13.833  -4.414  -9.183  0.00  0.00    +0.035 A 
ATOM     18  C   UNL     1      14.972  -5.142  -8.863  0.00  0.00    +0.027 A 
ATOM     19  C   UNL     1      15.763  -5.663  -9.867  0.00  0.00    +0.049 A 
ATOM     20  C   UNL     1      15.422  -5.460 -11.196  0.00  0.00    +0.138 A 
ATOM     21  C   UNL     1      14.284  -4.732 -11.518  0.00  0.00    +0.084 A 
ATOM     22  C   UNL     1      13.488  -4.215 -10.514  0.00  0.00    +0.047 A 
ATOM     23 CL   UNL     1      13.857  -4.479 -13.181  0.00  0.00    -0.080 Cl
BRANCH  20  24
ATOM     24  O   UNL     1      16.202  -5.973 -12.184  0.00  0.00    -0.494 OA
ATOM     25  C   UNL     1      17.358  -6.711 -11.781  0.00  0.00    +0.277 C 
ENDBRANCH  20  24
ENDBRANCH  15  17
ENDBRANCH  10  13
ENDBRANCH   8   9
ENDBRANCH   4   7
BRANCH   1  26
ATOM     26  O   UNL     1       4.150  -1.062  -2.233  0.00  0.00    -0.483 OA
BRANCH  26  27
ATOM     27  C   UNL     1       2.740  -1.034  -2.467  0.00  0.00    +0.324 C 
BRANCH  27  29
ATOM     28  N   UNL     1       0.693  -0.429  -1.218  0.00  0.00    -0.306 N 
ATOM     29  C   UNL     1       2.036  -0.539  -1.230  0.00  0.00    +0.251 C 
ATOM     30  O   UNL     1       2.678  -0.240  -0.245  0.00  0.00    -0.272 OA
ATOM     31  H   UNL     1       0.179  -0.669  -2.005  0.00  0.00    +0.149 HD
BRANCH  28  33
ATOM     32  C   UNL     1      -0.014   1.582  -0.019  0.00  0.00    +0.033 C 
ATOM     33  C   UNL     1       0.008   0.052  -0.016  0.00  0.00    +0.100 C 
BRANCH  33  34
ATOM     34  C   UNL     1      -1.406  -0.470   0.001  0.00  0.00    -0.027 A 
ATOM     35  C   UNL     1      -2.136  -0.523  -1.172  0.00  0.00    +0.005 A 
ATOM     36  C   UNL     1      -3.433  -1.002  -1.157  0.00  0.00    +0.000 A 
ATOM     37  C   UNL     1      -3.999  -1.429   0.030  0.00  0.00    +0.000 A 
ATOM     38  C   UNL     1      -3.268  -1.377   1.202  0.00  0.00    +0.000 A 
ATOM     39  C   UNL     1      -1.970  -0.902   1.187  0.00  0.00    +0.005 A 
ENDBRANCH  33  34
ENDBRANCH  28  33
ENDBRANCH  27  29
ENDBRANCH  26  27
ENDBRANCH   1  26
TORSDOF 10
