REMARK  Name = ZINC62069879
REMARK  7 active torsions:
REMARK  status: ('A' for Active; 'I' for Inactive)
REMARK    1  A    between atoms: C_1  and  C_2
REMARK    2  A    between atoms: C_2  and  C_4
REMARK    3  A    between atoms: C_2  and  C_14
REMARK    4  A    between atoms: C_4  and  N_5
REMARK    5  A    between atoms: N_5  and  C_6
REMARK    6  A    between atoms: C_11  and  N_12
REMARK    7  A    between atoms: C_14  and  N_15
REMARK                            x       y       z     vdW  Elec       q    Type
REMARK                         _______ _______ _______ _____ _____    ______ ____
ROOT
ATOM      1  N   UNL     1      -1.975  -0.182  -1.333  0.00  0.00    -0.342 N 
ATOM      2  H   UNL     1      -1.516   0.389  -1.968  0.00  0.00    +0.146 HD
ENDROOT
BRANCH   1   3
ATOM      3  C   UNL     1      -3.280  -0.617  -1.597  0.00  0.00    +0.048 A 
ATOM      4  C   UNL     1      -3.939  -1.429  -0.687  0.00  0.00    +0.026 A 
ATOM      5  C   UNL     1      -5.228  -1.857  -0.949  0.00  0.00    +0.017 A 
ATOM      6  C   UNL     1      -5.862  -1.477  -2.118  0.00  0.00    +0.020 A 
ATOM      7  C   UNL     1      -5.211  -0.667  -3.031  0.00  0.00    +0.039 A 
ATOM      8  C   UNL     1      -3.921  -0.229  -2.773  0.00  0.00    +0.047 A 
ATOM      9 BR   UNL     1      -7.624  -2.068  -2.470  0.00  0.00    -0.050 Br
BRANCH   8  10
ATOM     10  N   UNL     1      -3.262   0.595  -3.693  0.00  0.00    -0.357 N 
ATOM     11  H   UNL     1      -2.358   0.897  -3.513  0.00  0.00    +0.142 HD
ATOM     12  H   UNL     1      -3.710   0.864  -4.511  0.00  0.00    +0.142 HD
ENDBRANCH   8  10
ENDBRANCH   1   3
BRANCH   1  13
ATOM     13  C   UNL     1      -1.303  -0.590  -0.097  0.00  0.00    +0.103 C 
BRANCH  13  15
ATOM     14  C   UNL     1      -0.005   1.541   0.026  0.00  0.00    +0.007 C 
ATOM     15  C   UNL     1       0.101   0.017  -0.055  0.00  0.00    -0.014 C 
BRANCH  15  16
ATOM     16  C   UNL     1       0.848  -0.509   1.173  0.00  0.00    -0.074 C 
BRANCH  16  17
ATOM     17  N   UNL     1       1.067  -1.955   1.031  0.00  0.00    +0.380 N 
ATOM     18  C   UNL     1       2.047  -2.220  -0.053  0.00  0.00    -0.079 C 
ATOM     19  C   UNL     1       2.581  -3.633   0.290  0.00  0.00    -0.020 C 
ATOM     20  C   UNL     1       2.649  -3.612   1.834  0.00  0.00    -0.020 C 
ATOM     21  C   UNL     1       1.671  -2.502   2.264  0.00  0.00    -0.079 C 
ATOM     22  H   UNL     1       0.195  -2.422   0.834  0.00  0.00    -0.082 HD
ENDBRANCH  16  17
ENDBRANCH  15  16
ENDBRANCH  13  15
ENDBRANCH   1  13
TORSDOF 6
