REMARK  Name = ZINC65467446
REMARK  11 active torsions:
REMARK  status: ('A' for Active; 'I' for Inactive)
REMARK    1  A    between atoms: C_1  and  C_2
REMARK    2  A    between atoms: C_5  and  C_8
REMARK    3  A    between atoms: C_8  and  C_9
REMARK    4  A    between atoms: C_8  and  N_25
REMARK    5  A    between atoms: C_9  and  N_10
REMARK    6  A    between atoms: N_13  and  C_14
REMARK    7  A    between atoms: N_13  and  C_15
REMARK    8  A    between atoms: C_15  and  C_16
REMARK    9  A    between atoms: C_20  and  C_22
REMARK   10  A    between atoms: N_25  and  C_26
REMARK   11  A    between atoms: N_25  and  C_27
REMARK                            x       y       z     vdW  Elec       q    Type
REMARK                         _______ _______ _______ _____ _____    ______ ____
ROOT
ATOM      1  N   UNL     1      -1.115  -6.359   0.374  0.00  0.00    -0.300 N 
ATOM      2  C   UNL     1      -2.197  -7.131   0.594  0.00  0.00    +0.302 C 
ATOM      3  O   UNL     1      -3.280  -6.617   0.800  0.00  0.00    -0.253 OA
ATOM      4  N   UNL     1      -2.079  -8.474   0.587  0.00  0.00    -0.284 N 
ATOM      5  C   UNL     1      -0.775  -9.093   0.339  0.00  0.00    +0.134 C 
ATOM      6  H   UNL     1      -0.252  -6.769   0.210  0.00  0.00    +0.150 HD
ENDROOT
BRANCH   1   7
ATOM      7  C   UNL     1      -1.244  -4.899   0.382  0.00  0.00    +0.095 C 
BRANCH   7   8
ATOM      8  C   UNL     1       0.090  -4.268  -0.022  0.00  0.00    -0.021 C 
BRANCH   8  13
ATOM      9  C   UNL     1       1.299  -5.663  -5.498  0.00  0.00    +0.044 C 
ATOM     10  C   UNL     1       0.984  -5.299  -4.070  0.00  0.00    -0.050 A 
ATOM     11  C   UNL     1       1.585  -5.987  -3.032  0.00  0.00    +0.003 A 
ATOM     12  C   UNL     1       1.296  -5.653  -1.722  0.00  0.00    +0.002 A 
ATOM     13  C   UNL     1       0.406  -4.631  -1.450  0.00  0.00    -0.059 A 
ATOM     14  C   UNL     1      -0.195  -3.943  -2.487  0.00  0.00    +0.002 A 
ATOM     15  C   UNL     1       0.098  -4.274  -3.797  0.00  0.00    +0.003 A 
ENDBRANCH   8  13
BRANCH   8  16
ATOM     16  N   UNL     1      -0.002  -2.807   0.103  0.00  0.00    +0.382 N 
ATOM     17  C   UNL     1      -0.293  -2.452   1.499  0.00  0.00    -0.096 C 
ATOM     18  C   UNL     1       1.273  -2.200  -0.301  0.00  0.00    -0.096 C 
ATOM     19  H   UNL     1      -0.742  -2.465  -0.492  0.00  0.00    -0.082 HD
ENDBRANCH   8  16
ENDBRANCH   7   8
ENDBRANCH   1   7
BRANCH   4  20
ATOM     20  C   UNL     1      -3.255  -9.314   0.827  0.00  0.00    +0.144 C 
BRANCH  20  21
ATOM     21  C   UNL     1      -3.931  -9.618  -0.486  0.00  0.00    -0.029 A 
ATOM     22  C   UNL     1      -4.914  -8.772  -0.969  0.00  0.00    +0.005 A 
ATOM     23  C   UNL     1      -5.539  -9.044  -2.172  0.00  0.00    +0.001 A 
ATOM     24  C   UNL     1      -5.186 -10.162  -2.899  0.00  0.00    +0.013 A 
ATOM     25  C   UNL     1      -4.196 -11.020  -2.418  0.00  0.00    +0.037 A 
ATOM     26  C   UNL     1      -3.565 -10.737  -1.205  0.00  0.00    +0.018 A 
BRANCH  25  27
ATOM     27  C   UNL     1      -3.813 -12.220  -3.192  0.00  0.00    +0.242 C 
ATOM     28  O   UNL     1      -2.950 -12.965  -2.770  0.00  0.00    -0.270 OA
ATOM     29  N   UNL     1      -4.420 -12.488  -4.364  0.00  0.00    -0.325 N 
ATOM     30  H   UNL     1      -5.109 -11.894  -4.701  0.00  0.00    +0.145 HD
ATOM     31  H   UNL     1      -4.169 -13.276  -4.872  0.00  0.00    +0.145 HD
ENDBRANCH  25  27
ENDBRANCH  20  21
ENDBRANCH   4  20
TORSDOF 7
