REMARK  Name = ZINC03274772
REMARK  5 active torsions:
REMARK  status: ('A' for Active; 'I' for Inactive)
REMARK    1  A    between atoms: C_1  and  C_2
REMARK    2  A    between atoms: C_6  and  C_7
REMARK    3  A    between atoms: N_8  and  N_9
REMARK    4  A    between atoms: C_16  and  C_20
REMARK    5  A    between atoms: C_17  and  C_19
REMARK                            x       y       z     vdW  Elec       q    Type
REMARK                         _______ _______ _______ _____ _____    ______ ____
ROOT
ATOM      1  N   UNL     1       0.028  -2.456   3.402  0.00  0.00    -0.185 N 
ATOM      2  C   UNL     1       0.234  -2.903   2.135  0.00  0.00    +0.227 A 
ATOM      3  N   UNL     1       0.259  -4.182   1.865  0.00  0.00    -0.228 NA
ATOM      4  C   UNL     1       0.083  -5.087   2.823  0.00  0.00    +0.116 A 
ATOM      5  C   UNL     1      -0.136  -4.720   4.163  0.00  0.00    +0.077 A 
ATOM      6  C   UNL     1      -0.152  -3.312   4.425  0.00  0.00    +0.283 A 
ATOM      7  O   UNL     1      -0.332  -2.894   5.557  0.00  0.00    -0.265 OA
ATOM      8  C   UNL     1      -0.309  -5.829   5.083  0.00  0.00    -0.026 A 
ATOM      9  C   UNL     1      -0.250  -7.085   4.613  0.00  0.00    -0.008 A 
ATOM     10  S   UNL     1       0.047  -6.860   2.869  0.00  0.00    -0.073 S 
ATOM     11  C   UNL     1      -0.399  -8.376   5.376  0.00  0.00    +0.052 C 
ATOM     12  C   UNL     1      -0.551  -5.574   6.548  0.00  0.00    +0.045 C 
ENDROOT
BRANCH   1  14
ATOM     13  C   UNL     1      -1.000  -0.358   3.247  0.00  0.00    +0.148 C 
ATOM     14  N   UNL     1       0.008  -1.077   3.648  0.00  0.00    -0.170 NA
BRANCH  13  20
ATOM     15  C   UNL     1      -3.422   1.065   1.972  0.00  0.00    +0.045 C 
ATOM     16  C   UNL     1      -3.293  -0.432   2.080  0.00  0.00    -0.035 A 
ATOM     17  C   UNL     1      -4.277  -1.261   1.595  0.00  0.00    +0.011 A 
ATOM     18  C   UNL     1      -4.129  -2.607   1.709  0.00  0.00    +0.046 A 
ATOM     19  S   UNL     1      -2.550  -2.749   2.529  0.00  0.00    -0.095 S 
ATOM     20  C   UNL     1      -2.178  -1.008   2.666  0.00  0.00    +0.035 A 
ENDBRANCH  13  20
ENDBRANCH   1  14
TORSDOF 2
