REMARK  Name = ZINC17042838
REMARK  11 active torsions:
REMARK  status: ('A' for Active; 'I' for Inactive)
REMARK    1  A    between atoms: C_1  and  C_2
REMARK    2  A    between atoms: C_5  and  N_8
REMARK    3  A    between atoms: C_11  and  C_36
REMARK    4  A    between atoms: N_15  and  C_16
REMARK    5  A    between atoms: C_19  and  N_22
REMARK    6  A    between atoms: N_22  and  S_23
REMARK    7  A    between atoms: S_23  and  C_26
REMARK    8  A    between atoms: C_28  and  C_35
REMARK    9  A    between atoms: C_29  and  O_33
REMARK   10  A    between atoms: C_31  and  C_32
REMARK   11  A    between atoms: O_33  and  C_34
REMARK                            x       y       z     vdW  Elec       q    Type
REMARK                         _______ _______ _______ _____ _____    ______ ____
ROOT
ATOM      1  C   UNL     1      -0.800  -1.431  -5.545  0.00  0.00    +0.034 A 
ATOM      2  C   UNL     1      -0.869  -0.045  -5.545  0.00  0.00    +0.025 A 
ATOM      3  C   UNL     1      -2.080   0.587  -5.748  0.00  0.00    +0.026 A 
ATOM      4  C   UNL     1      -3.231  -0.165  -5.943  0.00  0.00    +0.048 A 
ATOM      5  C   UNL     1      -3.163  -1.552  -5.938  0.00  0.00    +0.026 A 
ATOM      6  C   UNL     1      -1.952  -2.184  -5.739  0.00  0.00    +0.025 A 
ENDROOT
BRANCH   1  14
ATOM      7  N   UNL     1       5.103  -2.177  -5.757  0.00  0.00    -0.299 N 
ATOM      8  C   UNL     1       3.888  -1.574  -6.042  0.00  0.00    +0.128 A 
ATOM      9  C   UNL     1       3.837  -0.418  -6.825  0.00  0.00    +0.067 A 
ATOM     10  C   UNL     1       2.604   0.149  -7.083  0.00  0.00    +0.045 A 
ATOM     11  N   UNL     1       1.513  -0.419  -6.589  0.00  0.00    -0.219 NA
ATOM     12  C   UNL     1       1.592  -1.512  -5.846  0.00  0.00    +0.221 A 
ATOM     13  N   UNL     1       2.755  -2.087  -5.575  0.00  0.00    -0.199 NA
ATOM     14  N   UNL     1       0.429  -2.072  -5.343  0.00  0.00    -0.284 N 
ATOM     15  C   UNL     1       2.500   1.397  -7.922  0.00  0.00    +0.066 C 
ATOM     16  H   UNL     1       5.917  -1.847  -6.170  0.00  0.00    +0.154 HD
ATOM     17  H   UNL     1       0.465  -2.910  -4.856  0.00  0.00    +0.155 HD
BRANCH   7  22
ATOM     18  C   UNL     1       5.320  -6.567  -2.172  0.00  0.00    +0.044 C 
ATOM     19  C   UNL     1       5.262  -5.401  -3.125  0.00  0.00    -0.050 A 
ATOM     20  C   UNL     1       6.072  -5.385  -4.246  0.00  0.00    +0.005 A 
ATOM     21  C   UNL     1       6.022  -4.317  -5.120  0.00  0.00    +0.023 A 
ATOM     22  C   UNL     1       5.156  -3.259  -4.873  0.00  0.00    +0.032 A 
ATOM     23  C   UNL     1       4.348  -3.276  -3.744  0.00  0.00    +0.023 A 
ATOM     24  C   UNL     1       4.399  -4.349  -2.876  0.00  0.00    +0.005 A 
ENDBRANCH   7  22
ENDBRANCH   1  14
BRANCH   4  25
ATOM     25  N   UNL     1      -4.459   0.475  -6.144  0.00  0.00    -0.216 N 
ATOM     26  H   UNL     1      -5.001   0.252  -6.918  0.00  0.00    +0.174 HD
BRANCH  25  27
ATOM     27  S   UNL     1      -4.988   1.611  -5.062  0.00  0.00    +0.073 S 
ATOM     28  O   UNL     1      -3.916   2.526  -4.877  0.00  0.00    -0.150 OA
ATOM     29  O   UNL     1      -6.274   2.025  -5.504  0.00  0.00    -0.150 OA
BRANCH  27  30
ATOM     30  C   UNL     1      -5.224   0.793  -3.520  0.00  0.00    +0.112 A 
ATOM     31  C   UNL     1      -4.443   1.134  -2.431  0.00  0.00    +0.036 A 
ATOM     32  C   UNL     1      -4.630   0.497  -1.219  0.00  0.00    -0.007 A 
ATOM     33  C   UNL     1      -5.595  -0.493  -1.099  0.00  0.00    +0.123 A 
ATOM     34  C   UNL     1      -6.373  -0.837  -2.194  0.00  0.00    +0.051 A 
ATOM     35  C   UNL     1      -6.186  -0.193  -3.402  0.00  0.00    -0.020 A 
ATOM     36  C   UNL     1      -7.031  -0.566  -4.593  0.00  0.00    +0.046 C 
ATOM     37  C   UNL     1      -3.783   0.874  -0.031  0.00  0.00    +0.047 C 
BRANCH  33  38
ATOM     38  O   UNL     1      -5.777  -1.124   0.091  0.00  0.00    -0.495 OA
ATOM     39  C   UNL     1      -6.788  -2.132   0.142  0.00  0.00    +0.277 C 
ENDBRANCH  33  38
ENDBRANCH  27  30
ENDBRANCH  25  27
ENDBRANCH   4  25
TORSDOF 6
