REMARK  Name = ZINC48947319
REMARK  7 active torsions:
REMARK  status: ('A' for Active; 'I' for Inactive)
REMARK    1  A    between atoms: C_1  and  N_2
REMARK    2  A    between atoms: N_2  and  C_3
REMARK    3  A    between atoms: N_2  and  C_11
REMARK    4  A    between atoms: C_3  and  C_4
REMARK    5  A    between atoms: C_11  and  C_13
REMARK    6  A    between atoms: C_11  and  C_15
REMARK    7  A    between atoms: C_13  and  N_14
REMARK                            x       y       z     vdW  Elec       q    Type
REMARK                         _______ _______ _______ _____ _____    ______ ____
ROOT
ATOM      1  C   UNL     1      -1.185  -1.035  -0.186  0.00  0.00    +0.069 C 
ENDROOT
BRANCH   1   2
ATOM      2  C   UNL     1      -1.405  -1.180  -1.670  0.00  0.00    -0.031 A 
ATOM      3  C   UNL     1      -1.014  -0.170  -2.529  0.00  0.00    +0.005 A 
ATOM      4  C   UNL     1      -1.216  -0.302  -3.890  0.00  0.00    +0.002 A 
ATOM      5  C   UNL     1      -1.811  -1.445  -4.393  0.00  0.00    +0.020 A 
ATOM      6  C   UNL     1      -2.203  -2.455  -3.534  0.00  0.00    +0.041 A 
ATOM      7  C   UNL     1      -1.995  -2.325  -2.172  0.00  0.00    +0.025 A 
ATOM      8 CL   UNL     1      -2.950  -3.890  -4.164  0.00  0.00    -0.084 Cl
ENDBRANCH   1   2
BRANCH   1  10
ATOM      9  C   UNL     1      -0.762   1.340   0.028  0.00  0.00    +0.105 C 
ATOM     10  N   UNL     1      -0.167  -0.004   0.059  0.00  0.00    -0.298 NA
BRANCH  10  11
ATOM     11  C   UNL     1       0.529  -0.242   1.330  0.00  0.00    +0.116 C 
BRANCH  11  12
ATOM     12  C   UNL     1       1.879   0.478   1.315  0.00  0.00    +0.132 C 
ATOM     13  C   UNL     1       2.605   0.228   2.639  0.00  0.00    +0.033 C 
ATOM     14  C   UNL     1       3.980   0.902   2.593  0.00  0.00    +0.005 C 
ATOM     15  C   UNL     1       4.761   0.362   1.391  0.00  0.00    +0.028 C 
ATOM     16  C   UNL     1       3.952   0.606   0.115  0.00  0.00    +0.160 C 
ATOM     17  O   UNL     1       2.673  -0.021   0.236  0.00  0.00    -0.375 OA
ENDBRANCH  11  12
ENDBRANCH  10  11
ENDBRANCH   1  10
BRANCH   1  18
ATOM     18  C   UNL     1      -2.496  -0.627   0.487  0.00  0.00    -0.063 C 
BRANCH  18  19
ATOM     19  N   UNL     1      -2.276  -0.464   1.930  0.00  0.00    +0.379 N 
ATOM     20  H   UNL     1      -1.812  -1.282   2.295  0.00  0.00    -0.090 HD
ATOM     21  H   UNL     1      -1.700   0.349   2.092  0.00  0.00    -0.090 HD
ATOM     22  H   UNL     1      -3.163  -0.345   2.395  0.00  0.00    -0.090 HD
ENDBRANCH  18  19
ENDBRANCH   1  18
TORSDOF 6
