REMARK  Name = ZINC63376037
REMARK  4 active torsions:
REMARK  status: ('A' for Active; 'I' for Inactive)
REMARK    1  A    between atoms: C_4  and  C_7
REMARK    2  A    between atoms: C_7  and  N_8
REMARK    3  A    between atoms: C_13  and  C_31
REMARK    4  A    between atoms: C_31  and  C_32
REMARK                            x       y       z     vdW  Elec       q    Type
REMARK                         _______ _______ _______ _____ _____    ______ ____
ROOT
ATOM      1  N   UNL     1       4.152  -0.952   1.338  0.00  0.00    -0.237 N 
ATOM      2  C   UNL     1       4.914  -0.088   2.018  0.00  0.00    +0.227 C 
ATOM      3  O   UNL     1       5.325   0.970   1.592  0.00  0.00    -0.275 OA
ATOM      4  C   UNL     1       5.183  -0.637   3.401  0.00  0.00    +0.107 C 
ATOM      5  C   UNL     1       6.681  -0.982   3.531  0.00  0.00    +0.072 C 
ATOM      6  N   UNL     1       6.800  -2.370   3.010  0.00  0.00    -0.295 NA
ATOM      7  C   UNL     1       5.583  -3.045   3.498  0.00  0.00    +0.136 C 
ATOM      8  C   UNL     1       4.441  -2.003   3.396  0.00  0.00    +0.122 C 
ATOM      9  C   UNL     1       3.820  -2.056   2.018  0.00  0.00    +0.229 C 
ATOM     10  O   UNL     1       3.130  -2.959   1.595  0.00  0.00    -0.275 OA
ATOM     11  C   UNL     1       5.750  -3.533   4.909  0.00  0.00    +0.005 A 
ATOM     12  C   UNL     1       6.037  -2.907   6.102  0.00  0.00    +0.008 A 
ATOM     13  C   UNL     1       6.130  -3.646   7.268  0.00  0.00    +0.002 A 
ATOM     14  C   UNL     1       5.932  -5.014   7.233  0.00  0.00    +0.022 A 
ATOM     15  C   UNL     1       5.643  -5.646   6.041  0.00  0.00    +0.062 A 
ATOM     16  C   UNL     1       5.550  -4.909   4.862  0.00  0.00    +0.057 A 
ATOM     17  N   UNL     1       5.274  -5.312   3.552  0.00  0.00    -0.282 N 
ATOM     18  C   UNL     1       5.276  -4.277   2.691  0.00  0.00    +0.243 C 
ATOM     19  O   UNL     1       5.070  -4.327   1.497  0.00  0.00    -0.273 OA
ATOM     20 CL   UNL     1       5.398  -7.364   6.010  0.00  0.00    -0.082 Cl
ATOM     21  H   UNL     1       6.836  -2.376   2.002  0.00  0.00    +0.124 HD
ATOM     22  H   UNL     1       5.102  -6.231   3.294  0.00  0.00    +0.155 HD
ENDROOT
BRANCH   1  23
ATOM     23  C   UNL     1       3.711  -0.707  -0.038  0.00  0.00    +0.151 C 
BRANCH  23  27
ATOM     24  C   UNL     1      -0.017   1.378   0.010  0.00  0.00    +0.000 A 
ATOM     25  C   UNL     1       1.171   2.086   0.002  0.00  0.00    +0.000 A 
ATOM     26  C   UNL     1       2.377   1.411  -0.013  0.00  0.00    +0.005 A 
ATOM     27  C   UNL     1       2.396   0.029  -0.020  0.00  0.00    -0.030 A 
ATOM     28  C   UNL     1       1.208  -0.679  -0.012  0.00  0.00    +0.005 A 
ATOM     29  C   UNL     1       0.002  -0.004   0.002  0.00  0.00    +0.000 A 
ENDBRANCH  23  27
ENDBRANCH   1  23
BRANCH   5  30
ATOM     30  C   UNL     1       7.524  -0.022   2.690  0.00  0.00    +0.052 C 
BRANCH  30  31
ATOM     31  C   UNL     1       8.986  -0.297   2.927  0.00  0.00    -0.040 C 
ATOM     32  C   UNL     1       9.798  -1.081   2.181  0.00  0.00    -0.001 A 
ATOM     33  C   UNL     1       9.569  -1.882   0.972  0.00  0.00    +0.010 A 
ATOM     34  C   UNL     1      10.601  -2.578   0.442  0.00  0.00    +0.001 A 
ATOM     35  C   UNL     1      11.879  -2.555   1.017  0.00  0.00    +0.002 A 
ATOM     36  C   UNL     1      12.166  -1.843   2.127  0.00  0.00    +0.026 A 
ATOM     37  C   UNL     1      11.156  -1.073   2.768  0.00  0.00    +0.043 A 
ATOM     38  N   UNL     1      11.184  -0.313   3.836  0.00  0.00    -0.380 N 
ATOM     39  C   UNL     1       9.846   0.252   4.044  0.00  0.00    +0.144 C 
ATOM     40  H   UNL     1      11.961  -0.149   4.394  0.00  0.00    +0.160 HD
ENDBRANCH  30  31
ENDBRANCH   5  30
TORSDOF 4
