REMARK  Name = ZINC44747201
REMARK  6 active torsions:
REMARK  status: ('A' for Active; 'I' for Inactive)
REMARK    1  A    between atoms: C_1  and  C_2
REMARK    2  A    between atoms: C_2  and  C_4
REMARK    3  A    between atoms: C_2  and  N_10
REMARK    4  A    between atoms: N_8  and  C_9
REMARK    5  A    between atoms: N_10  and  C_11
REMARK    6  A    between atoms: C_20  and  O_22
REMARK                            x       y       z     vdW  Elec       q    Type
REMARK                         _______ _______ _______ _____ _____    ______ ____
ROOT
ATOM      1  C   UNL     1      -0.151  -0.209  -2.507  0.00  0.00    -0.040 C 
ATOM      2  C   UNL     1       0.521  -0.801  -3.744  0.00  0.00    -0.011 C 
ATOM      3  C   UNL     1      -0.456  -0.698  -4.921  0.00  0.00    +0.003 C 
ATOM      4  C   UNL     1      -1.603  -1.677  -4.682  0.00  0.00    +0.035 C 
ATOM      5  C   UNL     1      -2.184  -1.485  -3.305  0.00  0.00    -0.042 A 
ATOM      6  C   UNL     1      -1.515  -0.815  -2.305  0.00  0.00    -0.058 A 
ATOM      7  C   UNL     1      -2.104  -0.678  -1.055  0.00  0.00    +0.006 A 
ATOM      8  C   UNL     1      -3.354  -1.205  -0.805  0.00  0.00    +0.045 A 
ATOM      9  C   UNL     1      -4.030  -1.877  -1.812  0.00  0.00    +0.117 A 
ATOM     10  C   UNL     1      -3.443  -2.013  -3.058  0.00  0.00    +0.049 A 
ENDROOT
BRANCH   1  11
ATOM     11  N   UNL     1       0.680  -0.484  -1.327  0.00  0.00    +0.390 N 
ATOM     12  H   UNL     1       0.183  -0.205  -0.494  0.00  0.00    -0.084 HD
ATOM     13  H   UNL     1       1.542   0.036  -1.394  0.00  0.00    -0.084 HD
BRANCH  11  15
ATOM     14  C   UNL     1      -0.307  -2.696  -0.967  0.00  0.00    -0.006 C 
ATOM     15  C   UNL     1       0.979  -1.921  -1.262  0.00  0.00    -0.005 C 
BRANCH  15  16
ATOM     16  C   UNL     1       1.981  -2.176  -0.166  0.00  0.00    +0.119 A 
ATOM     17  N   UNL     1       1.952  -1.678   1.040  0.00  0.00    -0.136 NA
ATOM     18  N   UNL     1       2.962  -2.108   1.710  0.00  0.00    -0.138 NA
ATOM     19  C   UNL     1       3.681  -2.900   0.962  0.00  0.00    +0.224 A 
ATOM     20  N   UNL     1       3.076  -2.969  -0.248  0.00  0.00    -0.322 N 
ATOM     21  C   UNL     1       3.518  -3.743  -1.411  0.00  0.00    +0.151 C 
ENDBRANCH  15  16
ENDBRANCH  11  15
ENDBRANCH   1  11
BRANCH   9  22
ATOM     22  O   UNL     1      -5.263  -2.398  -1.577  0.00  0.00    -0.507 OA
ATOM     23  H   UNL     1      -5.990  -1.789  -1.768  0.00  0.00    +0.292 HD
ENDBRANCH   9  22
TORSDOF 4
