REMARK  Name = ZINC43736569
REMARK  10 active torsions:
REMARK  status: ('A' for Active; 'I' for Inactive)
REMARK    1  A    between atoms: C_1  and  C_2
REMARK    2  A    between atoms: C_2  and  C_3
REMARK    3  A    between atoms: C_3  and  C_4
REMARK    4  A    between atoms: C_4  and  N_5
REMARK    5  A    between atoms: C_6  and  C_7
REMARK    6  A    between atoms: C_10  and  O_38
REMARK    7  A    between atoms: C_13  and  O_37
REMARK    8  A    between atoms: C_22  and  C_36
REMARK    9  A    between atoms: C_23  and  O_35
REMARK   10  A    between atoms: C_26  and  C_28
REMARK                            x       y       z     vdW  Elec       q    Type
REMARK                         _______ _______ _______ _____ _____    ______ ____
ROOT
ATOM      1  C   UNL     1       3.336  -3.603  -3.429  0.00  0.00    +0.036 C 
ATOM      2  C   UNL     1       3.444  -5.136  -3.420  0.00  0.00    +0.018 C 
ATOM      3  C   UNL     1       2.060  -5.774  -3.426  0.00  0.00    +0.032 C 
ATOM      4  C   UNL     1       1.245  -5.310  -4.630  0.00  0.00    +0.117 C 
ATOM      5  C   UNL     1       1.178  -3.788  -4.696  0.00  0.00    +0.067 C 
ATOM      6  C   UNL     1       2.585  -3.179  -4.687  0.00  0.00    +0.079 C 
ATOM      7  C   UNL     1       2.469  -1.661  -4.777  0.00  0.00    +0.036 C 
ATOM      8  C   UNL     1       3.809  -0.975  -4.499  0.00  0.00    +0.009 C 
ATOM      9  C   UNL     1       4.939  -1.987  -4.518  0.00  0.00    +0.025 C 
ATOM     10  C   UNL     1       4.750  -3.029  -3.410  0.00  0.00    +0.009 C 
ATOM     11  C   UNL     1       5.139  -2.489  -2.043  0.00  0.00    +0.005 C 
ATOM     12  C   UNL     1       6.596  -1.984  -2.040  0.00  0.00    +0.010 C 
ATOM     13  C   UNL     1       6.709  -0.870  -3.056  0.00  0.00    +0.003 C 
ATOM     14  C   UNL     1       6.324  -1.418  -4.445  0.00  0.00    +0.075 C 
ATOM     15  C   UNL     1       6.684  -0.245  -5.360  0.00  0.00    +0.036 C 
ATOM     16  C   UNL     1       7.989   0.313  -4.730  0.00  0.00    +0.011 C 
ATOM     17  C   UNL     1       8.150  -0.397  -3.356  0.00  0.00    +0.043 C 
ATOM     18  C   UNL     1       5.898   0.352  -2.630  0.00  0.00    +0.014 C 
ENDROOT
BRANCH  17  19
ATOM     19  C   UNL     1       8.615   0.593  -2.286  0.00  0.00    +0.204 C 
ATOM     20  C   UNL     1      10.030   1.038  -2.572  0.00  0.00    +0.024 C 
ATOM     21  C   UNL     1      10.768   0.670  -1.527  0.00  0.00    +0.091 C 
ATOM     22  C   UNL     1       9.908  -0.005  -0.549  0.00  0.00    +0.332 C 
ATOM     23  O   UNL     1      10.283  -0.460   0.514  0.00  0.00    -0.246 OA
ATOM     24  O   UNL     1       8.642  -0.045  -1.005  0.00  0.00    -0.454 OA
ENDBRANCH  17  19
BRANCH   1  26
ATOM     25  N   UNL     1       2.289  -4.018  -1.292  0.00  0.00    -0.393 N 
ATOM     26  C   UNL     1       2.573  -3.167  -2.204  0.00  0.00    +0.060 C 
ATOM     27  H   UNL     1       2.638  -4.921  -1.345  0.00  0.00    +0.159 HD
BRANCH  25  28
ATOM     28  C   UNL     1       1.435  -3.627  -0.167  0.00  0.00    +0.112 C 
BRANCH  28  29
ATOM     29  C   UNL     1       0.129  -4.423  -0.217  0.00  0.00    +0.021 C 
BRANCH  29  31
ATOM     30  C   UNL     1      -2.069  -4.810   0.906  0.00  0.00    +0.004 C 
ATOM     31  C   UNL     1      -0.762  -4.015   0.957  0.00  0.00    -0.002 C 
ENDBRANCH  29  31
ENDBRANCH  28  29
ENDBRANCH  25  28
ENDBRANCH   1  26
BRANCH  14  32
ATOM     32  O   UNL     1       7.248  -2.488  -4.771  0.00  0.00    -0.388 OA
ATOM     33  H   UNL     1       7.112  -2.872  -5.648  0.00  0.00    +0.210 HD
ENDBRANCH  14  32
BRANCH   6  34
ATOM     34  O   UNL     1       3.263  -3.675  -5.850  0.00  0.00    -0.388 OA
ATOM     35  H   UNL     1       2.836  -3.440  -6.685  0.00  0.00    +0.210 HD
ENDBRANCH   6  34
BRANCH   4  36
ATOM     36  O   UNL     1       1.808  -5.836  -5.832  0.00  0.00    -0.392 OA
ATOM     37  H   UNL     1       1.832  -6.802  -5.865  0.00  0.00    +0.210 HD
ENDBRANCH   4  36
TORSDOF 8
