REMARK  Name = ZINC66475954
REMARK  12 active torsions:
REMARK  status: ('A' for Active; 'I' for Inactive)
REMARK    1  A    between atoms: C_1  and  C_2
REMARK    2  A    between atoms: C_2  and  O_3
REMARK    3  A    between atoms: O_3  and  C_4
REMARK    4  A    between atoms: C_9  and  C_10
REMARK    5  A    between atoms: C_10  and  N_11
REMARK    6  A    between atoms: N_11  and  C_12
REMARK    7  A    between atoms: C_12  and  C_13
REMARK    8  A    between atoms: C_13  and  C_15
REMARK    9  A    between atoms: C_13  and  O_23
REMARK   10  A    between atoms: C_15  and  N_16
REMARK   11  A    between atoms: C_19  and  C_22
REMARK   12  A    between atoms: C_25  and  C_28
REMARK                            x       y       z     vdW  Elec       q    Type
REMARK                         _______ _______ _______ _____ _____    ______ ____
ROOT
ATOM      1  N   UNL     1      -4.239  -1.011  -1.333  0.00  0.00    +0.383 N 
ATOM      2  H   UNL     1      -3.437  -0.495  -1.664  0.00  0.00    -0.085 HD
ATOM      3  H   UNL     1      -4.410  -1.795  -1.945  0.00  0.00    -0.085 HD
ENDROOT
BRANCH   1   4
ATOM      4  C   UNL     1      -3.979  -1.499   0.027  0.00  0.00    -0.043 C 
BRANCH   4  10
ATOM      5  C   UNL     1      -1.498  -1.849   0.006  0.00  0.00    +0.122 A 
ATOM      6  C   UNL     1      -0.389  -2.683  -0.003  0.00  0.00    +0.053 A 
ATOM      7  C   UNL     1      -0.556  -4.050  -0.007  0.00  0.00    +0.001 A 
ATOM      8  C   UNL     1      -1.827  -4.611   0.005  0.00  0.00    +0.125 A 
ATOM      9  C   UNL     1      -2.936  -3.770   0.009  0.00  0.00    +0.051 A 
ATOM     10  C   UNL     1      -2.771  -2.400   0.016  0.00  0.00    -0.019 A 
ATOM     11  O   UNL     1      -1.764  -5.972   0.021  0.00  0.00    -0.488 OA
ATOM     12  C   UNL     1      -0.462  -6.391  -0.424  0.00  0.00    +0.175 C 
ATOM     13  C   UNL     1       0.436  -5.196  -0.028  0.00  0.00    +0.083 C 
ATOM     14  C   UNL     1      -0.026  -7.666   0.299  0.00  0.00    +0.052 C 
BRANCH   5  15
ATOM     15  O   UNL     1      -1.339  -0.499   0.012  0.00  0.00    -0.492 OA
BRANCH  15  17
ATOM     16  C   UNL     1      -0.019   1.526   0.010  0.00  0.00    +0.048 C 
ATOM     17  C   UNL     1       0.002  -0.004   0.002  0.00  0.00    +0.225 C 
ENDBRANCH  15  17
ENDBRANCH   5  15
ENDBRANCH   4  10
ENDBRANCH   1   4
BRANCH   1  18
ATOM     18  C   UNL     1      -5.416  -0.133  -1.322  0.00  0.00    -0.052 C 
BRANCH  18  19
ATOM     19  C   UNL     1      -5.687   0.376  -2.739  0.00  0.00    +0.081 C 
BRANCH  19  20
ATOM     20  O   UNL     1      -4.552   1.107  -3.208  0.00  0.00    -0.395 OA
ATOM     21  H   UNL     1      -4.328   1.877  -2.666  0.00  0.00    +0.210 HD
ENDBRANCH  19  20
BRANCH  19  22
ATOM     22  C   UNL     1      -6.913   1.291  -2.727  0.00  0.00    -0.049 C 
BRANCH  22  23
ATOM     23  N   UNL     1      -7.245   1.684  -4.103  0.00  0.00    +0.381 N 
ATOM     24  C   UNL     1      -7.644   0.495  -4.867  0.00  0.00    -0.078 C 
ATOM     25  C   UNL     1      -7.912   0.885  -6.322  0.00  0.00    -0.016 C 
ATOM     26  C   UNL     1      -9.036   1.924  -6.367  0.00  0.00    -0.018 C 
ATOM     27  C   UNL     1      -8.640   3.128  -5.507  0.00  0.00    -0.016 C 
ATOM     28  C   UNL     1      -8.345   2.655  -4.082  0.00  0.00    -0.078 C 
ATOM     29  C   UNL     1      -9.256   2.378  -7.812  0.00  0.00    +0.007 C 
ATOM     30  H   UNL     1      -6.436   2.103  -4.537  0.00  0.00    -0.082 HD
ENDBRANCH  22  23
ENDBRANCH  19  22
ENDBRANCH  18  19
ENDBRANCH   1  18
TORSDOF 9
