REMARK  Name = ZINC37352572
REMARK  5 active torsions:
REMARK  status: ('A' for Active; 'I' for Inactive)
REMARK    1  A    between atoms: C_1  and  C_2
REMARK    2  A    between atoms: C_5  and  C_7
REMARK    3  A    between atoms: C_8  and  C_21
REMARK    4  A    between atoms: C_9  and  N_20
REMARK    5  A    between atoms: N_10  and  C_12
REMARK                            x       y       z     vdW  Elec       q    Type
REMARK                         _______ _______ _______ _____ _____    ______ ____
ROOT
ATOM      1  C   UNL     1       1.039  -4.035  -0.024  0.00  0.00    +0.075 A 
ATOM      2  C   UNL     1       2.088  -4.526   0.779  0.00  0.00    +0.014 A 
ATOM      3  C   UNL     1       2.268  -5.837   0.470  0.00  0.00    +0.116 A 
ATOM      4  N   UNL     1       1.367  -6.163  -0.494  0.00  0.00    -0.268 N 
ATOM      5  N   UNL     1       0.607  -5.022  -0.782  0.00  0.00    -0.294 N 
ATOM      6  C   UNL     1       2.869  -3.738   1.799  0.00  0.00    +0.049 C 
ATOM      7  H   UNL     1      -0.113  -4.968  -1.429  0.00  0.00    +0.187 HD
ENDROOT
BRANCH   4   8
ATOM      8  C   UNL     1       1.214  -7.479  -1.118  0.00  0.00    +0.129 C 
ATOM      9  C   UNL     1       1.417  -7.360  -2.638  0.00  0.00    +0.051 C 
ATOM     10  C   UNL     1       0.947  -8.659  -3.336  0.00  0.00    +0.168 C 
ATOM     11  S   UNL     1      -0.349  -9.287  -2.192  0.00  0.00    -0.029 S 
ATOM     12  O   UNL     1      -1.617  -9.172  -2.821  0.00  0.00    -0.174 OA
ATOM     13  O   UNL     1       0.063 -10.544  -1.673  0.00  0.00    -0.174 OA
ATOM     14  C   UNL     1      -0.222  -8.018  -0.862  0.00  0.00    +0.192 C 
ENDBRANCH   4   8
BRANCH   1  19
ATOM     15  C   UNL     1      -0.018   1.503   0.010  0.00  0.00    +0.051 C 
ATOM     16  C   UNL     1       0.002  -0.004   0.002  0.00  0.00    -0.013 A 
ATOM     17  C   UNL     1      -1.042  -0.872   0.002  0.00  0.00    +0.011 A 
ATOM     18  C   UNL     1      -0.789  -2.227  -0.007  0.00  0.00    +0.018 A 
ATOM     19  C   UNL     1       0.512  -2.653  -0.015  0.00  0.00    +0.037 A 
ATOM     20  S   UNL     1       1.405  -1.107  -0.018  0.00  0.00    -0.092 S 
ENDBRANCH   1  19
BRANCH   3  21
ATOM     21  N   UNL     1       3.209  -6.692   1.038  0.00  0.00    -0.343 N 
ATOM     22  H   UNL     1       3.812  -6.363   1.723  0.00  0.00    +0.144 HD
ATOM     23  H   UNL     1       3.261  -7.616   0.749  0.00  0.00    +0.144 HD
ENDBRANCH   3  21
TORSDOF 3
