REMARK  Name = ZINC15836645
REMARK  4 active torsions:
REMARK  status: ('A' for Active; 'I' for Inactive)
REMARK    1  A    between atoms: C_1  and  N_2
REMARK    2  A    between atoms: C_6  and  S_12
REMARK    3  A    between atoms: S_12  and  N_15
REMARK    4  A    between atoms: C_19  and  C_21
REMARK                            x       y       z     vdW  Elec       q    Type
REMARK                         _______ _______ _______ _____ _____    ______ ____
ROOT
ATOM      1  S   UNL     1       3.527   1.005  -1.695  0.00  0.00    +0.061 S 
ATOM      2  O   UNL     1       4.291   1.985  -1.006  0.00  0.00    -0.153 OA
ATOM      3  O   UNL     1       4.006  -0.313  -1.923  0.00  0.00    -0.153 OA
ENDROOT
BRANCH   1   9
ATOM      4  C   UNL     1       2.090   4.292  -7.740  0.00  0.00    +0.156 C 
ATOM      5  N   UNL     1       2.221   2.985  -7.091  0.00  0.00    -0.277 N 
ATOM      6  C   UNL     1       2.551   2.756  -5.755  0.00  0.00    +0.090 A 
ATOM      7  C   UNL     1       2.838   3.594  -4.689  0.00  0.00    +0.031 A 
ATOM      8  C   UNL     1       3.135   3.055  -3.453  0.00  0.00    +0.031 A 
ATOM      9  C   UNL     1       3.147   1.683  -3.276  0.00  0.00    +0.109 A 
ATOM     10  C   UNL     1       2.867   0.841  -4.336  0.00  0.00    +0.077 A 
ATOM     11  C   UNL     1       2.563   1.373  -5.579  0.00  0.00    +0.159 A 
ATOM     12  O   UNL     1       2.250   0.812  -6.773  0.00  0.00    -0.407 OA
ATOM     13  C   UNL     1       2.047   1.783  -7.677  0.00  0.00    +0.421 A 
ATOM     14  O   UNL     1       1.750   1.607  -8.842  0.00  0.00    -0.223 OA
ENDBRANCH   1   9
BRANCH   1  15
ATOM     15  N   UNL     1       2.098   0.853  -0.871  0.00  0.00    -0.169 NA
ATOM     16  C   UNL     1       1.494   1.879  -0.002  0.00  0.00    +0.110 C 
ATOM     17  C   UNL     1      -0.019   1.547   0.011  0.00  0.00    +0.019 C 
ATOM     18  C   UNL     1       0.002  -0.004   0.002  0.00  0.00    +0.027 C 
ATOM     19  C   UNL     1       1.223  -0.328  -0.885  0.00  0.00    +0.110 C 
BRANCH  19  20
ATOM     20  C   UNL     1       1.957  -1.521  -0.330  0.00  0.00    -0.028 A 
ATOM     21  C   UNL     1       2.805  -1.368   0.752  0.00  0.00    +0.008 A 
ATOM     22  C   UNL     1       3.474  -2.463   1.266  0.00  0.00    +0.038 A 
ATOM     23  C   UNL     1       3.305  -3.710   0.690  0.00  0.00    +0.123 A 
ATOM     24  C   UNL     1       2.461  -3.861  -0.397  0.00  0.00    +0.038 A 
ATOM     25  C   UNL     1       1.788  -2.766  -0.906  0.00  0.00    +0.008 A 
ATOM     26  F   UNL     1       3.964  -4.780   1.188  0.00  0.00    -0.205 F 
ENDBRANCH  19  20
ENDBRANCH   1  15
TORSDOF 3
