REMARK  Name = ZINC63941319
REMARK  10 active torsions:
REMARK  status: ('A' for Active; 'I' for Inactive)
REMARK    1  A    between atoms: C_1  and  C_2
REMARK    2  A    between atoms: C_2  and  C_3
REMARK    3  A    between atoms: C_2  and  C_4
REMARK    4  A    between atoms: C_8  and  N_11
REMARK    5  A    between atoms: C_12  and  C_14
REMARK    6  A    between atoms: N_19  and  C_21
REMARK    7  A    between atoms: C_21  and  C_22
REMARK    8  A    between atoms: C_22  and  C_23
REMARK    9  A    between atoms: C_26  and  O_32
REMARK   10  A    between atoms: O_32  and  C_33
REMARK                            x       y       z     vdW  Elec       q    Type
REMARK                         _______ _______ _______ _____ _____    ______ ____
ROOT
ATOM      1  C   UNL     1      -4.155  -4.165  -4.415  0.00  0.00    +0.101 C 
ATOM      2  C   UNL     1      -4.545  -3.214  -5.570  0.00  0.00    +0.110 C 
ATOM      3  C   UNL     1      -5.349  -4.084  -6.511  0.00  0.00    +0.216 C 
ATOM      4  O   UNL     1      -5.605  -3.808  -7.664  0.00  0.00    -0.276 OA
ATOM      5  N   UNL     1      -5.739  -5.207  -5.883  0.00  0.00    -0.300 N 
ATOM      6  C   UNL     1      -5.272  -5.229  -4.491  0.00  0.00    +0.121 C 
ENDROOT
BRANCH   1   8
ATOM      7  N   UNL     1      -3.326  -2.434  -2.854  0.00  0.00    -0.290 N 
ATOM      8  C   UNL     1      -4.185  -3.446  -3.091  0.00  0.00    +0.220 C 
ATOM      9  O   UNL     1      -4.982  -3.777  -2.239  0.00  0.00    -0.275 OA
ATOM     10  H   UNL     1      -2.689  -2.169  -3.535  0.00  0.00    +0.151 HD
BRANCH   7  14
ATOM     11  C   UNL     1      -1.433  -0.534   0.013  0.00  0.00    +0.132 C 
ATOM     12  N   UNL     1      -1.468  -2.029   0.013  0.00  0.00    -0.241 NA
ATOM     13  N   UNL     1      -2.715  -2.549  -0.507  0.00  0.00    -0.227 NA
ATOM     14  C   UNL     1      -3.356  -1.735  -1.567  0.00  0.00    +0.216 C 
ATOM     15  S   UNL     1      -2.280  -0.236  -1.604  0.00  0.00    -0.102 S 
ATOM     16  H   UNL     1      -0.679  -2.409  -0.489  0.00  0.00    +0.142 HD
ATOM     17  H   UNL     1      -2.611  -3.509  -0.801  0.00  0.00    +0.143 HD
BRANCH  11  19
ATOM     18  C   UNL     1      -0.019   1.526   0.010  0.00  0.00    +0.009 C 
ATOM     19  C   UNL     1       0.002  -0.004   0.002  0.00  0.00    +0.011 C 
ATOM     20  C   UNL     1       0.742  -0.511   1.242  0.00  0.00    +0.009 C 
ENDBRANCH  11  19
ENDBRANCH   7  14
ENDBRANCH   1   8
BRANCH   5  21
ATOM     21  C   UNL     1      -6.528  -6.272  -6.507  0.00  0.00    +0.112 C 
BRANCH  21  22
ATOM     22  C   UNL     1      -5.587  -7.298  -7.142  0.00  0.00    +0.052 C 
BRANCH  22  23
ATOM     23  C   UNL     1      -6.399  -8.394  -7.784  0.00  0.00    -0.040 C 
ATOM     24  C   UNL     1      -6.771  -8.476  -9.081  0.00  0.00    +0.002 A 
ATOM     25  C   UNL     1      -6.542  -7.605 -10.239  0.00  0.00    +0.055 A 
ATOM     26  C   UNL     1      -7.050  -7.953 -11.446  0.00  0.00    +0.121 A 
ATOM     27  C   UNL     1      -7.796  -9.129 -11.636  0.00  0.00    +0.047 A 
ATOM     28  C   UNL     1      -8.060  -9.992 -10.632  0.00  0.00    +0.029 A 
ATOM     29  C   UNL     1      -7.558  -9.714  -9.282  0.00  0.00    +0.043 A 
ATOM     30  N   UNL     1      -7.668 -10.371  -8.154  0.00  0.00    -0.380 N 
ATOM     31  C   UNL     1      -6.957  -9.627  -7.109  0.00  0.00    +0.144 C 
ATOM     32  H   UNL     1      -8.138 -11.211  -8.031  0.00  0.00    +0.160 HD
BRANCH  26  33
ATOM     33  O   UNL     1      -6.830  -7.137 -12.511  0.00  0.00    -0.495 OA
ATOM     34  C   UNL     1      -7.383  -7.542 -13.764  0.00  0.00    +0.277 C 
ENDBRANCH  26  33
ENDBRANCH  22  23
ENDBRANCH  21  22
ENDBRANCH   5  21
TORSDOF 7
