REMARK  Name = ZINC22804644
REMARK  7 active torsions:
REMARK  status: ('A' for Active; 'I' for Inactive)
REMARK    1  A    between atoms: C_1  and  C_2
REMARK    2  A    between atoms: C_2  and  C_4
REMARK    3  A    between atoms: C_2  and  N_16
REMARK    4  A    between atoms: N_6  and  C_7
REMARK    5  A    between atoms: C_10  and  C_13
REMARK    6  A    between atoms: N_19  and  C_22
REMARK    7  A    between atoms: C_22  and  C_23
REMARK                            x       y       z     vdW  Elec       q    Type
REMARK                         _______ _______ _______ _____ _____    ______ ____
ROOT
ATOM      1  C   UNL     1       0.620  -0.137  -1.304  0.00  0.00    -0.004 C 
ATOM      2  C   UNL     1      -0.070   0.123   0.036  0.00  0.00    +0.017 C 
ENDROOT
BRANCH   2   3
ATOM      3  N   UNL     1      -1.360  -0.579   0.067  0.00  0.00    +0.389 N 
ATOM      4  C   UNL     1      -1.169  -2.023   0.260  0.00  0.00    -0.062 C 
ATOM      5  C   UNL     1      -2.535  -2.706   0.366  0.00  0.00    +0.066 C 
ATOM      6  N   UNL     1      -3.309  -2.438  -0.853  0.00  0.00    -0.301 NA
ATOM      7  C   UNL     1      -3.501  -0.994  -1.046  0.00  0.00    +0.066 C 
ATOM      8  C   UNL     1      -2.135  -0.311  -1.152  0.00  0.00    -0.062 C 
ATOM      9  H   UNL     1      -1.932  -0.194   0.925  0.00  0.00    -0.081 HD
BRANCH   6  10
ATOM     10  C   UNL     1      -4.599  -3.140  -0.822  0.00  0.00    +0.126 C 
BRANCH  10  11
ATOM     11  C   UNL     1      -4.363  -4.628  -0.871  0.00  0.00    +0.004 A 
ATOM     12  C   UNL     1      -4.183  -5.497   0.153  0.00  0.00    +0.012 A 
ATOM     13  C   UNL     1      -3.984  -6.835  -0.131  0.00  0.00    +0.008 A 
ATOM     14  C   UNL     1      -3.964  -7.236  -1.426  0.00  0.00    +0.045 A 
ATOM     15  S   UNL     1      -4.240  -5.700  -2.292  0.00  0.00    -0.100 S 
ENDBRANCH  10  11
ENDBRANCH   6  10
ENDBRANCH   2   3
BRANCH   2  16
ATOM     16  C   UNL     1      -0.299   1.603   0.204  0.00  0.00    +0.203 C 
ATOM     17  O   UNL     1      -1.429   2.045   0.215  0.00  0.00    -0.277 OA
ATOM     18  N   UNL     1       0.751   2.437   0.342  0.00  0.00    -0.287 N 
ATOM     19  H   UNL     1       1.776   2.048   0.255  0.00  0.00    +0.155 HD
BRANCH  18  20
ATOM     20  C   UNL     1       0.538   3.791   0.597  0.00  0.00    +0.033 A 
ATOM     21  C   UNL     1      -0.547   4.443   0.019  0.00  0.00    +0.024 A 
ATOM     22  C   UNL     1      -0.763   5.779   0.272  0.00  0.00    +0.015 A 
ATOM     23  C   UNL     1       0.114   6.483   1.101  0.00  0.00    +0.037 A 
ATOM     24  C   UNL     1       1.206   5.826   1.675  0.00  0.00    +0.015 A 
ATOM     25  C   UNL     1       1.413   4.489   1.423  0.00  0.00    +0.024 A 
BRANCH  23  26
ATOM     26  C   UNL     1      -0.112   7.916   1.370  0.00  0.00    +0.242 C 
ATOM     27  O   UNL     1       0.653   8.527   2.092  0.00  0.00    -0.270 OA
ATOM     28  N   UNL     1      -1.165   8.548   0.815  0.00  0.00    -0.325 N 
ATOM     29  H   UNL     1      -1.333   9.617   1.016  0.00  0.00    +0.145 HD
ATOM     30  H   UNL     1      -1.856   7.996   0.162  0.00  0.00    +0.145 HD
ENDBRANCH  23  26
ENDBRANCH  18  20
ENDBRANCH   2  16
TORSDOF 6
