REMARK  Name = ZINC00915167
REMARK  8 active torsions:
REMARK  status: ('A' for Active; 'I' for Inactive)
REMARK    1  A    between atoms: C_4  and  C_7
REMARK    2  A    between atoms: C_7  and  C_8
REMARK    3  A    between atoms: C_8  and  N_9
REMARK    4  A    between atoms: C_16  and  C_19
REMARK    5  A    between atoms: C_16  and  O_29
REMARK    6  A    between atoms: C_19  and  C_20
REMARK    7  A    between atoms: C_20  and  C_22
REMARK    8  A    between atoms: C_26  and  N_28
REMARK                            x       y       z     vdW  Elec       q    Type
REMARK                         _______ _______ _______ _____ _____    ______ ____
ROOT
ATOM      1  N   UNL     1      -0.836  -3.500  -1.942  0.00  0.00    -0.268 N 
ATOM      2  C   UNL     1      -2.090  -3.775  -1.395  0.00  0.00    +0.043 A 
ATOM      3  C   UNL     1      -3.118  -4.603  -1.842  0.00  0.00    +0.024 A 
ATOM      4  C   UNL     1      -4.285  -4.711  -1.115  0.00  0.00    +0.002 A 
ATOM      5  C   UNL     1      -4.445  -4.002   0.061  0.00  0.00    +0.000 A 
ATOM      6  C   UNL     1      -3.428  -3.179   0.512  0.00  0.00    +0.009 A 
ATOM      7  C   UNL     1      -2.262  -3.068  -0.212  0.00  0.00    +0.015 A 
ATOM      8  C   UNL     1      -0.993  -2.276  -0.001  0.00  0.00    +0.175 C 
ATOM      9  C   UNL     1      -0.132  -2.636  -1.193  0.00  0.00    +0.257 C 
ATOM     10  O   UNL     1       0.984  -2.221  -1.427  0.00  0.00    -0.272 OA
ENDROOT
BRANCH   8  11
ATOM     11  O   UNL     1      -0.352  -2.666   1.216  0.00  0.00    -0.374 OA
ATOM     12  H   UNL     1       0.483  -2.209   1.384  0.00  0.00    +0.211 HD
ENDBRANCH   8  11
BRANCH   1  13
ATOM     13  C   UNL     1      -0.344  -4.087  -3.191  0.00  0.00    +0.118 C 
BRANCH  13  14
ATOM     14  C   UNL     1       0.392  -5.394  -2.886  0.00  0.00    +0.054 C 
BRANCH  14  18
ATOM     15  C   UNL     1       1.826  -7.105  -6.527  0.00  0.00    +0.000 A 
ATOM     16  C   UNL     1       2.620  -6.223  -5.819  0.00  0.00    +0.000 A 
ATOM     17  C   UNL     1       2.156  -5.669  -4.640  0.00  0.00    +0.004 A 
ATOM     18  C   UNL     1       0.898  -5.997  -4.171  0.00  0.00    -0.046 A 
ATOM     19  C   UNL     1       0.106  -6.884  -4.876  0.00  0.00    +0.004 A 
ATOM     20  C   UNL     1       0.569  -7.434  -6.057  0.00  0.00    +0.000 A 
ENDBRANCH  14  18
ENDBRANCH  13  14
ENDBRANCH   1  13
BRANCH   8  21
ATOM     21  C   UNL     1      -1.293  -0.775   0.010  0.00  0.00    +0.129 C 
BRANCH  21  22
ATOM     22  C   UNL     1       0.002  -0.004   0.002  0.00  0.00    +0.167 C 
ATOM     23  O   UNL     1       1.060  -0.596  -0.011  0.00  0.00    -0.292 OA
BRANCH  22  24
ATOM     24  C   UNL     1      -0.018   1.468   0.010  0.00  0.00    +0.019 A 
ATOM     25  C   UNL     1      -1.237   2.153   0.020  0.00  0.00    +0.011 A 
ATOM     26  C   UNL     1      -1.252   3.532   0.032  0.00  0.00    +0.002 A 
ATOM     27  C   UNL     1      -0.065   4.242   0.024  0.00  0.00    +0.023 A 
ATOM     28  C   UNL     1       1.153   3.571   0.010  0.00  0.00    +0.025 A 
ATOM     29  C   UNL     1       1.181   2.186   0.003  0.00  0.00    +0.034 A 
BRANCH  28  30
ATOM     30  N   UNL     1       2.348   4.294   0.002  0.00  0.00    -0.358 N 
ATOM     31  H   UNL     1       3.198   3.826  -0.008  0.00  0.00    +0.142 HD
ATOM     32  H   UNL     1       2.329   5.264   0.007  0.00  0.00    +0.142 HD
ENDBRANCH  28  30
ENDBRANCH  22  24
ENDBRANCH  21  22
ENDBRANCH   8  21
TORSDOF 8
