REMARK  Name = ZINC15946887
REMARK  6 active torsions:
REMARK  status: ('A' for Active; 'I' for Inactive)
REMARK    1  A    between atoms: C_1  and  C_2
REMARK    2  A    between atoms: C_9  and  N_21
REMARK    3  A    between atoms: C_10  and  C_11
REMARK    4  A    between atoms: N_13  and  C_14
REMARK    5  A    between atoms: C_22  and  C_24
REMARK    6  A    between atoms: C_24  and  N_61
REMARK                            x       y       z     vdW  Elec       q    Type
REMARK                         _______ _______ _______ _____ _____    ______ ____
ROOT
ATOM      1  C   UNL     1       7.798  -2.261  -0.185  0.00  0.00    +0.008 C 
ATOM      2  C   UNL     1       6.768  -1.161  -0.451  0.00  0.00    -0.009 C 
ATOM      3  C   UNL     1       7.103   0.074   0.389  0.00  0.00    +0.008 C 
ATOM      4  C   UNL     1       6.235   1.254  -0.052  0.00  0.00    +0.037 C 
ATOM      5  C   UNL     1       4.774   0.820  -0.039  0.00  0.00    -0.023 A 
ATOM      6  C   UNL     1       4.438  -0.488  -0.043  0.00  0.00    -0.004 A 
ATOM      7  S   UNL     1       2.667  -0.499  -0.024  0.00  0.00    -0.077 S 
ATOM      8  C   UNL     1       2.377   1.209  -0.011  0.00  0.00    +0.084 A 
ATOM      9  C   UNL     1       3.656   1.747  -0.028  0.00  0.00    +0.069 A 
ATOM     10  C   UNL     1       5.369  -1.661  -0.060  0.00  0.00    +0.046 C 
ENDROOT
BRANCH   9  11
ATOM     11  C   UNL     1       3.870   3.197  -0.031  0.00  0.00    +0.251 C 
ATOM     12  O   UNL     1       3.973   3.799   1.022  0.00  0.00    -0.270 OA
ATOM     13  N   UNL     1       3.953   3.864  -1.199  0.00  0.00    -0.279 N 
ATOM     14  H   UNL     1       3.935   3.377  -2.038  0.00  0.00    +0.155 HD
BRANCH  13  15
ATOM     15  C   UNL     1       4.064   5.260  -1.202  0.00  0.00    +0.069 A 
ATOM     16  C   UNL     1       4.775   5.904  -0.199  0.00  0.00    +0.026 A 
ATOM     17  C   UNL     1       4.887   7.280  -0.207  0.00  0.00    +0.002 A 
ATOM     18  C   UNL     1       4.283   8.019  -1.208  0.00  0.00    +0.003 A 
ATOM     19  C   UNL     1       3.569   7.383  -2.207  0.00  0.00    +0.040 A 
ATOM     20  C   UNL     1       3.457   6.005  -2.208  0.00  0.00    +0.144 A 
ATOM     21  F   UNL     1       2.759   5.383  -3.183  0.00  0.00    -0.204 F 
ENDBRANCH  13  15
ENDBRANCH   9  11
BRANCH   8  22
ATOM     22  N   UNL     1       1.161   1.876   0.005  0.00  0.00    -0.281 N 
ATOM     23  C   UNL     1       0.009   1.177   0.014  0.00  0.00    +0.201 C 
ATOM     24  O   UNL     1       0.035  -0.036   0.008  0.00  0.00    -0.278 OA
ATOM     25  H   UNL     1       1.140   2.845   0.011  0.00  0.00    +0.155 HD
BRANCH  23  26
ATOM     26  C   UNL     1      -1.312   1.902   0.026  0.00  0.00    +0.019 C 
BRANCH  26  33
ATOM     27  C   UNL     1      -2.369   0.081  -1.189  0.00  0.00    -0.078 C 
ATOM     28  C   UNL     1      -3.613  -0.745  -1.367  0.00  0.00    -0.019 C 
ATOM     29  C   UNL     1      -4.590   0.032  -2.274  0.00  0.00    -0.002 C 
ATOM     30  C   UNL     1      -5.296   1.083  -1.551  0.00  0.00    -0.002 C 
ATOM     31  C   UNL     1      -4.332   2.140  -0.972  0.00  0.00    -0.019 C 
ATOM     32  C   UNL     1      -3.708   1.583   0.279  0.00  0.00    -0.078 C 
ATOM     33  N   UNL     1      -2.387   0.898   0.072  0.00  0.00    +0.385 N 
ATOM     34  H   UNL     1      -2.220   0.270   0.867  0.00  0.00    -0.081 HD
ENDBRANCH  26  33
ENDBRANCH  23  26
ENDBRANCH   8  22
TORSDOF 5
