REMARK  Name = ZINC32753374
REMARK  8 active torsions:
REMARK  status: ('A' for Active; 'I' for Inactive)
REMARK    1  A    between atoms: C_1  and  N_2
REMARK    2  A    between atoms: N_2  and  C_3
REMARK    3  A    between atoms: N_2  and  C_18
REMARK    4  A    between atoms: C_3  and  C_4
REMARK    5  A    between atoms: N_6  and  C_7
REMARK    6  A    between atoms: C_11  and  C_13
REMARK    7  A    between atoms: C_18  and  C_19
REMARK    8  A    between atoms: N_21  and  C_22
REMARK                            x       y       z     vdW  Elec       q    Type
REMARK                         _______ _______ _______ _____ _____    ______ ____
ROOT
ATOM      1  C   UNL     1      -0.334  -5.007   4.187  0.00  0.00    -0.095 C 
ATOM      2  N   UNL     1       1.013  -4.855   3.622  0.00  0.00    +0.389 N 
ATOM      3  H   UNL     1       1.585  -4.190   4.286  0.00  0.00    -0.081 HD
ENDROOT
BRANCH   2   4
ATOM      4  C   UNL     1       1.710  -6.147   3.566  0.00  0.00    +0.019 C 
BRANCH   4   5
ATOM      5  C   UNL     1       1.963  -6.642   4.967  0.00  0.00    +0.201 C 
ATOM      6  O   UNL     1       1.598  -5.983   5.918  0.00  0.00    -0.278 OA
ATOM      7  N   UNL     1       2.594  -7.816   5.163  0.00  0.00    -0.287 N 
ATOM      8  H   UNL     1       2.847  -8.455   4.303  0.00  0.00    +0.155 HD
BRANCH   7   9
ATOM      9  C   UNL     1       2.927  -8.224   6.460  0.00  0.00    +0.034 A 
ATOM     10  C   UNL     1       3.274  -7.280   7.418  0.00  0.00    +0.025 A 
ATOM     11  C   UNL     1       3.598  -7.684   8.698  0.00  0.00    +0.022 A 
ATOM     12  C   UNL     1       3.587  -9.029   9.024  0.00  0.00    +0.053 A 
ATOM     13  C   UNL     1       3.247  -9.972   8.069  0.00  0.00    +0.075 A 
ATOM     14  C   UNL     1       2.918  -9.572   6.789  0.00  0.00    +0.037 A 
ATOM     15 CL   UNL     1       4.001  -9.535  10.632  0.00  0.00    -0.083 Cl
BRANCH  13  16
ATOM     16  C   UNL     1       3.237 -11.436   8.428  0.00  0.00    +0.419 C 
ATOM     17  F   UNL     1       2.864 -12.187   7.308  0.00  0.00    -0.166 F 
ATOM     18  F   UNL     1       4.514 -11.823   8.845  0.00  0.00    -0.166 F 
ATOM     19  F   UNL     1       2.321 -11.656   9.462  0.00  0.00    -0.166 F 
ENDBRANCH  13  16
ENDBRANCH   7   9
ENDBRANCH   4   5
ENDBRANCH   2   4
BRANCH   2  20
ATOM     20  C   UNL     1       0.959  -4.228   2.294  0.00  0.00    +0.019 C 
BRANCH  20  21
ATOM     21  C   UNL     1       0.464  -2.811   2.427  0.00  0.00    +0.197 C 
ATOM     22  O   UNL     1       0.183  -2.367   3.520  0.00  0.00    -0.278 OA
ATOM     23  N   UNL     1       0.332  -2.038   1.331  0.00  0.00    -0.310 N 
ATOM     24  H   UNL     1       0.587  -2.441   0.340  0.00  0.00    +0.149 HD
BRANCH  23  25
ATOM     25  C   UNL     1      -0.150  -0.660   1.460  0.00  0.00    +0.110 C 
ATOM     26  C   UNL     1      -0.790  -0.219   0.142  0.00  0.00    +0.068 C 
ATOM     27  C   UNL     1      -1.016   1.298   0.200  0.00  0.00    +0.231 C 
ATOM     28  O   UNL     1       0.258   1.940   0.270  0.00  0.00    -0.492 OA
ATOM     29  C   UNL     1       1.148   1.487   1.191  0.00  0.00    +0.125 A 
ATOM     30  C   UNL     1       1.008   0.247   1.792  0.00  0.00    +0.014 A 
ATOM     31  C   UNL     1       1.945  -0.179   2.718  0.00  0.00    +0.009 A 
ATOM     32  C   UNL     1       3.016   0.629   3.048  0.00  0.00    +0.001 A 
ATOM     33  C   UNL     1       3.157   1.868   2.452  0.00  0.00    +0.004 A 
ATOM     34  C   UNL     1       2.227   2.297   1.527  0.00  0.00    +0.046 A 
ENDBRANCH  23  25
ENDBRANCH  20  21
ENDBRANCH   2  20
TORSDOF 7
