REMARK  Name = ZINC43671159
REMARK  10 active torsions:
REMARK  status: ('A' for Active; 'I' for Inactive)
REMARK    1  A    between atoms: C_1  and  C_2
REMARK    2  A    between atoms: N_5  and  C_8
REMARK    3  A    between atoms: C_8  and  C_10
REMARK    4  A    between atoms: C_8  and  C_25
REMARK    5  A    between atoms: C_10  and  N_11
REMARK    6  A    between atoms: N_14  and  C_15
REMARK    7  A    between atoms: C_18  and  C_21
REMARK    8  A    between atoms: N_23  and  C_24
REMARK    9  A    between atoms: C_25  and  C_26
REMARK   10  A    between atoms: C_25  and  C_27
REMARK                            x       y       z     vdW  Elec       q    Type
REMARK                         _______ _______ _______ _____ _____    ______ ____
ROOT
ATOM      1  N   UNL     1      -2.914  -3.915   0.458  0.00  0.00    -0.301 N 
ATOM      2  C   UNL     1      -4.199  -4.295   0.311  0.00  0.00    +0.304 C 
ATOM      3  O   UNL     1      -4.726  -4.995   1.154  0.00  0.00    -0.253 OA
ATOM      4  N   UNL     1      -4.899  -3.899  -0.771  0.00  0.00    -0.269 N 
ATOM      5  H   UNL     1      -2.493  -3.357  -0.215  0.00  0.00    +0.150 HD
ATOM      6  H   UNL     1      -4.455  -3.419  -1.487  0.00  0.00    +0.156 HD
ENDROOT
BRANCH   4   7
ATOM      7  C   UNL     1      -6.261  -4.181  -0.861  0.00  0.00    +0.035 A 
ATOM      8  C   UNL     1      -7.047  -4.182   0.288  0.00  0.00    +0.024 A 
ATOM      9  C   UNL     1      -8.393  -4.460   0.203  0.00  0.00    +0.015 A 
ATOM     10  C   UNL     1      -8.970  -4.739  -1.039  0.00  0.00    +0.037 A 
ATOM     11  C   UNL     1      -8.178  -4.737  -2.191  0.00  0.00    +0.015 A 
ATOM     12  C   UNL     1      -6.834  -4.454  -2.099  0.00  0.00    +0.024 A 
BRANCH  10  13
ATOM     13  C   UNL     1     -10.412  -5.038  -1.134  0.00  0.00    +0.244 C 
ATOM     14  O   UNL     1     -11.100  -5.040  -0.131  0.00  0.00    -0.270 OA
ATOM     15  N   UNL     1     -10.967  -5.307  -2.332  0.00  0.00    -0.314 N 
ATOM     16  C   UNL     1     -12.399  -5.603  -2.426  0.00  0.00    +0.128 C 
ATOM     17  H   UNL     1     -10.418  -5.305  -3.132  0.00  0.00    +0.149 HD
ENDBRANCH  10  13
ENDBRANCH   4   7
BRANCH   1  18
ATOM     18  C   UNL     1      -2.153  -4.345   1.634  0.00  0.00    +0.091 C 
BRANCH  18  19
ATOM     19  C   UNL     1      -0.750  -3.736   1.584  0.00  0.00    -0.048 C 
BRANCH  19  24
ATOM     20  C   UNL     1      -2.232   1.677   2.593  0.00  0.00    +0.007 C 
ATOM     21  C   UNL     1      -2.278   0.170   2.337  0.00  0.00    -0.018 C 
ATOM     22  C   UNL     1      -1.502  -0.560   3.437  0.00  0.00    -0.016 C 
ATOM     23  C   UNL     1      -1.484  -2.060   3.132  0.00  0.00    -0.078 C 
ATOM     24  N   UNL     1      -0.835  -2.292   1.836  0.00  0.00    +0.383 N 
ATOM     25  C   UNL     1      -1.613  -1.655   0.767  0.00  0.00    -0.078 C 
ATOM     26  C   UNL     1      -1.636  -0.140   0.981  0.00  0.00    -0.016 C 
ATOM     27  H   UNL     1       0.095  -1.901   1.853  0.00  0.00    -0.081 HD
ENDBRANCH  19  24
BRANCH  19  28
ATOM     28  C   UNL     1       0.128  -4.391   2.653  0.00  0.00    -0.029 C 
ATOM     29  C   UNL     1       0.320  -5.871   2.319  0.00  0.00    +0.005 C 
ATOM     30  C   UNL     1       1.490  -3.695   2.690  0.00  0.00    +0.005 C 
ENDBRANCH  19  28
ENDBRANCH  18  19
ENDBRANCH   1  18
TORSDOF 6
