REMARK  Name = ZINC06300767
REMARK  7 active torsions:
REMARK  status: ('A' for Active; 'I' for Inactive)
REMARK    1  A    between atoms: C_1  and  C_2
REMARK    2  A    between atoms: C_4  and  C_38
REMARK    3  A    between atoms: C_9  and  C_14
REMARK    4  A    between atoms: C_14  and  C_16
REMARK    5  A    between atoms: C_14  and  N_74
REMARK    6  A    between atoms: N_20  and  C_21
REMARK    7  A    between atoms: C_21  and  C_22
REMARK                            x       y       z     vdW  Elec       q    Type
REMARK                         _______ _______ _______ _____ _____    ______ ____
ROOT
ATOM      1  C   UNL     1      -2.490   0.996   0.018  0.00  0.00    +0.039 C 
ENDROOT
BRANCH   1  10
ATOM      2  C   UNL     1       4.960   1.119   0.318  0.00  0.00    +0.044 C 
ATOM      3  C   UNL     1       3.635   1.834   0.259  0.00  0.00    -0.050 A 
ATOM      4  C   UNL     1       3.603   3.222   0.242  0.00  0.00    +0.008 A 
ATOM      5  C   UNL     1       2.403   3.897   0.188  0.00  0.00    -0.026 A 
ATOM      6  C   UNL     1       1.210   3.183   0.150  0.00  0.00    +0.052 A 
ATOM      7  C   UNL     1       1.247   1.776   0.167  0.00  0.00    -0.001 A 
ATOM      8  C   UNL     1       2.477   1.112   0.222  0.00  0.00    +0.013 A 
ATOM      9  C   UNL     1      -0.014   1.032   0.127  0.00  0.00    +0.017 A 
ATOM     10  C   UNL     1      -1.175   1.730   0.068  0.00  0.00    +0.011 A 
ATOM     11  C   UNL     1      -1.157   3.141   0.060  0.00  0.00    +0.251 A 
ATOM     12  O   UNL     1      -2.213   3.749   0.013  0.00  0.00    -0.268 OA
ATOM     13  N   UNL     1      -0.004   3.832   0.096  0.00  0.00    -0.322 N 
ATOM     14  H   UNL     1      -0.028   4.802   0.085  0.00  0.00    +0.169 HD
ATOM     15  C   UNL     1       2.383   5.404   0.170  0.00  0.00    +0.046 C 
ENDBRANCH   1  10
BRANCH   1  26
ATOM     16  C   UNL     1      -4.533   0.724  -1.251  0.00  0.00    -0.077 C 
ATOM     17  C   UNL     1      -5.373   1.322  -2.383  0.00  0.00    -0.018 C 
ATOM     18  C   UNL     1      -4.594   1.222  -3.697  0.00  0.00    +0.003 C 
ATOM     19  C   UNL     1      -3.254   1.946  -3.544  0.00  0.00    -0.044 C 
ATOM     20  C   UNL     1      -2.476   1.330  -2.379  0.00  0.00    -0.071 C 
ATOM     21  C   UNL     1      -3.506   3.429  -3.262  0.00  0.00    +0.005 C 
ATOM     22  C   UNL     1      -4.288   4.042  -4.426  0.00  0.00    +0.000 C 
ATOM     23  C   UNL     1      -3.479   3.898  -5.716  0.00  0.00    +0.000 C 
ATOM     24  C   UNL     1      -3.227   2.415  -5.997  0.00  0.00    +0.000 C 
ATOM     25  C   UNL     1      -2.445   1.801  -4.834  0.00  0.00    +0.005 C 
ATOM     26  N   UNL     1      -3.268   1.481  -1.140  0.00  0.00    +0.390 N 
ATOM     27  H   UNL     1      -3.486   2.475  -1.003  0.00  0.00    -0.080 HD
ENDBRANCH   1  26
BRANCH   1  28
ATOM     28  C   UNL     1      -3.269   1.274   1.278  0.00  0.00    +0.143 A 
ATOM     29  N   UNL     1      -3.958   2.355   1.550  0.00  0.00    -0.115 NA
ATOM     30  N   UNL     1      -4.477   2.213   2.721  0.00  0.00    -0.023 NA
ATOM     31  N   UNL     1      -4.137   1.068   3.203  0.00  0.00    -0.044 NA
ATOM     32  N   UNL     1      -3.397   0.457   2.341  0.00  0.00    -0.228 N 
BRANCH  32  33
ATOM     33  C   UNL     1      -2.803  -0.874   2.492  0.00  0.00    +0.178 C 
BRANCH  33  34
ATOM     34  C   UNL     1      -1.423  -0.746   3.140  0.00  0.00    +0.140 C 
ATOM     35  C   UNL     1      -0.742  -2.130   3.198  0.00  0.00    +0.035 C 
ATOM     36  C   UNL     1      -0.045  -2.096   4.585  0.00  0.00    +0.031 C 
ATOM     37  C   UNL     1      -1.059  -1.258   5.404  0.00  0.00    +0.160 C 
ATOM     38  O   UNL     1      -1.560  -0.274   4.485  0.00  0.00    -0.375 OA
ENDBRANCH  33  34
ENDBRANCH  32  33
ENDBRANCH   1  28
TORSDOF 5
