REMARK  Name = ZINC63351358
REMARK  3 active torsions:
REMARK  status: ('A' for Active; 'I' for Inactive)
REMARK    1  A    between atoms: C_2  and  C_3
REMARK    2  A    between atoms: C_3  and  N_4
REMARK    3  A    between atoms: C_7  and  C_13
REMARK                            x       y       z     vdW  Elec       q    Type
REMARK                         _______ _______ _______ _____ _____    ______ ____
ROOT
ATOM      1  C   UNL     1      -2.401  -1.752  -4.727  0.00  0.00    -0.003 C 
ATOM      2  C   UNL     1      -3.917  -1.574  -4.617  0.00  0.00    +0.097 C 
ATOM      3  C   UNL     1      -4.139  -0.410  -3.658  0.00  0.00    -0.041 C 
ATOM      4  C   UNL     1      -4.959  -0.853  -2.715  0.00  0.00    -0.001 A 
ATOM      5  C   UNL     1      -5.603  -0.178  -1.577  0.00  0.00    +0.010 A 
ATOM      6  C   UNL     1      -6.388  -0.955  -0.785  0.00  0.00    +0.001 A 
ATOM      7  C   UNL     1      -6.595  -2.320  -1.008  0.00  0.00    +0.002 A 
ATOM      8  C   UNL     1      -6.049  -3.020  -2.034  0.00  0.00    +0.026 A 
ATOM      9  C   UNL     1      -5.208  -2.311  -2.939  0.00  0.00    +0.043 A 
ATOM     10  N   UNL     1      -4.580  -2.732  -4.020  0.00  0.00    -0.379 N 
ATOM     11  C   UNL     1      -3.409   0.900  -3.826  0.00  0.00    +0.014 C 
ATOM     12  C   UNL     1      -1.930   0.538  -4.053  0.00  0.00    -0.077 C 
ATOM     13  N   UNL     1      -1.809  -0.463  -5.117  0.00  0.00    +0.386 N 
ATOM     14  H   UNL     1      -0.833  -0.601  -5.330  0.00  0.00    -0.085 HD
ATOM     15  H   UNL     1      -4.555  -3.639  -4.360  0.00  0.00    +0.160 HD
ATOM     16  H   UNL     1      -2.279  -0.122  -5.943  0.00  0.00    -0.085 HD
ENDROOT
BRANCH   1  20
ATOM     17  N   UNL     1      -0.582  -3.726  -2.093  0.00  0.00    -0.284 N 
ATOM     18  C   UNL     1      -1.073  -3.357  -3.293  0.00  0.00    +0.260 A 
ATOM     19  O   UNL     1      -0.851  -4.035  -4.281  0.00  0.00    -0.267 OA
ATOM     20  C   UNL     1      -1.843  -2.184  -3.396  0.00  0.00    +0.070 A 
ATOM     21  C   UNL     1      -2.076  -1.444  -2.275  0.00  0.00    +0.257 A 
ATOM     22  N   UNL     1      -1.558  -1.856  -1.074  0.00  0.00    -0.302 N 
ATOM     23  C   UNL     1      -0.829  -2.985  -0.997  0.00  0.00    +0.164 A 
ATOM     24  S   UNL     1      -0.199  -3.481   0.516  0.00  0.00    -0.013 S 
ATOM     25  O   UNL     1      -2.811  -0.314  -2.347  0.00  0.00    -0.267 OA
ATOM     26  H   UNL     1      -1.721  -1.333  -0.274  0.00  0.00    +0.171 HD
BRANCH  17  27
ATOM     27  C   UNL     1       0.220  -4.947  -1.979  0.00  0.00    +0.154 C 
BRANCH  27  29
ATOM     28  C   UNL     1      -0.657  -7.170  -2.476  0.00  0.00    +0.005 C 
ATOM     29  C   UNL     1      -0.685  -6.118  -1.696  0.00  0.00    -0.013 C 
ENDBRANCH  27  29
ENDBRANCH  17  27
ENDBRANCH   1  20
TORSDOF 3
