REMARK  Name = ZINC33271497
REMARK  7 active torsions:
REMARK  status: ('A' for Active; 'I' for Inactive)
REMARK    1  A    between atoms: C_1  and  C_2
REMARK    2  A    between atoms: C_2  and  O_3
REMARK    3  A    between atoms: O_3  and  C_4
REMARK    4  A    between atoms: C_6  and  C_11
REMARK    5  A    between atoms: C_9  and  O_10
REMARK    6  A    between atoms: C_19  and  C_32
REMARK    7  A    between atoms: C_27  and  C_31
REMARK                            x       y       z     vdW  Elec       q    Type
REMARK                         _______ _______ _______ _____ _____    ______ ____
ROOT
ATOM      1  C   UNL     1      -0.670   6.476   0.044  0.00  0.00    +0.063 C 
ATOM      2  C   UNL     1      -0.640   7.356   1.298  0.00  0.00    +0.109 C 
ATOM      3  C   UNL     1      -1.582   8.520   1.168  0.00  0.00    +0.219 C 
ATOM      4  O   UNL     1      -2.213   8.876   2.140  0.00  0.00    -0.275 OA
ATOM      5  N   UNL     1      -1.746   9.182   0.003  0.00  0.00    -0.270 N 
ATOM      6  C   UNL     1      -1.169   8.642  -1.145  0.00  0.00    +0.135 A 
ATOM      7  C   UNL     1      -0.650   7.375  -1.166  0.00  0.00    +0.023 A 
ATOM      8  C   UNL     1      -0.151   7.137  -2.439  0.00  0.00    +0.066 A 
ATOM      9  N   UNL     1      -0.365   8.204  -3.172  0.00  0.00    -0.168 NA
ATOM     10  N   UNL     1      -1.016   9.165  -2.381  0.00  0.00    -0.193 N 
ATOM     11  C   UNL     1      -1.428  10.426  -2.796  0.00  0.00    +0.196 A 
ATOM     12  N   UNL     1      -2.042  11.359  -2.107  0.00  0.00    -0.221 NA
ATOM     13  C   UNL     1      -2.381  12.551  -2.641  0.00  0.00    +0.081 A 
ATOM     14  C   UNL     1      -3.035  13.636  -2.011  0.00  0.00    +0.029 A 
ATOM     15  C   UNL     1      -3.313  14.784  -2.705  0.00  0.00    +0.005 A 
ATOM     16  C   UNL     1      -2.967  14.926  -4.041  0.00  0.00    -0.049 A 
ATOM     17  C   UNL     1      -2.328  13.885  -4.689  0.00  0.00    +0.020 A 
ATOM     18  C   UNL     1      -2.044  12.731  -4.002  0.00  0.00    +0.041 A 
ATOM     19  S   UNL     1      -1.263  11.187  -4.405  0.00  0.00    -0.048 S 
ATOM     20  C   UNL     1      -3.286  16.200  -4.779  0.00  0.00    +0.044 C 
ATOM     21  C   UNL     1       0.522   5.870  -2.900  0.00  0.00    +0.068 C 
ATOM     22  H   UNL     1      -2.321  10.119  -0.021  0.00  0.00    +0.156 HD
ENDROOT
BRANCH   1  25
ATOM     23  C   UNL     1       1.482   3.371   0.006  0.00  0.00    +0.162 A 
ATOM     24  C   UNL     1       0.373   4.201   0.021  0.00  0.00    +0.053 A 
ATOM     25  C   UNL     1       0.537   5.574   0.027  0.00  0.00    -0.036 A 
ATOM     26  C   UNL     1       1.806   6.121   0.018  0.00  0.00    +0.008 A 
ATOM     27  C   UNL     1       2.917   5.298   0.003  0.00  0.00    +0.049 A 
ATOM     28  C   UNL     1       2.760   3.922   0.003  0.00  0.00    +0.158 A 
BRANCH  28  29
ATOM     29  O   UNL     1       3.851   3.111  -0.007  0.00  0.00    -0.503 OA
ATOM     30  H   UNL     1       4.861   3.548  -0.009  0.00  0.00    +0.292 HD
ENDBRANCH  28  29
BRANCH  23  31
ATOM     31  O   UNL     1       1.322   2.020   0.000  0.00  0.00    -0.489 OA
BRANCH  31  33
ATOM     32  C   UNL     1       0.002  -0.004   0.002  0.00  0.00    +0.048 C 
ATOM     33  C   UNL     1      -0.019   1.526   0.010  0.00  0.00    +0.226 C 
ENDBRANCH  31  33
ENDBRANCH  23  31
ENDBRANCH   1  25
TORSDOF 4
