REMARK  Name = ZINC01410822
REMARK  6 active torsions:
REMARK  status: ('A' for Active; 'I' for Inactive)
REMARK    1  A    between atoms: C_5  and  N_7
REMARK    2  A    between atoms: N_7  and  S_8
REMARK    3  A    between atoms: S_8  and  C_11
REMARK    4  A    between atoms: C_22  and  S_24
REMARK    5  A    between atoms: S_24  and  N_27
REMARK    6  A    between atoms: N_27  and  C_28
REMARK                            x       y       z     vdW  Elec       q    Type
REMARK                         _______ _______ _______ _____ _____    ______ ____
ROOT
ATOM      1  C   UNL     1       1.110  -0.216  -1.126  0.00  0.00    +0.109 A 
ATOM      2  C   UNL     1       2.289  -0.937  -1.067  0.00  0.00    +0.029 A 
ATOM      3  C   UNL     1       3.502  -0.282  -1.026  0.00  0.00    +0.011 A 
ATOM      4  C   UNL     1       3.542   1.114  -1.045  0.00  0.00    -0.014 A 
ATOM      5  C   UNL     1       2.350   1.830  -1.104  0.00  0.00    -0.033 A 
ATOM      6  C   UNL     1       1.142   1.167  -1.144  0.00  0.00    +0.033 A 
ATOM      7  C   UNL     1       2.701   3.297  -1.111  0.00  0.00    +0.071 C 
ATOM      8  C   UNL     1       4.207   3.366  -1.050  0.00  0.00    -0.033 A 
ATOM      9  C   UNL     1       4.686   2.059  -1.011  0.00  0.00    -0.014 A 
ATOM     10  C   UNL     1       6.062   1.836  -0.951  0.00  0.00    +0.011 A 
ATOM     11  C   UNL     1       6.934   2.905  -0.932  0.00  0.00    +0.029 A 
ATOM     12  C   UNL     1       6.449   4.200  -0.970  0.00  0.00    +0.109 A 
ATOM     13  C   UNL     1       5.086   4.429  -1.029  0.00  0.00    +0.033 A 
ENDROOT
BRANCH   1  14
ATOM     14  S   UNL     1      -0.436  -1.062  -1.178  0.00  0.00    +0.072 S 
ATOM     15  O   UNL     1      -0.218  -2.341  -0.599  0.00  0.00    -0.150 OA
ATOM     16  O   UNL     1      -1.410  -0.156  -0.679  0.00  0.00    -0.150 OA
BRANCH  14  17
ATOM     17  N   UNL     1      -0.800  -1.319  -2.772  0.00  0.00    -0.213 N 
ATOM     18  H   UNL     1      -1.613  -0.947  -3.150  0.00  0.00    +0.174 HD
BRANCH  17  23
ATOM     19  C   UNL     1       1.593  -3.899  -3.834  0.00  0.00    +0.002 A 
ATOM     20  C   UNL     1       1.774  -3.559  -5.162  0.00  0.00    +0.003 A 
ATOM     21  C   UNL     1       1.102  -2.477  -5.700  0.00  0.00    +0.040 A 
ATOM     22  C   UNL     1       0.247  -1.731  -4.911  0.00  0.00    +0.146 A 
ATOM     23  C   UNL     1       0.063  -2.071  -3.575  0.00  0.00    +0.083 A 
ATOM     24  C   UNL     1       0.744  -3.155  -3.038  0.00  0.00    +0.027 A 
ATOM     25  F   UNL     1      -0.409  -0.673  -5.436  0.00  0.00    -0.204 F 
ENDBRANCH  17  23
ENDBRANCH  14  17
ENDBRANCH   1  14
BRANCH  12  26
ATOM     26  S   UNL     1       7.569   5.560  -0.945  0.00  0.00    +0.072 S 
ATOM     27  O   UNL     1       8.809   5.074  -1.438  0.00  0.00    -0.150 OA
ATOM     28  O   UNL     1       6.890   6.657  -1.540  0.00  0.00    -0.150 OA
BRANCH  26  29
ATOM     29  N   UNL     1       7.816   5.961   0.643  0.00  0.00    -0.213 N 
ATOM     30  H   UNL     1       7.585   6.848   0.961  0.00  0.00    +0.174 HD
BRANCH  29  31
ATOM     31  C   UNL     1       8.357   5.021   1.526  0.00  0.00    +0.083 A 
ATOM     32  C   UNL     1       9.262   4.074   1.065  0.00  0.00    +0.027 A 
ATOM     33  C   UNL     1       9.798   3.149   1.940  0.00  0.00    +0.002 A 
ATOM     34  C   UNL     1       9.428   3.159   3.272  0.00  0.00    +0.003 A 
ATOM     35  C   UNL     1       8.524   4.097   3.735  0.00  0.00    +0.040 A 
ATOM     36  C   UNL     1       7.987   5.029   2.866  0.00  0.00    +0.146 A 
ATOM     37  F   UNL     1       7.102   5.945   3.318  0.00  0.00    -0.204 F 
ENDBRANCH  29  31
ENDBRANCH  26  29
ENDBRANCH  12  26
TORSDOF 6
