REMARK  Name = ZINC41055279
REMARK  3 active torsions:
REMARK  status: ('A' for Active; 'I' for Inactive)
REMARK    1  A    between atoms: C_3  and  N_10
REMARK    2  A    between atoms: C_6  and  C_7
REMARK    3  A    between atoms: N_10  and  C_11
REMARK                            x       y       z     vdW  Elec       q    Type
REMARK                         _______ _______ _______ _____ _____    ______ ____
ROOT
ATOM      1  N   UNL     1       3.576   2.130  -0.022  0.00  0.00    -0.314 N 
ATOM      2  H   UNL     1       3.564   3.095  -0.122  0.00  0.00    +0.152 HD
ENDROOT
BRANCH   1   3
ATOM      3  C   UNL     1       4.786   1.457   0.068  0.00  0.00    +0.042 A 
ATOM      4  C   UNL     1       4.836   0.072   0.056  0.00  0.00    +0.041 A 
ATOM      5  C   UNL     1       6.063  -0.572   0.147  0.00  0.00    +0.085 A 
ATOM      6  N   UNL     1       7.190   0.094   0.245  0.00  0.00    -0.361 N 
ATOM      7  C   UNL     1       7.216   1.431   0.262  0.00  0.00    +0.048 A 
ATOM      8  C   UNL     1       6.008   2.163   0.167  0.00  0.00    +0.021 A 
ATOM      9  C   UNL     1       6.043   3.565   0.179  0.00  0.00    +0.027 A 
ATOM     10  C   UNL     1       7.240   4.209   0.277  0.00  0.00    +0.019 A 
ATOM     11  C   UNL     1       8.432   3.491   0.364  0.00  0.00    +0.017 A 
ATOM     12  C   UNL     1       8.432   2.130   0.367  0.00  0.00    +0.027 A 
ATOM     13 BR   UNL     1       7.286   6.099   0.293  0.00  0.00    -0.050 Br
ATOM     14  H   UNL     1       8.024  -0.396   0.307  0.00  0.00    +0.165 HD
ENDBRANCH   1   3
BRANCH   1  17
ATOM     15  C   UNL     1       1.048  -0.321   1.005  0.00  0.00    +0.015 A 
ATOM     16  C   UNL     1       2.230   0.382   0.948  0.00  0.00    +0.024 A 
ATOM     17  C   UNL     1       2.380   1.421   0.034  0.00  0.00    +0.031 A 
ATOM     18  C   UNL     1       1.335   1.753  -0.825  0.00  0.00    +0.024 A 
ATOM     19  C   UNL     1       0.151   1.054  -0.773  0.00  0.00    +0.015 A 
ATOM     20  C   UNL     1      -0.002   0.010   0.144  0.00  0.00    +0.037 A 
BRANCH  20  21
ATOM     21  C   UNL     1      -1.271  -0.742   0.202  0.00  0.00    +0.242 C 
ATOM     22  O   UNL     1      -1.403  -1.650   1.000  0.00  0.00    -0.270 OA
ATOM     23  N   UNL     1      -2.282  -0.422  -0.629  0.00  0.00    -0.325 N 
ATOM     24  H   UNL     1      -2.177   0.302  -1.266  0.00  0.00    +0.145 HD
ATOM     25  H   UNL     1      -3.116  -0.917  -0.591  0.00  0.00    +0.145 HD
ENDBRANCH  20  21
ENDBRANCH   1  17
TORSDOF 3
