REMARK  Name = ZINC55129472
REMARK  5 active torsions:
REMARK  status: ('A' for Active; 'I' for Inactive)
REMARK    1  A    between atoms: C_1  and  C_2
REMARK    2  A    between atoms: C_7  and  N_22
REMARK    3  A    between atoms: C_9  and  C_11
REMARK    4  A    between atoms: C_18  and  C_20
REMARK    5  A    between atoms: C_20  and  O_21
REMARK                            x       y       z     vdW  Elec       q    Type
REMARK                         _______ _______ _______ _____ _____    ______ ____
ROOT
ATOM      1  C   UNL     1       0.011   1.687   0.024  0.00  0.00    +0.008 C 
ATOM      2  C   UNL     1      -0.015   0.158  -0.039  0.00  0.00    -0.004 C 
ATOM      3  C   UNL     1      -1.466  -0.328  -0.052  0.00  0.00    +0.004 C 
ATOM      4  C   UNL     1      -1.492  -1.856  -0.115  0.00  0.00    -0.001 C 
ATOM      5  C   UNL     1      -0.772  -2.430   1.107  0.00  0.00    -0.016 C 
ATOM      6  C   UNL     1       0.679  -1.944   1.119  0.00  0.00    -0.063 C 
ATOM      7  C   UNL     1       0.704  -0.415   1.183  0.00  0.00    +0.064 C 
ENDROOT
BRANCH   7   8
ATOM      8  C   UNL     1       0.009   0.047   2.438  0.00  0.00    +0.218 C 
ATOM      9  O   UNL     1      -1.125  -0.314   2.670  0.00  0.00    -0.275 OA
ATOM     10  N   UNL     1       0.648   0.861   3.302  0.00  0.00    -0.296 N 
ATOM     11  C   UNL     1       1.968   1.415   2.971  0.00  0.00    +0.108 C 
ATOM     12  C   UNL     1       2.940   1.087   4.109  0.00  0.00    +0.019 C 
ATOM     13  C   UNL     1       2.359   1.593   5.432  0.00  0.00    +0.003 C 
ATOM     14  C   UNL     1       1.031   0.885   5.711  0.00  0.00    +0.025 C 
ATOM     15  C   UNL     1       0.035   1.215   4.589  0.00  0.00    +0.101 C 
BRANCH  15  16
ATOM     16  C   UNL     1      -1.249   0.406   4.786  0.00  0.00    +0.178 C 
BRANCH  16  17
ATOM     17  O   UNL     1      -0.933  -0.986   4.829  0.00  0.00    -0.393 OA
ATOM     18  H   UNL     1      -1.701  -1.560   4.952  0.00  0.00    +0.209 HD
ENDBRANCH  16  17
ENDBRANCH  15  16
ENDBRANCH   7   8
BRANCH   6  19
ATOM     19  N   UNL     1       1.369  -2.495   2.293  0.00  0.00    +0.380 N 
ATOM     20  H   UNL     1       1.282  -3.500   2.294  0.00  0.00    -0.090 HD
ATOM     21  H   UNL     1       2.345  -2.241   2.259  0.00  0.00    -0.090 HD
ATOM     22  H   UNL     1       0.955  -2.121   3.134  0.00  0.00    -0.090 HD
ENDBRANCH   6  19
TORSDOF 4
