REMARK  Name = ZINC22052713
REMARK  10 active torsions:
REMARK  status: ('A' for Active; 'I' for Inactive)
REMARK    1  A    between atoms: C_1  and  C_2
REMARK    2  A    between atoms: C_5  and  S_8
REMARK    3  A    between atoms: S_8  and  N_11
REMARK    4  A    between atoms: N_14  and  C_17
REMARK    5  A    between atoms: C_17  and  C_19
REMARK    6  A    between atoms: C_17  and  C_20
REMARK    7  A    between atoms: C_28  and  N_30
REMARK    8  A    between atoms: N_30  and  C_31
REMARK    9  A    between atoms: C_35  and  O_37
REMARK   10  A    between atoms: O_37  and  C_38
REMARK                            x       y       z     vdW  Elec       q    Type
REMARK                         _______ _______ _______ _____ _____    ______ ____
ROOT
ATOM      1  C   UNL     1       4.750   1.232   0.167  0.00  0.00    +0.149 A 
ATOM      2  N   UNL     1       5.912   1.835   0.261  0.00  0.00    -0.230 NA
ATOM      3  C   UNL     1       5.984   3.174   0.276  0.00  0.00    +0.076 A 
ATOM      4  C   UNL     1       7.208   3.850   0.375  0.00  0.00    +0.028 A 
ATOM      5  C   UNL     1       7.224   5.213   0.386  0.00  0.00    +0.002 A 
ATOM      6  C   UNL     1       6.044   5.946   0.300  0.00  0.00    +0.001 A 
ATOM      7  C   UNL     1       4.836   5.319   0.202  0.00  0.00    +0.013 A 
ATOM      8  C   UNL     1       4.785   3.921   0.188  0.00  0.00    +0.040 A 
ATOM      9  C   UNL     1       3.562   3.214   0.088  0.00  0.00    +0.134 A 
ATOM     10  N   UNL     1       3.604   1.888   0.088  0.00  0.00    -0.215 NA
ENDROOT
BRANCH   1  11
ATOM     11  C   UNL     1       4.720  -0.274   0.155  0.00  0.00    +0.122 C 
ATOM     12  C   UNL     1       4.975  -0.801   1.569  0.00  0.00    +0.032 C 
BRANCH  11  16
ATOM     13  N   UNL     1       6.949  -2.077  -2.911  0.00  0.00    -0.174 NA
ATOM     14  C   UNL     1       6.971  -2.733  -1.594  0.00  0.00    +0.125 C 
ATOM     15  C   UNL     1       5.762  -2.246  -0.788  0.00  0.00    +0.102 C 
ATOM     16  N   UNL     1       5.762  -0.777  -0.750  0.00  0.00    -0.290 NA
ATOM     17  C   UNL     1       5.609  -0.210  -2.096  0.00  0.00    +0.102 C 
ATOM     18  C   UNL     1       6.811  -0.613  -2.957  0.00  0.00    +0.125 C 
BRANCH  13  19
ATOM     19  S   UNL     1       7.076  -2.963  -4.304  0.00  0.00    +0.061 S 
ATOM     20  O   UNL     1       7.576  -2.083  -5.301  0.00  0.00    -0.153 OA
ATOM     21  O   UNL     1       7.734  -4.174  -3.957  0.00  0.00    -0.153 OA
BRANCH  19  26
ATOM     22  C   UNL     1       1.477  -4.464  -5.981  0.00  0.00    +0.044 C 
ATOM     23  C   UNL     1       2.876  -4.090  -5.562  0.00  0.00    -0.050 A 
ATOM     24  C   UNL     1       3.441  -2.912  -6.015  0.00  0.00    +0.005 A 
ATOM     25  C   UNL     1       4.723  -2.568  -5.631  0.00  0.00    +0.029 A 
ATOM     26  C   UNL     1       5.441  -3.401  -4.793  0.00  0.00    +0.105 A 
ATOM     27  C   UNL     1       4.877  -4.581  -4.344  0.00  0.00    +0.029 A 
ATOM     28  C   UNL     1       3.593  -4.923  -4.724  0.00  0.00    +0.005 A 
ENDBRANCH  19  26
ENDBRANCH  13  19
ENDBRANCH  11  16
ENDBRANCH   1  11
BRANCH   9  29
ATOM     29  N   UNL     1       2.360   3.885  -0.000  0.00  0.00    -0.299 N 
ATOM     30  H   UNL     1       2.347   4.981  -0.086  0.00  0.00    +0.154 HD
BRANCH  29  31
ATOM     31  C   UNL     1       1.158   3.172   0.020  0.00  0.00    +0.036 A 
ATOM     32  C   UNL     1       0.065   3.630  -0.705  0.00  0.00    +0.023 A 
ATOM     33  C   UNL     1      -1.123   2.926  -0.685  0.00  0.00    +0.005 A 
ATOM     34  C   UNL     1      -1.229   1.766   0.060  0.00  0.00    +0.046 A 
ATOM     35  C   UNL     1      -0.139   1.300   0.781  0.00  0.00    +0.122 A 
ATOM     36  C   UNL     1       1.055   2.005   0.764  0.00  0.00    +0.069 A 
BRANCH  35  37
ATOM     37  O   UNL     1      -0.244   0.158   1.509  0.00  0.00    -0.495 OA
ATOM     38  C   UNL     1      -1.503  -0.517   1.481  0.00  0.00    +0.277 C 
ENDBRANCH  35  37
ENDBRANCH  29  31
ENDBRANCH   9  29
TORSDOF 7
