REMARK  Name = ZINC48891509
REMARK  5 active torsions:
REMARK  status: ('A' for Active; 'I' for Inactive)
REMARK    1  A    between atoms: C_1  and  N_2
REMARK    2  A    between atoms: N_2  and  C_3
REMARK    3  A    between atoms: C_3  and  C_4
REMARK    4  A    between atoms: C_13  and  C_17
REMARK    5  A    between atoms: N_18  and  O_19
REMARK                            x       y       z     vdW  Elec       q    Type
REMARK                         _______ _______ _______ _____ _____    ______ ____
ROOT
ATOM      1  C   UNL     1      -0.018   1.461   0.010  0.00  0.00    +0.131 C 
ATOM      2  N   UNL     1       0.002  -0.004   0.002  0.00  0.00    -0.315 N 
ATOM      3  C   UNL     1       0.000  -0.693  -1.206  0.00  0.00    +0.099 A 
ATOM      4  C   UNL     1      -0.015   0.016  -2.401  0.00  0.00    +0.053 A 
ATOM      5  C   UNL     1      -0.017  -0.690  -3.605  0.00  0.00    +0.022 A 
ATOM      6  C   UNL     1      -0.003  -2.089  -3.552  0.00  0.00    +0.029 A 
ATOM      7  C   UNL     1       0.012  -2.716  -2.325  0.00  0.00    +0.085 A 
ATOM      8  N   UNL     1       0.018  -2.017  -1.205  0.00  0.00    -0.350 N 
ATOM      9  H   UNL     1       0.033  -2.487  -0.356  0.00  0.00    +0.166 HD
ENDROOT
BRANCH   5  10
ATOM     10  C   UNL     1      -0.033   0.022  -4.904  0.00  0.00    +0.163 C 
ATOM     11  N   UNL     1      -0.046   1.322  -4.933  0.00  0.00    -0.072 NA
ATOM     12  N   UNL     1      -0.034  -0.697  -6.087  0.00  0.00    -0.340 N 
ATOM     13  H   UNL     1      -0.024  -1.666  -6.066  0.00  0.00    +0.144 HD
ATOM     14  H   UNL     1      -0.045  -0.230  -6.938  0.00  0.00    +0.144 HD
BRANCH  11  15
ATOM     15  O   UNL     1      -0.062   2.002  -6.174  0.00  0.00    -0.408 OA
ATOM     16  H   UNL     1      -0.071   2.966  -6.094  0.00  0.00    +0.328 HD
ENDBRANCH  11  15
ENDBRANCH   5  10
BRANCH   2  17
ATOM     17  C   UNL     1       0.024  -0.743   1.267  0.00  0.00    +0.141 C 
BRANCH  17  18
ATOM     18  C   UNL     1      -1.389  -1.016   1.714  0.00  0.00    -0.029 A 
ATOM     19  C   UNL     1      -2.047  -0.105   2.518  0.00  0.00    +0.005 A 
ATOM     20  C   UNL     1      -3.343  -0.354   2.929  0.00  0.00    +0.001 A 
ATOM     21  C   UNL     1      -3.982  -1.516   2.535  0.00  0.00    +0.015 A 
ATOM     22  C   UNL     1      -3.324  -2.427   1.729  0.00  0.00    +0.018 A 
ATOM     23  C   UNL     1      -2.028  -2.174   1.315  0.00  0.00    +0.020 A 
ATOM     24 BR   UNL     1      -4.196  -4.016   1.190  0.00  0.00    -0.050 Br
ENDBRANCH  17  18
ENDBRANCH   2  17
TORSDOF 4
