REMARK  Name = ZINC39631096
REMARK  10 active torsions:
REMARK  status: ('A' for Active; 'I' for Inactive)
REMARK    1  A    between atoms: C_1  and  C_2
REMARK    2  A    between atoms: C_2  and  C_3
REMARK    3  A    between atoms: C_2  and  C_4
REMARK    4  A    between atoms: C_2  and  C_27
REMARK    5  A    between atoms: C_4  and  N_5
REMARK    6  A    between atoms: C_6  and  C_8
REMARK    7  A    between atoms: C_19  and  C_21
REMARK    8  A    between atoms: C_27  and  N_28
REMARK    9  A    between atoms: N_28  and  C_29
REMARK   10  A    between atoms: N_28  and  C_30
REMARK                            x       y       z     vdW  Elec       q    Type
REMARK                         _______ _______ _______ _____ _____    ______ ____
ROOT
ATOM      1  C   UNL     1      -2.975   0.072   3.658  0.00  0.00    +0.100 C 
ATOM      2  C   UNL     1      -2.910   1.609   3.803  0.00  0.00    +0.121 C 
ATOM      3  N   UNL     1      -4.311   2.060   3.624  0.00  0.00    -0.300 N 
ATOM      4  C   UNL     1      -5.120   1.040   4.332  0.00  0.00    +0.115 C 
ATOM      5  C   UNL     1      -4.426  -0.298   4.010  0.00  0.00    -0.004 C 
ATOM      6  C   UNL     1      -4.456  -1.216   5.228  0.00  0.00    -0.010 C 
ATOM      7  C   UNL     1      -5.904  -1.617   5.523  0.00  0.00    -0.082 C 
ATOM      8  N   UNL     1      -6.473  -2.301   4.355  0.00  0.00    +0.379 N 
ATOM      9  C   UNL     1      -6.525  -1.381   3.213  0.00  0.00    -0.082 C 
ATOM     10  C   UNL     1      -5.103  -0.970   2.820  0.00  0.00    -0.010 C 
ATOM     11  C   UNL     1      -4.749   3.152   2.967  0.00  0.00    +0.219 C 
ATOM     12  O   UNL     1      -5.937   3.389   2.909  0.00  0.00    -0.275 OA
ATOM     13  H   UNL     1      -5.897  -3.095   4.120  0.00  0.00    -0.086 HD
ATOM     14  H   UNL     1      -7.405  -2.618   4.573  0.00  0.00    -0.086 HD
ENDROOT
BRANCH  11  15
ATOM     15  C   UNL     1      -3.763   4.079   2.305  0.00  0.00    +0.079 C 
ATOM     16  C   UNL     1      -2.809   4.651   3.358  0.00  0.00    +0.041 C 
ATOM     17  C   UNL     1      -1.862   5.651   2.689  0.00  0.00    +0.160 C 
ATOM     18  O   UNL     1      -2.627   6.680   2.058  0.00  0.00    -0.380 OA
ATOM     19  C   UNL     1      -3.502   6.210   1.031  0.00  0.00    +0.160 C 
ATOM     20  C   UNL     1      -4.515   5.232   1.633  0.00  0.00    +0.041 C 
ENDBRANCH  11  15
BRANCH   1  22
ATOM     21  N   UNL     1      -2.091  -1.533   1.996  0.00  0.00    -0.315 N 
ATOM     22  C   UNL     1      -2.658  -0.336   2.242  0.00  0.00    +0.218 C 
ATOM     23  O   UNL     1      -2.914   0.414   1.324  0.00  0.00    -0.275 OA
ATOM     24  H   UNL     1      -1.886  -2.133   2.731  0.00  0.00    +0.149 HD
BRANCH  21  25
ATOM     25  C   UNL     1      -1.783  -1.929   0.620  0.00  0.00    +0.108 C 
BRANCH  25  27
ATOM     26  C   UNL     1       0.140  -3.296   1.442  0.00  0.00    +0.010 C 
ATOM     27  C   UNL     1      -1.150  -3.322   0.619  0.00  0.00    -0.034 C 
ATOM     28  C   UNL     1      -2.127  -4.327   1.232  0.00  0.00    +0.010 C 
BRANCH  27  29
ATOM     29  C   UNL     1      -0.828  -3.735  -0.819  0.00  0.00    -0.072 C 
BRANCH  29  30
ATOM     30  N   UNL     1      -0.238  -5.080  -0.821  0.00  0.00    +0.376 N 
ATOM     31  C   UNL     1      -1.309  -6.085  -0.847  0.00  0.00    -0.097 C 
ATOM     32  C   UNL     1       0.613  -5.239  -2.008  0.00  0.00    -0.097 C 
ATOM     33  H   UNL     1       0.320  -5.204   0.011  0.00  0.00    -0.083 HD
ENDBRANCH  29  30
ENDBRANCH  27  29
ENDBRANCH  25  27
ENDBRANCH  21  25
ENDBRANCH   1  22
TORSDOF 6
