REMARK  Name = ZINC21516496
REMARK  11 active torsions:
REMARK  status: ('A' for Active; 'I' for Inactive)
REMARK    1  A    between atoms: C_1  and  C_2
REMARK    2  A    between atoms: C_2  and  C_3
REMARK    3  A    between atoms: C_3  and  C_4
REMARK    4  A    between atoms: C_4  and  N_5
REMARK    5  A    between atoms: N_5  and  C_6
REMARK    6  A    between atoms: N_5  and  C_8
REMARK    7  A    between atoms: C_6  and  C_7
REMARK    8  A    between atoms: C_8  and  C_10
REMARK    9  A    between atoms: C_8  and  C_11
REMARK   10  A    between atoms: N_13  and  C_14
REMARK   11  A    between atoms: C_17  and  N_21
REMARK                            x       y       z     vdW  Elec       q    Type
REMARK                         _______ _______ _______ _____ _____    ______ ____
ROOT
ATOM      1  C   UNL     1      -3.578   3.162  -0.505  0.00  0.00    +0.203 C 
ATOM      2  O   UNL     1      -3.583   1.952  -0.590  0.00  0.00    -0.277 OA
ATOM      3  N   UNL     1      -2.408   3.831  -0.471  0.00  0.00    -0.284 N 
ATOM      4  H   UNL     1      -2.402   4.922  -0.335  0.00  0.00    +0.155 HD
ENDROOT
BRANCH   3   5
ATOM      5  C   UNL     1      -1.198   3.134  -0.608  0.00  0.00    +0.070 A 
ATOM      6  C   UNL     1      -1.081   2.126  -1.557  0.00  0.00    +0.065 A 
ATOM      7  C   UNL     1       0.109   1.437  -1.688  0.00  0.00    +0.044 A 
ATOM      8  C   UNL     1       1.191   1.758  -0.880  0.00  0.00    +0.027 A 
ATOM      9  C   UNL     1       1.076   2.769   0.066  0.00  0.00    +0.044 A 
ATOM     10  C   UNL     1      -0.116   3.455   0.201  0.00  0.00    +0.065 A 
ATOM     11 CL   UNL     1      -0.261   4.719   1.383  0.00  0.00    -0.082 Cl
ATOM     12 CL   UNL     1      -2.431   1.729  -2.573  0.00  0.00    -0.082 Cl
BRANCH   8  13
ATOM     13  N   UNL     1       2.398   1.064  -1.017  0.00  0.00    -0.358 N 
ATOM     14  H   UNL     1       3.255   1.319  -0.376  0.00  0.00    +0.142 HD
ATOM     15  H   UNL     1       2.489   0.263  -1.765  0.00  0.00    +0.142 HD
ENDBRANCH   8  13
ENDBRANCH   3   5
BRANCH   1  16
ATOM     16  C   UNL     1      -4.880   3.918  -0.437  0.00  0.00    +0.016 C 
ATOM     17  C   UNL     1      -5.082   4.460   0.980  0.00  0.00    -0.004 C 
BRANCH  16  18
ATOM     18  N   UNL     1      -5.988   3.017  -0.779  0.00  0.00    +0.387 N 
ATOM     19  H   UNL     1      -5.706   2.465  -1.688  0.00  0.00    -0.081 HD
BRANCH  18  20
ATOM     20  C   UNL     1      -7.212   3.775  -1.073  0.00  0.00    -0.081 C 
ATOM     21  C   UNL     1      -7.100   4.404  -2.463  0.00  0.00    -0.017 C 
ENDBRANCH  18  20
BRANCH  18  22
ATOM     22  C   UNL     1      -6.220   2.038   0.291  0.00  0.00    -0.078 C 
BRANCH  22  23
ATOM     23  C   UNL     1      -7.201   0.970  -0.199  0.00  0.00    -0.019 C 
BRANCH  23  25
ATOM     24  C   UNL     1      -8.423  -1.118   0.425  0.00  0.00    +0.004 C 
ATOM     25  C   UNL     1      -7.442  -0.050   0.915  0.00  0.00    -0.005 C 
ENDBRANCH  23  25
ENDBRANCH  22  23
ENDBRANCH  18  22
ENDBRANCH  16  18
ENDBRANCH   1  16
TORSDOF 8
