REMARK  Name = ZINC16033144
REMARK  6 active torsions:
REMARK  status: ('A' for Active; 'I' for Inactive)
REMARK    1  A    between atoms: C_1  and  N_55
REMARK    2  A    between atoms: C_3  and  C_29
REMARK    3  A    between atoms: C_5  and  C_21
REMARK    4  A    between atoms: C_12  and  C_17
REMARK    5  A    between atoms: C_21  and  C_23
REMARK    6  A    between atoms: C_33  and  N_35
REMARK                            x       y       z     vdW  Elec       q    Type
REMARK                         _______ _______ _______ _____ _____    ______ ____
ROOT
ATOM      1  C   UNL     1      -4.643  -3.565   0.013  0.00  0.00    -0.094 C 
ATOM      2  C   UNL     1      -2.845  -3.137  -1.575  0.00  0.00    -0.068 C 
ATOM      3  C   UNL     1      -1.336  -2.810  -1.446  0.00  0.00    +0.013 C 
ATOM      4  C   UNL     1      -1.219  -2.277   0.002  0.00  0.00    +0.068 C 
ATOM      5  C   UNL     1      -2.443  -2.843   0.730  0.00  0.00    +0.050 C 
ATOM      6  C   UNL     1      -2.033  -3.651   1.931  0.00  0.00    -0.027 A 
ATOM      7  C   UNL     1      -1.256  -4.776   2.093  0.00  0.00    +0.004 A 
ATOM      8  C   UNL     1      -1.055  -5.303   3.357  0.00  0.00    +0.001 A 
ATOM      9  C   UNL     1      -1.638  -4.697   4.455  0.00  0.00    +0.014 A 
ATOM     10  C   UNL     1      -2.417  -3.570   4.298  0.00  0.00    +0.076 A 
ATOM     11  C   UNL     1      -2.623  -3.033   3.029  0.00  0.00    +0.047 A 
ATOM     12  N   UNL     1      -3.356  -1.918   2.618  0.00  0.00    -0.286 N 
ATOM     13  C   UNL     1      -3.301  -1.736   1.285  0.00  0.00    +0.212 C 
ATOM     14  O   UNL     1      -3.839  -0.852   0.653  0.00  0.00    -0.277 OA
ATOM     15  H   UNL     1      -3.848  -1.341   3.223  0.00  0.00    +0.155 HD
ATOM     16  N   UNL     1      -3.172  -3.654  -0.239  0.00  0.00    +0.391 N 
ATOM     17  H   UNL     1      -2.877  -4.634  -0.165  0.00  0.00    -0.080 HD
ENDROOT
BRANCH   3  18
ATOM     18  C   UNL     1      -0.933  -1.750  -2.439  0.00  0.00    -0.043 A 
ATOM     19  C   UNL     1      -1.621  -0.552  -2.488  0.00  0.00    +0.004 A 
ATOM     20  C   UNL     1      -1.252   0.420  -3.398  0.00  0.00    +0.002 A 
ATOM     21  C   UNL     1      -0.195   0.195  -4.260  0.00  0.00    +0.033 A 
ATOM     22  C   UNL     1       0.494  -1.003  -4.211  0.00  0.00    +0.126 A 
ATOM     23  C   UNL     1       0.127  -1.974  -3.297  0.00  0.00    +0.036 A 
BRANCH  22  24
ATOM     24  N   UNL     1       1.626  -1.245  -5.133  0.00  0.00    +0.056 N 
ATOM     25  O   UNL     1       1.951  -0.388  -5.936  0.00  0.00    -0.126 OA
ATOM     26  O   UNL     1       2.232  -2.300  -5.089  0.00  0.00    -0.126 OA
ENDBRANCH  22  24
ENDBRANCH   3  18
BRANCH  10  27
ATOM     27  C   UNL     1      -3.046  -2.917   5.501  0.00  0.00    +0.419 C 
ATOM     28  F   UNL     1      -2.699  -3.630   6.653  0.00  0.00    -0.166 F 
ATOM     29  F   UNL     1      -2.587  -1.600   5.611  0.00  0.00    -0.166 F 
ATOM     30  F   UNL     1      -4.438  -2.915   5.356  0.00  0.00    -0.166 F 
ENDBRANCH  10  27
BRANCH   4  31
ATOM     31  C   UNL     1      -1.254  -0.770   0.010  0.00  0.00    +0.168 C 
ATOM     32  O   UNL     1      -2.295  -0.187  -0.207  0.00  0.00    -0.292 OA
BRANCH  31  33
ATOM     33  C   UNL     1      -0.026  -0.006   0.282  0.00  0.00    +0.036 A 
ATOM     34  C   UNL     1      -0.046   1.397   0.293  0.00  0.00    +0.014 A 
ATOM     35  C   UNL     1       1.136   2.066   0.554  0.00  0.00    +0.020 A 
ATOM     36  C   UNL     1       2.289   1.338   0.794  0.00  0.00    +0.111 A 
ATOM     37  N   UNL     1       2.278   0.019   0.777  0.00  0.00    -0.263 NA
ATOM     38  C   UNL     1       1.180  -0.666   0.534  0.00  0.00    +0.122 A 
ENDBRANCH  31  33
ENDBRANCH   4  31
TORSDOF 5
