REMARK  Name = ZINC47629023
REMARK  8 active torsions:
REMARK  status: ('A' for Active; 'I' for Inactive)
REMARK    1  A    between atoms: C_1  and  C_2
REMARK    2  A    between atoms: C_2  and  C_4
REMARK    3  A    between atoms: C_2  and  N_18
REMARK    4  A    between atoms: N_6  and  C_7
REMARK    5  A    between atoms: C_11  and  C_13
REMARK    6  A    between atoms: N_18  and  C_19
REMARK    7  A    between atoms: N_18  and  C_20
REMARK    8  A    between atoms: C_20  and  C_21
REMARK                            x       y       z     vdW  Elec       q    Type
REMARK                         _______ _______ _______ _____ _____    ______ ____
ROOT
ATOM      1  C   UNL     1      -1.412  -0.711  -0.016  0.00  0.00    +0.203 C 
ATOM      2  O   UNL     1      -1.711  -1.578   0.777  0.00  0.00    -0.277 OA
ATOM      3  N   UNL     1      -2.334  -0.237  -0.877  0.00  0.00    -0.287 N 
ATOM      4  H   UNL     1      -2.079   0.409  -1.553  0.00  0.00    +0.155 HD
ENDROOT
BRANCH   3   5
ATOM      5  C   UNL     1      -3.660  -0.679  -0.795  0.00  0.00    +0.034 A 
ATOM      6  C   UNL     1      -4.204  -1.022   0.436  0.00  0.00    +0.025 A 
ATOM      7  C   UNL     1      -5.512  -1.457   0.514  0.00  0.00    +0.022 A 
ATOM      8  C   UNL     1      -6.280  -1.554  -0.634  0.00  0.00    +0.053 A 
ATOM      9  C   UNL     1      -5.740  -1.213  -1.861  0.00  0.00    +0.075 A 
ATOM     10  C   UNL     1      -4.434  -0.771  -1.944  0.00  0.00    +0.037 A 
ATOM     11 CL   UNL     1      -7.924  -2.103  -0.532  0.00  0.00    -0.083 Cl
BRANCH   9  12
ATOM     12  C   UNL     1      -6.580  -1.319  -3.108  0.00  0.00    +0.419 C 
ATOM     13  F   UNL     1      -5.821  -0.924  -4.216  0.00  0.00    -0.166 F 
ATOM     14  F   UNL     1      -6.998  -2.644  -3.278  0.00  0.00    -0.166 F 
ATOM     15  F   UNL     1      -7.699  -0.489  -2.989  0.00  0.00    -0.166 F 
ENDBRANCH   9  12
ENDBRANCH   3   5
BRANCH   1  17
ATOM     16  C   UNL     1       0.063   1.094   0.830  0.00  0.00    -0.004 C 
ATOM     17  C   UNL     1      -0.008  -0.163  -0.039  0.00  0.00    +0.017 C 
BRANCH  17  18
ATOM     18  N   UNL     1       0.921  -1.173   0.485  0.00  0.00    +0.391 N 
ATOM     19  C   UNL     1       0.922  -2.344  -0.402  0.00  0.00    -0.094 C 
ATOM     20  H   UNL     1       0.628  -1.452   1.410  0.00  0.00    -0.080 HD
BRANCH  18  21
ATOM     21  C   UNL     1       2.275  -0.607   0.550  0.00  0.00    +0.019 C 
BRANCH  21  22
ATOM     22  C   UNL     1       3.204  -1.599   1.201  0.00  0.00    +0.194 C 
ATOM     23  O   UNL     1       2.779  -2.672   1.574  0.00  0.00    -0.278 OA
ATOM     24  N   UNL     1       4.505  -1.294   1.369  0.00  0.00    -0.331 N 
ATOM     25  H   UNL     1       4.845  -0.435   1.070  0.00  0.00    +0.145 HD
ATOM     26  H   UNL     1       5.103  -1.933   1.788  0.00  0.00    +0.145 HD
ENDBRANCH  21  22
ENDBRANCH  18  21
ENDBRANCH  17  18
ENDBRANCH   1  17
TORSDOF 6
