REMARK  Name = ZINC45301762
REMARK  7 active torsions:
REMARK  status: ('A' for Active; 'I' for Inactive)
REMARK    1  A    between atoms: C_5  and  O_7
REMARK    2  A    between atoms: O_7  and  C_8
REMARK    3  A    between atoms: C_11  and  N_14
REMARK    4  A    between atoms: N_14  and  C_15
REMARK    5  A    between atoms: C_23  and  C_25
REMARK    6  A    between atoms: C_28  and  C_30
REMARK    7  A    between atoms: C_30  and  N_31
REMARK                            x       y       z     vdW  Elec       q    Type
REMARK                         _______ _______ _______ _____ _____    ______ ____
ROOT
ATOM      1  C   UNL     1       6.481  -5.565  -0.575  0.00  0.00    +0.042 A 
ATOM      2  C   UNL     1       5.385  -6.414  -0.606  0.00  0.00    +0.041 A 
ATOM      3  C   UNL     1       5.572  -7.772  -0.819  0.00  0.00    +0.085 A 
ATOM      4  N   UNL     1       6.768  -8.287  -0.995  0.00  0.00    -0.361 N 
ATOM      5  C   UNL     1       7.870  -7.527  -0.976  0.00  0.00    +0.049 A 
ATOM      6  C   UNL     1       7.763  -6.130  -0.770  0.00  0.00    +0.019 A 
ATOM      7  C   UNL     1       8.918  -5.332  -0.757  0.00  0.00    +0.012 A 
ATOM      8  C   UNL     1      10.138  -5.899  -0.947  0.00  0.00    +0.012 A 
ATOM      9  C   UNL     1      10.260  -7.284  -1.158  0.00  0.00    +0.019 A 
ATOM     10  C   UNL     1       9.138  -8.097  -1.164  0.00  0.00    +0.037 A 
ATOM     11  H   UNL     1       6.854  -9.242  -1.141  0.00  0.00    +0.165 HD
ENDROOT
BRANCH   9  12
ATOM     12  C   UNL     1      11.597  -7.878  -1.363  0.00  0.00    +0.135 A 
ATOM     13  C   UNL     1      12.778  -7.205  -1.364  0.00  0.00    +0.050 A 
ATOM     14  C   UNL     1      13.789  -8.159  -1.593  0.00  0.00    +0.046 A 
ATOM     15  C   UNL     1      13.182  -9.355  -1.719  0.00  0.00    +0.120 A 
ATOM     16  O   UNL     1      11.858  -9.183  -1.574  0.00  0.00    -0.458 OA
BRANCH  15  17
ATOM     17  C   UNL     1      13.874 -10.669  -1.974  0.00  0.00    +0.158 C 
BRANCH  17  18
ATOM     18  N   UNL     1      14.216 -11.300  -0.692  0.00  0.00    -0.299 NA
ATOM     19  C   UNL     1      13.005 -11.686   0.045  0.00  0.00    +0.066 C 
ATOM     20  C   UNL     1      13.402 -12.283   1.397  0.00  0.00    -0.067 C 
ATOM     21  N   UNL     1      14.259 -13.456   1.181  0.00  0.00    +0.381 N 
ATOM     22  C   UNL     1      15.476 -13.050   0.466  0.00  0.00    -0.067 C 
ATOM     23  C   UNL     1      15.096 -12.460  -0.894  0.00  0.00    +0.066 C 
ATOM     24  H   UNL     1      14.511 -13.856   2.072  0.00  0.00    -0.086 HD
ATOM     25  H   UNL     1      13.761 -14.141   0.634  0.00  0.00    -0.086 HD
ENDBRANCH  17  18
ENDBRANCH  15  17
ENDBRANCH   9  12
BRANCH   1  26
ATOM     26  N   UNL     1       6.325  -4.203  -0.363  0.00  0.00    -0.314 N 
ATOM     27  H   UNL     1       7.086  -3.608  -0.452  0.00  0.00    +0.152 HD
BRANCH  26  31
ATOM     28  C   UNL     1       2.586  -2.667   0.653  0.00  0.00    +0.130 A 
ATOM     29  C   UNL     1       3.023  -3.858   1.215  0.00  0.00    +0.048 A 
ATOM     30  C   UNL     1       4.261  -4.367   0.879  0.00  0.00    +0.027 A 
ATOM     31  C   UNL     1       5.070  -3.688  -0.022  0.00  0.00    +0.032 A 
ATOM     32  C   UNL     1       4.632  -2.495  -0.585  0.00  0.00    +0.027 A 
ATOM     33  C   UNL     1       3.391  -1.990  -0.252  0.00  0.00    +0.048 A 
BRANCH  28  34
ATOM     34  O   UNL     1       1.367  -2.166   0.985  0.00  0.00    -0.438 OA
BRANCH  34  39
ATOM     35  C   UNL     1      -0.086  -0.316   3.750  0.00  0.00    +0.007 A 
ATOM     36  C   UNL     1       1.007  -0.324   4.606  0.00  0.00    +0.020 A 
ATOM     37  C   UNL     1       2.171  -0.950   4.209  0.00  0.00    +0.114 A 
ATOM     38  N   UNL     1       2.256  -1.537   3.030  0.00  0.00    -0.221 NA
ATOM     39  C   UNL     1       1.236  -1.550   2.187  0.00  0.00    +0.220 A 
ATOM     40  C   UNL     1       0.033  -0.941   2.521  0.00  0.00    +0.067 A 
ENDBRANCH  34  39
ENDBRANCH  28  34
ENDBRANCH  26  31
ENDBRANCH   1  26
TORSDOF 7
