REMARK  Name = ZINC03348597
REMARK  7 active torsions:
REMARK  status: ('A' for Active; 'I' for Inactive)
REMARK    1  A    between atoms: C_4  and  C_7
REMARK    2  A    between atoms: C_7  and  C_9
REMARK    3  A    between atoms: C_9  and  C_11
REMARK    4  A    between atoms: C_14  and  C_17
REMARK    5  A    between atoms: N_19  and  C_20
REMARK    6  A    between atoms: C_25  and  C_26
REMARK    7  A    between atoms: C_26  and  C_28
REMARK                            x       y       z     vdW  Elec       q    Type
REMARK                         _______ _______ _______ _____ _____    ______ ____
ROOT
ATOM      1  C   UNL     1       9.750  -3.167  -0.533  0.00  0.00    +0.248 C 
ATOM      2  O   UNL     1      10.827  -2.605  -0.476  0.00  0.00    -0.270 OA
ATOM      3  N   UNL     1       9.695  -4.510  -0.631  0.00  0.00    -0.281 N 
ATOM      4  H   UNL     1       8.838  -4.963  -0.601  0.00  0.00    +0.155 HD
ENDROOT
BRANCH   3   5
ATOM      5  C   UNL     1      10.867  -5.246  -0.776  0.00  0.00    +0.045 A 
ATOM      6  C   UNL     1      12.000  -4.654  -1.319  0.00  0.00    +0.025 A 
ATOM      7  C   UNL     1      13.162  -5.385  -1.462  0.00  0.00    +0.022 A 
ATOM      8  C   UNL     1      13.209  -6.713  -1.066  0.00  0.00    +0.042 A 
ATOM      9  C   UNL     1      12.094  -7.319  -0.526  0.00  0.00    +0.033 A 
ATOM     10  C   UNL     1      10.912  -6.589  -0.370  0.00  0.00    +0.045 A 
ATOM     11 CL   UNL     1      14.678  -7.619  -1.252  0.00  0.00    -0.084 Cl
BRANCH  10  12
ATOM     12  C   UNL     1       9.718  -7.227   0.213  0.00  0.00    +0.198 C 
ATOM     13  O   UNL     1       9.094  -8.051  -0.428  0.00  0.00    -0.286 OA
BRANCH  12  14
ATOM     14  C   UNL     1       9.279  -6.866   1.576  0.00  0.00    +0.057 A 
ATOM     15  C   UNL     1       9.934  -5.852   2.280  0.00  0.00    +0.014 A 
ATOM     16  C   UNL     1       9.517  -5.517   3.550  0.00  0.00    +0.001 A 
ATOM     17  C   UNL     1       8.456  -6.188   4.134  0.00  0.00    +0.003 A 
ATOM     18  C   UNL     1       7.804  -7.196   3.449  0.00  0.00    +0.039 A 
ATOM     19  C   UNL     1       8.208  -7.541   2.172  0.00  0.00    +0.134 A 
ATOM     20  F   UNL     1       7.570  -8.526   1.502  0.00  0.00    -0.205 F 
ENDBRANCH  12  14
ENDBRANCH  10  12
ENDBRANCH   3   5
BRANCH   1  24
ATOM     21  C   UNL     1       6.157  -0.892  -0.423  0.00  0.00    +0.026 A 
ATOM     22  C   UNL     1       6.100  -2.286  -0.519  0.00  0.00    +0.012 A 
ATOM     23  C   UNL     1       7.264  -3.021  -0.561  0.00  0.00    +0.014 A 
ATOM     24  C   UNL     1       8.500  -2.375  -0.495  0.00  0.00    +0.037 A 
ATOM     25  C   UNL     1       8.558  -0.984  -0.393  0.00  0.00    +0.014 A 
ATOM     26  C   UNL     1       7.396  -0.246  -0.357  0.00  0.00    +0.012 A 
BRANCH  21  27
ATOM     27  C   UNL     1       4.909  -0.102  -0.384  0.00  0.00    +0.233 C 
ATOM     28  O   UNL     1       4.958   1.110  -0.388  0.00  0.00    -0.283 OA
BRANCH  27  29
ATOM     29  C   UNL     1       3.589  -0.795  -0.340  0.00  0.00    +0.233 C 
ATOM     30  O   UNL     1       3.211  -1.315   0.689  0.00  0.00    -0.283 OA
BRANCH  29  34
ATOM     31  C   UNL     1       1.156  -0.948  -3.814  0.00  0.00    +0.000 A 
ATOM     32  C   UNL     1       2.331  -0.216  -3.828  0.00  0.00    +0.001 A 
ATOM     33  C   UNL     1       3.127  -0.161  -2.704  0.00  0.00    +0.012 A 
ATOM     34  C   UNL     1       2.744  -0.848  -1.546  0.00  0.00    +0.026 A 
ATOM     35  C   UNL     1       1.555  -1.585  -1.540  0.00  0.00    +0.012 A 
ATOM     36  C   UNL     1       0.770  -1.630  -2.673  0.00  0.00    +0.001 A 
ENDBRANCH  29  34
ENDBRANCH  27  29
ENDBRANCH  21  27
ENDBRANCH   1  24
TORSDOF 7
