REMARK  Name = ZINC46583257
REMARK  9 active torsions:
REMARK  status: ('A' for Active; 'I' for Inactive)
REMARK    1  A    between atoms: C_1  and  C_2
REMARK    2  A    between atoms: C_2  and  C_4
REMARK    3  A    between atoms: C_2  and  N_11
REMARK    4  A    between atoms: N_11  and  C_12
REMARK    5  A    between atoms: N_11  and  C_13
REMARK    6  A    between atoms: C_13  and  C_14
REMARK    7  A    between atoms: N_16  and  C_17
REMARK    8  A    between atoms: C_20  and  S_23
REMARK    9  A    between atoms: S_23  and  N_26
REMARK                            x       y       z     vdW  Elec       q    Type
REMARK                         _______ _______ _______ _____ _____    ______ ____
ROOT
ATOM      1  C   UNL     1      -3.511  -0.455   1.171  0.00  0.00    +0.201 C 
ATOM      2  O   UNL     1      -3.930  -1.079   0.219  0.00  0.00    -0.278 OA
ATOM      3  N   UNL     1      -4.341  -0.130   2.182  0.00  0.00    -0.287 N 
ATOM      4  H   UNL     1      -3.992   0.309   2.974  0.00  0.00    +0.155 HD
ENDROOT
BRANCH   3   5
ATOM      5  C   UNL     1      -5.705  -0.426   2.090  0.00  0.00    +0.033 A 
ATOM      6  C   UNL     1      -6.644   0.440   2.637  0.00  0.00    +0.025 A 
ATOM      7  C   UNL     1      -7.990   0.145   2.544  0.00  0.00    +0.030 A 
ATOM      8  C   UNL     1      -8.404  -1.011   1.907  0.00  0.00    +0.105 A 
ATOM      9  C   UNL     1      -7.472  -1.875   1.362  0.00  0.00    +0.030 A 
ATOM     10  C   UNL     1      -6.125  -1.583   1.446  0.00  0.00    +0.025 A 
BRANCH   8  11
ATOM     11  S   UNL     1     -10.122  -1.384   1.791  0.00  0.00    +0.056 S 
ATOM     12  O   UNL     1     -10.222  -2.792   1.628  0.00  0.00    -0.153 OA
ATOM     13  O   UNL     1     -10.760  -0.693   2.856  0.00  0.00    -0.153 OA
BRANCH  11  14
ATOM     14  N   UNL     1     -10.676  -0.704   0.387  0.00  0.00    -0.204 NA
ATOM     15  H   UNL     1     -10.068  -0.212  -0.187  0.00  0.00    +0.144 HD
ATOM     16  H   UNL     1     -11.609  -0.797   0.138  0.00  0.00    +0.144 HD
ENDBRANCH  11  14
ENDBRANCH   8  11
ENDBRANCH   3   5
BRANCH   1  17
ATOM     17  C   UNL     1      -2.062  -0.044   1.224  0.00  0.00    +0.019 C 
BRANCH  17  18
ATOM     18  N   UNL     1      -1.375  -0.515   0.014  0.00  0.00    +0.388 N 
ATOM     19  C   UNL     1      -1.362  -1.984  -0.002  0.00  0.00    -0.095 C 
ATOM     20  H   UNL     1      -1.861  -0.174  -0.802  0.00  0.00    -0.081 HD
BRANCH  18  22
ATOM     21  C   UNL     1      -0.008   1.517   0.025  0.00  0.00    -0.008 C 
ATOM     22  C   UNL     1       0.005  -0.013   0.008  0.00  0.00    -0.041 C 
BRANCH  22  23
ATOM     23  C   UNL     1       0.710  -0.496  -1.234  0.00  0.00    -0.061 A 
ATOM     24  C   UNL     1       0.041  -0.517  -2.443  0.00  0.00    +0.003 A 
ATOM     25  C   UNL     1       0.687  -0.960  -3.582  0.00  0.00    +0.020 A 
ATOM     26  C   UNL     1       2.003  -1.381  -3.512  0.00  0.00    +0.041 A 
ATOM     27  C   UNL     1       2.672  -1.359  -2.301  0.00  0.00    +0.020 A 
ATOM     28  C   UNL     1       2.027  -0.911  -1.163  0.00  0.00    +0.003 A 
ATOM     29 CL   UNL     1       2.814  -1.937  -4.942  0.00  0.00    -0.084 Cl
ENDBRANCH  22  23
ENDBRANCH  18  22
ENDBRANCH  17  18
ENDBRANCH   1  17
TORSDOF 7
