REMARK  Name = ZINC30961226
REMARK  10 active torsions:
REMARK  status: ('A' for Active; 'I' for Inactive)
REMARK    1  A    between atoms: C_1  and  C_2
REMARK    2  A    between atoms: C_2  and  C_3
REMARK    3  A    between atoms: C_2  and  C_4
REMARK    4  A    between atoms: C_4  and  C_6
REMARK    5  A    between atoms: C_4  and  N_24
REMARK    6  A    between atoms: N_8  and  N_9
REMARK    7  A    between atoms: C_10  and  C_11
REMARK    8  A    between atoms: N_13  and  C_20
REMARK    9  A    between atoms: C_20  and  C_21
REMARK   10  A    between atoms: C_25  and  C_27
REMARK                            x       y       z     vdW  Elec       q    Type
REMARK                         _______ _______ _______ _____ _____    ______ ____
ROOT
ATOM      1  C   UNL     1      -0.100   6.786   0.352  0.00  0.00    +0.253 C 
ATOM      2  O   UNL     1      -0.483   7.929   0.212  0.00  0.00    -0.272 OA
ATOM      3  N   UNL     1      -0.995   5.780   0.424  0.00  0.00    -0.205 N 
ATOM      4  H   UNL     1      -0.647   4.737   0.463  0.00  0.00    +0.177 HD
ENDROOT
BRANCH   3   5
ATOM      5  N   UNL     1      -2.366   6.063   0.449  0.00  0.00    -0.188 NA
ATOM      6  C   UNL     1      -3.223   5.110   0.663  0.00  0.00    +0.140 C 
BRANCH   6   7
ATOM      7  C   UNL     1      -2.798   3.882   1.355  0.00  0.00    +0.020 A 
ATOM      8  C   UNL     1      -1.603   3.665   1.967  0.00  0.00    +0.096 A 
ATOM      9  N   UNL     1      -1.579   2.409   2.497  0.00  0.00    -0.337 N 
ATOM     10  C   UNL     1      -2.774   1.766   2.254  0.00  0.00    +0.050 A 
ATOM     11  C   UNL     1      -3.591   2.652   1.533  0.00  0.00    +0.009 A 
ATOM     12  C   UNL     1      -4.875   2.266   1.153  0.00  0.00    +0.010 A 
ATOM     13  C   UNL     1      -5.335   1.010   1.482  0.00  0.00    +0.001 A 
ATOM     14  C   UNL     1      -4.527   0.132   2.190  0.00  0.00    +0.002 A 
ATOM     15  C   UNL     1      -3.256   0.500   2.573  0.00  0.00    +0.026 A 
BRANCH   9  16
ATOM     16  C   UNL     1      -0.446   1.827   3.221  0.00  0.00    +0.217 C 
BRANCH  16  17
ATOM     17  C   UNL     1       0.397   1.019   2.268  0.00  0.00    +0.230 C 
ATOM     18  O   UNL     1       0.082   0.938   1.100  0.00  0.00    -0.274 OA
ATOM     19  N   UNL     1       1.500   0.387   2.714  0.00  0.00    -0.328 N 
ATOM     20  H   UNL     1       2.115  -0.203   2.019  0.00  0.00    +0.145 HD
ATOM     21  H   UNL     1       1.786   0.461   3.774  0.00  0.00    +0.145 HD
ENDBRANCH  16  17
ENDBRANCH   9  16
ENDBRANCH   6   7
ENDBRANCH   3   5
BRANCH   1  22
ATOM     22  C   UNL     1       1.375   6.491   0.445  0.00  0.00    +0.163 C 
BRANCH  22  23
ATOM     23  N   UNL     1       2.095   7.714   0.805  0.00  0.00    -0.300 N 
ATOM     24  C   UNL     1       3.289   7.636   1.426  0.00  0.00    +0.245 C 
ATOM     25  O   UNL     1       3.767   6.549   1.688  0.00  0.00    -0.270 OA
ATOM     26  H   UNL     1       1.663   8.697   0.568  0.00  0.00    +0.150 HD
BRANCH  24  27
ATOM     27  C   UNL     1       4.016   8.870   1.789  0.00  0.00    +0.038 A 
ATOM     28  C   UNL     1       5.253   8.792   2.432  0.00  0.00    +0.013 A 
ATOM     29  C   UNL     1       5.927   9.948   2.768  0.00  0.00    +0.002 A 
ATOM     30  C   UNL     1       5.381  11.183   2.468  0.00  0.00    +0.020 A 
ATOM     31  C   UNL     1       4.156  11.268   1.829  0.00  0.00    +0.042 A 
ATOM     32  C   UNL     1       3.473  10.119   1.484  0.00  0.00    +0.033 A 
ATOM     33 CL   UNL     1       3.480  12.823   1.456  0.00  0.00    -0.084 Cl
ENDBRANCH  24  27
ENDBRANCH  22  23
BRANCH  22  35
ATOM     34  C   UNL     1       3.360   5.611  -0.791  0.00  0.00    +0.009 C 
ATOM     35  C   UNL     1       1.879   5.979  -0.905  0.00  0.00    +0.012 C 
ATOM     36  C   UNL     1       1.076   4.744  -1.316  0.00  0.00    +0.009 C 
ENDBRANCH  22  35
ENDBRANCH   1  22
TORSDOF 8
