REMARK  Name = ZINC37635527
REMARK  2 active torsions:
REMARK  status: ('A' for Active; 'I' for Inactive)
REMARK    1  A    between atoms: N_3  and  C_7
REMARK    2  A    between atoms: C_7  and  C_8
REMARK                            x       y       z     vdW  Elec       q    Type
REMARK                         _______ _______ _______ _____ _____    ______ ____
ROOT
ATOM      1  C   UNL     1       3.529   0.655  -0.029  0.00  0.00    +0.159 C 
ENDROOT
BRANCH   1   2
ATOM      2  C   UNL     1       4.016   0.535  -1.450  0.00  0.00    -0.023 A 
ATOM      3  C   UNL     1       4.225  -0.714  -2.004  0.00  0.00    +0.055 A 
ATOM      4  C   UNL     1       4.673  -0.828  -3.310  0.00  0.00    +0.168 A 
ATOM      5  C   UNL     1       4.912   0.320  -4.062  0.00  0.00    +0.180 A 
ATOM      6  C   UNL     1       4.700   1.569  -3.500  0.00  0.00    +0.064 A 
ATOM      7  C   UNL     1       4.247   1.674  -2.197  0.00  0.00    +0.024 A 
ATOM      8 BR   UNL     1       5.023   3.130  -4.518  0.00  0.00    -0.046 Br
ATOM      9  O   UNL     1       5.342  -0.054  -5.303  0.00  0.00    -0.451 OA
ATOM     10  C   UNL     1       5.753  -1.427  -5.170  0.00  0.00    +0.466 C 
ATOM     11  O   UNL     1       4.953  -1.920  -4.079  0.00  0.00    -0.453 OA
ENDBRANCH   1   2
BRANCH   1  14
ATOM     12  C   UNL     1      -0.016   1.340   0.009  0.00  0.00    +0.103 A 
ATOM     13  C   UNL     1       1.254   1.779  -0.000  0.00  0.00    +0.106 A 
ATOM     14  N   UNL     1       2.064   0.666  -0.014  0.00  0.00    -0.316 N 
ATOM     15  C   UNL     1       1.246  -0.421  -0.012  0.00  0.00    +0.171 A 
ATOM     16  N   UNL     1       0.002  -0.004   0.002  0.00  0.00    -0.334 N 
ATOM     17  N   UNL     1       1.657  -1.743  -0.024  0.00  0.00    -0.330 N 
ATOM     18  H   UNL     1       2.603  -1.957  -0.034  0.00  0.00    +0.145 HD
ATOM     19  H   UNL     1       0.999  -2.456  -0.021  0.00  0.00    +0.145 HD
ATOM     20  H   UNL     1      -0.781  -0.576   0.006  0.00  0.00    +0.168 HD
ENDBRANCH   1  14
TORSDOF 2
