REMARK  Name = ZINC66243676
REMARK  8 active torsions:
REMARK  status: ('A' for Active; 'I' for Inactive)
REMARK    1  A    between atoms: C_1  and  C_2
REMARK    2  A    between atoms: C_2  and  O_3
REMARK    3  A    between atoms: O_3  and  C_4
REMARK    4  A    between atoms: C_7  and  O_10
REMARK    5  A    between atoms: O_10  and  C_11
REMARK    6  A    between atoms: C_13  and  C_17
REMARK    7  A    between atoms: C_17  and  N_18
REMARK    8  A    between atoms: N_21  and  C_22
REMARK                            x       y       z     vdW  Elec       q    Type
REMARK                         _______ _______ _______ _____ _____    ______ ____
ROOT
ATOM      1  C   UNL     1       1.869  -6.387   2.787  0.00  0.00    +0.221 A 
ATOM      2  C   UNL     1       2.095  -7.752   2.906  0.00  0.00    +0.073 A 
ATOM      3  C   UNL     1       2.847  -8.219   3.970  0.00  0.00    -0.022 A 
ATOM      4  C   UNL     1       3.349  -7.300   4.880  0.00  0.00    +0.025 A 
ATOM      5  C   UNL     1       3.085  -5.957   4.699  0.00  0.00    +0.115 A 
ATOM      6  N   UNL     1       2.369  -5.541   3.672  0.00  0.00    -0.221 NA
ENDROOT
BRANCH   1   7
ATOM      7  O   UNL     1       1.133  -5.916   1.749  0.00  0.00    -0.438 OA
BRANCH   7  11
ATOM      8  C   UNL     1       0.796  -1.825   1.309  0.00  0.00    +0.121 A 
ATOM      9  C   UNL     1       1.966  -2.469   0.932  0.00  0.00    +0.049 A 
ATOM     10  C   UNL     1       2.079  -3.838   1.079  0.00  0.00    +0.050 A 
ATOM     11  C   UNL     1       1.022  -4.568   1.604  0.00  0.00    +0.131 A 
ATOM     12  C   UNL     1      -0.147  -3.924   1.981  0.00  0.00    +0.050 A 
ATOM     13  C   UNL     1      -0.258  -2.555   1.838  0.00  0.00    +0.049 A 
BRANCH   8  14
ATOM     14  O   UNL     1       0.686  -0.478   1.164  0.00  0.00    -0.492 OA
BRANCH  14  16
ATOM     15  C   UNL     1       1.501   1.706   0.527  0.00  0.00    +0.048 C 
ATOM     16  C   UNL     1       1.810   0.210   0.612  0.00  0.00    +0.225 C 
ENDBRANCH  14  16
ENDBRANCH   8  14
ENDBRANCH   7  11
ENDBRANCH   1   7
BRANCH   3  17
ATOM     17  C   UNL     1       3.115  -9.693   4.136  0.00  0.00    +0.151 C 
BRANCH  17  18
ATOM     18  N   UNL     1       4.350 -10.047   3.431  0.00  0.00    -0.354 N 
ATOM     19  C   UNL     1       4.799 -11.347   3.442  0.00  0.00    +0.169 C 
ATOM     20  N   UNL     1       4.126 -12.264   4.079  0.00  0.00    -0.371 N 
ATOM     21  N   UNL     1       5.957 -11.679   2.781  0.00  0.00    -0.355 N 
ATOM     22  H   UNL     1       4.851  -9.365   2.957  0.00  0.00    +0.163 HD
ATOM     23  H   UNL     1       4.443 -13.180   4.087  0.00  0.00    +0.159 HD
ATOM     24  H   UNL     1       6.458 -10.997   2.307  0.00  0.00    +0.163 HD
ATOM     25  H   UNL     1       3.308 -12.029   4.546  0.00  0.00    +0.159 HD
BRANCH  21  26
ATOM     26  C   UNL     1       6.436 -13.064   2.793  0.00  0.00    +0.082 C 
ATOM     27  C   UNL     1       5.802 -13.852   1.628  0.00  0.00    +0.024 C 
ATOM     28  C   UNL     1       6.862 -13.780   0.500  0.00  0.00    +0.002 C 
ATOM     29  C   UNL     1       8.196 -13.905   1.277  0.00  0.00    +0.002 C 
ATOM     30  C   UNL     1       7.958 -13.098   2.570  0.00  0.00    +0.024 C 
ENDBRANCH  21  26
ENDBRANCH  17  18
ENDBRANCH   3  17
TORSDOF 7
