REMARK  Name = ZINC43222391
REMARK  9 active torsions:
REMARK  status: ('A' for Active; 'I' for Inactive)
REMARK    1  A    between atoms: C_1  and  C_2
REMARK    2  A    between atoms: C_6  and  C_8
REMARK    3  A    between atoms: C_8  and  N_9
REMARK    4  A    between atoms: C_10  and  C_12
REMARK    5  A    between atoms: C_17  and  C_19
REMARK    6  A    between atoms: N_21  and  C_22
REMARK    7  A    between atoms: N_21  and  C_29
REMARK    8  A    between atoms: C_22  and  C_23
REMARK    9  A    between atoms: C_29  and  C_30
REMARK                            x       y       z     vdW  Elec       q    Type
REMARK                         _______ _______ _______ _____ _____    ______ ____
ROOT
ATOM      1  C   UNL     1       2.883  -4.190   4.391  0.00  0.00    +0.068 C 
ATOM      2  C   UNL     1       3.580  -2.813   4.346  0.00  0.00    -0.069 C 
ATOM      3  N   UNL     1       3.698  -2.407   5.770  0.00  0.00    +0.380 N 
ATOM      4  C   UNL     1       4.049  -3.663   6.480  0.00  0.00    -0.069 C 
ATOM      5  C   UNL     1       3.192  -4.752   5.794  0.00  0.00    +0.068 C 
ATOM      6  H   UNL     1       4.431  -1.722   5.881  0.00  0.00    -0.086 HD
ATOM      7  H   UNL     1       2.819  -2.044   6.107  0.00  0.00    -0.086 HD
ENDROOT
BRANCH   1   9
ATOM      8  N   UNL     1       0.910  -3.525   3.055  0.00  0.00    -0.311 N 
ATOM      9  C   UNL     1       1.396  -4.031   4.206  0.00  0.00    +0.215 C 
ATOM     10  O   UNL     1       0.637  -4.358   5.093  0.00  0.00    -0.276 OA
ATOM     11  H   UNL     1       1.518  -3.264   2.346  0.00  0.00    +0.149 HD
BRANCH   8  12
ATOM     12  C   UNL     1      -0.535  -3.371   2.876  0.00  0.00    +0.139 C 
BRANCH  12  18
ATOM     13  C   UNL     1      -1.209   0.611  -0.081  0.00  0.00    +0.044 C 
ATOM     14  C   UNL     1      -1.136  -0.884   0.100  0.00  0.00    -0.050 A 
ATOM     15  C   UNL     1      -1.323  -1.721  -0.985  0.00  0.00    +0.003 A 
ATOM     16  C   UNL     1      -1.256  -3.091  -0.820  0.00  0.00    +0.001 A 
ATOM     17  C   UNL     1      -1.001  -3.625   0.430  0.00  0.00    +0.005 A 
ATOM     18  C   UNL     1      -0.813  -2.789   1.514  0.00  0.00    -0.030 A 
ATOM     19  C   UNL     1      -0.876  -1.417   1.348  0.00  0.00    +0.008 A 
ENDBRANCH  12  18
ENDBRANCH   8  12
ENDBRANCH   1   9
BRANCH   5  20
ATOM     20  C   UNL     1       3.968  -6.039   5.684  0.00  0.00    +0.218 C 
ATOM     21  O   UNL     1       4.394  -6.400   4.607  0.00  0.00    -0.275 OA
ATOM     22  N   UNL     1       4.189  -6.790   6.781  0.00  0.00    -0.293 N 
BRANCH  22  23
ATOM     23  C   UNL     1       5.017  -7.995   6.691  0.00  0.00    +0.143 C 
BRANCH  23  24
ATOM     24  C   UNL     1       6.456  -7.636   6.955  0.00  0.00    -0.030 A 
ATOM     25  C   UNL     1       7.280  -7.265   5.908  0.00  0.00    +0.005 A 
ATOM     26  C   UNL     1       8.600  -6.935   6.151  0.00  0.00    +0.000 A 
ATOM     27  C   UNL     1       9.097  -6.977   7.440  0.00  0.00    +0.000 A 
ATOM     28  C   UNL     1       8.274  -7.347   8.487  0.00  0.00    +0.000 A 
ATOM     29  C   UNL     1       6.952  -7.672   8.245  0.00  0.00    +0.005 A 
ENDBRANCH  23  24
ENDBRANCH  22  23
BRANCH  22  30
ATOM     30  C   UNL     1       3.600  -6.400   8.065  0.00  0.00    +0.143 C 
BRANCH  30  31
ATOM     31  C   UNL     1       2.309  -7.148   8.274  0.00  0.00    -0.030 A 
ATOM     32  C   UNL     1       1.105  -6.558   7.936  0.00  0.00    +0.005 A 
ATOM     33  C   UNL     1      -0.079  -7.244   8.127  0.00  0.00    +0.000 A 
ATOM     34  C   UNL     1      -0.060  -8.522   8.655  0.00  0.00    +0.000 A 
ATOM     35  C   UNL     1       1.143  -9.113   8.992  0.00  0.00    +0.000 A 
ATOM     36  C   UNL     1       2.328  -8.428   8.797  0.00  0.00    +0.005 A 
ENDBRANCH  30  31
ENDBRANCH  22  30
ENDBRANCH   5  20
TORSDOF 8
