REMARK  Name = ZINC64713345
REMARK  9 active torsions:
REMARK  status: ('A' for Active; 'I' for Inactive)
REMARK    1  A    between atoms: C_1  and  C_2
REMARK    2  A    between atoms: C_2  and  C_3
REMARK    3  A    between atoms: C_2  and  C_4
REMARK    4  A    between atoms: C_4  and  C_6
REMARK    5  A    between atoms: C_4  and  N_20
REMARK    6  A    between atoms: N_8  and  C_9
REMARK    7  A    between atoms: C_9  and  C_10
REMARK    8  A    between atoms: C_10  and  C_11
REMARK    9  A    between atoms: C_21  and  C_23
REMARK                            x       y       z     vdW  Elec       q    Type
REMARK                         _______ _______ _______ _____ _____    ______ ____
ROOT
ATOM      1  C   UNL     1       0.739  -2.004  -1.265  0.00  0.00    +0.234 C 
ATOM      2  O   UNL     1       0.213  -2.613  -2.173  0.00  0.00    -0.274 OA
ATOM      3  N   UNL     1       1.341  -2.676  -0.264  0.00  0.00    -0.313 N 
ATOM      4  H   UNL     1       1.761  -2.189   0.463  0.00  0.00    +0.149 HD
ENDROOT
BRANCH   1   5
ATOM      5  C   UNL     1       0.718  -0.497  -1.257  0.00  0.00    +0.161 C 
BRANCH   5   6
ATOM      6  N   UNL     1       0.010  -0.012  -2.444  0.00  0.00    -0.303 N 
ATOM      7  C   UNL     1       0.274   1.216  -2.931  0.00  0.00    +0.227 C 
ATOM      8  O   UNL     1       1.099   1.920  -2.387  0.00  0.00    -0.275 OA
ATOM      9  H   UNL     1      -0.650  -0.575  -2.879  0.00  0.00    +0.149 HD
BRANCH   7  10
ATOM     10  C   UNL     1      -0.455   1.715  -4.152  0.00  0.00    +0.140 C 
ATOM     11  C   UNL     1      -0.514   3.265  -4.185  0.00  0.00    +0.051 C 
ATOM     12  C   UNL     1       0.625   3.822  -4.976  0.00  0.00    -0.019 C 
ATOM     13  C   UNL     1       1.286   3.045  -5.813  0.00  0.00    +0.037 C 
ATOM     14  S   UNL     1       0.526   1.434  -5.686  0.00  0.00    -0.120 S 
ENDBRANCH   7  10
ENDBRANCH   5   6
BRANCH   5  16
ATOM     15  C   UNL     1      -0.019   1.526   0.010  0.00  0.00    +0.009 C 
ATOM     16  C   UNL     1       0.002  -0.004   0.002  0.00  0.00    +0.012 C 
ATOM     17  C   UNL     1      -1.433  -0.534   0.013  0.00  0.00    +0.009 C 
ENDBRANCH   5  16
ENDBRANCH   1   5
BRANCH   3  18
ATOM     18  C   UNL     1       1.361  -4.141  -0.272  0.00  0.00    +0.108 C 
BRANCH  18  19
ATOM     19  C   UNL     1       2.101  -4.647   0.968  0.00  0.00    +0.052 C 
BRANCH  19  20
ATOM     20  C   UNL     1       2.121  -6.154   0.960  0.00  0.00    -0.040 C 
ATOM     21  C   UNL     1       3.110  -6.951   0.494  0.00  0.00    -0.001 A 
ATOM     22  C   UNL     1       4.411  -6.665  -0.121  0.00  0.00    +0.010 A 
ATOM     23  C   UNL     1       5.202  -7.698  -0.494  0.00  0.00    +0.001 A 
ATOM     24  C   UNL     1       4.810  -9.030  -0.308  0.00  0.00    +0.002 A 
ATOM     25  C   UNL     1       3.629  -9.372   0.250  0.00  0.00    +0.026 A 
ATOM     26  C   UNL     1       2.720  -8.367   0.680  0.00  0.00    +0.043 A 
ATOM     27  N   UNL     1       1.536  -8.442   1.239  0.00  0.00    -0.380 N 
ATOM     28  C   UNL     1       1.044  -7.081   1.476  0.00  0.00    +0.144 C 
ATOM     29  H   UNL     1       1.066  -9.261   1.462  0.00  0.00    +0.160 HD
ENDBRANCH  19  20
ENDBRANCH  18  19
ENDBRANCH   3  18
TORSDOF 7
