REMARK  Name = ZINC08767588
REMARK  7 active torsions:
REMARK  status: ('A' for Active; 'I' for Inactive)
REMARK    1  A    between atoms: C_1  and  C_2
REMARK    2  A    between atoms: C_5  and  S_8
REMARK    3  A    between atoms: S_8  and  C_9
REMARK    4  A    between atoms: C_9  and  C_10
REMARK    5  A    between atoms: N_20  and  C_21
REMARK    6  A    between atoms: C_24  and  O_27
REMARK    7  A    between atoms: O_27  and  C_28
REMARK                            x       y       z     vdW  Elec       q    Type
REMARK                         _______ _______ _______ _____ _____    ______ ____
ROOT
ATOM      1  C   UNL     1      -0.043   4.074   4.188  0.00  0.00    +0.060 A 
ATOM      2  C   UNL     1       1.150   3.866   4.816  0.00  0.00    +0.094 A 
ATOM      3  C   UNL     1       1.987   2.832   4.359  0.00  0.00    +0.253 A 
ATOM      4  O   UNL     1       3.061   2.617   4.898  0.00  0.00    -0.268 OA
ATOM      5  N   UNL     1       1.577   2.078   3.317  0.00  0.00    -0.293 N 
ATOM      6  H   UNL     1       2.137   1.357   2.987  0.00  0.00    +0.172 HD
ATOM      7  C   UNL     1       0.380   2.336   2.726  0.00  0.00    +0.211 A 
ATOM      8  N   UNL     1      -0.399   3.306   3.160  0.00  0.00    -0.218 NA
ATOM      9  N   UNL     1      -0.028   1.568   1.663  0.00  0.00    -0.298 N 
ATOM     10  C   UNL     1      -1.241   1.820   1.054  0.00  0.00    +0.180 C 
ATOM     11  N   UNL     1      -1.646   1.054  -0.015  0.00  0.00    -0.328 N 
ATOM     12  H   UNL     1       0.539   0.852   1.337  0.00  0.00    +0.172 HD
ATOM     13  H   UNL     1      -2.916   2.967   1.206  0.00  0.00    +0.159 HD
ATOM     14  H   UNL     1      -1.121   0.286  -0.287  0.00  0.00    +0.169 HD
ATOM     15  N   UNL     1      -1.964   2.818   1.540  0.00  0.00    -0.371 N 
ATOM     16  H   UNL     1      -1.565   3.440   2.253  0.00  0.00    +0.159 HD
ENDROOT
BRANCH  11  17
ATOM     17  C   UNL     1      -2.817   1.385  -0.709  0.00  0.00    +0.042 A 
ATOM     18  C   UNL     1      -3.152   2.718  -0.910  0.00  0.00    +0.029 A 
ATOM     19  C   UNL     1      -4.303   3.043  -1.600  0.00  0.00    +0.048 A 
ATOM     20  C   UNL     1      -5.132   2.039  -2.081  0.00  0.00    +0.129 A 
ATOM     21  C   UNL     1      -4.800   0.708  -1.875  0.00  0.00    +0.048 A 
ATOM     22  C   UNL     1      -3.646   0.381  -1.191  0.00  0.00    +0.029 A 
BRANCH  20  23
ATOM     23  O   UNL     1      -6.268   2.360  -2.755  0.00  0.00    -0.456 OA
BRANCH  23  24
ATOM     24  C   UNL     1      -6.146   2.821  -4.027  0.00  0.00    +0.128 A 
ATOM     25  C   UNL     1      -4.914   2.787  -4.664  0.00  0.00    +0.046 A 
ATOM     26  C   UNL     1      -4.794   3.252  -5.959  0.00  0.00    +0.004 A 
ATOM     27  C   UNL     1      -5.899   3.761  -6.617  0.00  0.00    +0.000 A 
ATOM     28  C   UNL     1      -7.127   3.800  -5.983  0.00  0.00    +0.004 A 
ATOM     29  C   UNL     1      -7.253   3.332  -4.690  0.00  0.00    +0.046 A 
ENDBRANCH  23  24
ENDBRANCH  20  23
ENDBRANCH  11  17
BRANCH   1  30
ATOM     30  C   UNL     1      -0.958   5.175   4.657  0.00  0.00    +0.130 C 
BRANCH  30  31
ATOM     31  S   UNL     1      -0.884   6.562   3.490  0.00  0.00    -0.119 S 
BRANCH  31  36
ATOM     32  C   UNL     1      -4.684  10.634   5.817  0.00  0.00    +0.044 C 
ATOM     33  C   UNL     1      -3.735   9.617   5.236  0.00  0.00    -0.050 A 
ATOM     34  C   UNL     1      -3.062   9.895   4.061  0.00  0.00    +0.004 A 
ATOM     35  C   UNL     1      -2.192   8.966   3.525  0.00  0.00    +0.015 A 
ATOM     36  C   UNL     1      -1.993   7.751   4.169  0.00  0.00    +0.008 A 
ATOM     37  C   UNL     1      -2.675   7.473   5.348  0.00  0.00    +0.015 A 
ATOM     38  C   UNL     1      -3.539   8.409   5.881  0.00  0.00    +0.004 A 
ENDBRANCH  31  36
ENDBRANCH  30  31
ENDBRANCH   1  30
TORSDOF 6
