REMARK  Name = ZINC36398128
REMARK  8 active torsions:
REMARK  status: ('A' for Active; 'I' for Inactive)
REMARK    1  A    between atoms: C_1  and  C_2
REMARK    2  A    between atoms: C_2  and  C_4
REMARK    3  A    between atoms: C_2  and  N_19
REMARK    4  A    between atoms: C_6  and  C_9
REMARK    5  A    between atoms: C_13  and  C_15
REMARK    6  A    between atoms: N_22  and  C_25
REMARK    7  A    between atoms: C_25  and  C_26
REMARK    8  A    between atoms: N_28  and  C_29
REMARK                            x       y       z     vdW  Elec       q    Type
REMARK                         _______ _______ _______ _____ _____    ______ ____
ROOT
ATOM      1  N   UNL     1       0.743  -0.471  -1.178  0.00  0.00    -0.295 NA
ATOM      2  C   UNL     1       2.145  -0.028  -1.171  0.00  0.00    +0.066 C 
ATOM      3  C   UNL     1       2.856  -0.576  -2.411  0.00  0.00    -0.063 C 
ATOM      4  N   UNL     1       2.176  -0.090  -3.619  0.00  0.00    +0.387 N 
ATOM      5  C   UNL     1       0.785  -0.560  -3.624  0.00  0.00    -0.063 C 
ATOM      6  C   UNL     1       0.057  -0.013  -2.394  0.00  0.00    +0.066 C 
ATOM      7  H   UNL     1       2.190   0.919  -3.630  0.00  0.00    -0.081 HD
ENDROOT
BRANCH   1   9
ATOM      8  C   UNL     1       0.846  -0.403   1.268  0.00  0.00    +0.034 C 
ATOM      9  C   UNL     1       0.040  -0.013   0.027  0.00  0.00    +0.143 C 
BRANCH   9  10
ATOM     10  C   UNL     1      -1.321  -0.655   0.090  0.00  0.00    +0.245 A 
ATOM     11  N   UNL     1      -2.424  -0.068   0.458  0.00  0.00    -0.190 NA
ATOM     12  C   UNL     1      -3.451  -0.935   0.395  0.00  0.00    +0.202 A 
ATOM     13  N   UNL     1      -2.997  -2.092  -0.018  0.00  0.00    -0.056 NA
ATOM     14  O   UNL     1      -1.603  -1.925  -0.228  0.00  0.00    -0.336 OA
BRANCH  12  15
ATOM     15  C   UNL     1      -4.862  -0.631   0.738  0.00  0.00    +0.023 A 
ATOM     16  C   UNL     1      -5.219   0.647   1.163  0.00  0.00    +0.012 A 
ATOM     17  C   UNL     1      -6.533   0.924   1.481  0.00  0.00    +0.001 A 
ATOM     18  C   UNL     1      -7.496  -0.065   1.378  0.00  0.00    +0.012 A 
ATOM     19  C   UNL     1      -7.147  -1.335   0.957  0.00  0.00    +0.055 A 
ATOM     20  C   UNL     1      -5.837  -1.621   0.631  0.00  0.00    +0.024 A 
BRANCH  19  21
ATOM     21  C   UNL     1      -8.201  -2.407   0.848  0.00  0.00    +0.417 C 
ATOM     22  F   UNL     1      -9.442  -1.881   1.223  0.00  0.00    -0.166 F 
ATOM     23  F   UNL     1      -8.267  -2.862  -0.473  0.00  0.00    -0.166 F 
ATOM     24  F   UNL     1      -7.871  -3.472   1.692  0.00  0.00    -0.166 F 
ENDBRANCH  19  21
ENDBRANCH  12  15
ENDBRANCH   9  10
ENDBRANCH   1   9
BRANCH   4  25
ATOM     25  C   UNL     1       2.870  -0.601  -4.809  0.00  0.00    +0.019 C 
BRANCH  25  26
ATOM     26  C   UNL     1       2.250  -0.005  -6.047  0.00  0.00    +0.201 C 
ATOM     27  O   UNL     1       1.321   0.770  -5.947  0.00  0.00    -0.278 OA
ATOM     28  N   UNL     1       2.727  -0.332  -7.264  0.00  0.00    -0.285 N 
ATOM     29  H   UNL     1       3.414  -1.011  -7.349  0.00  0.00    +0.155 HD
BRANCH  28  30
ATOM     30  C   UNL     1       2.230   0.308  -8.406  0.00  0.00    +0.072 A 
ATOM     31  C   UNL     1       1.670   1.574  -8.305  0.00  0.00    +0.064 A 
ATOM     32  C   UNL     1       1.180   2.204  -9.435  0.00  0.00    +0.125 A 
ATOM     33  C   UNL     1       1.249   1.573 -10.666  0.00  0.00    +0.041 A 
ATOM     34  C   UNL     1       1.806   0.312 -10.770  0.00  0.00    +0.043 A 
ATOM     35  C   UNL     1       2.302  -0.320  -9.644  0.00  0.00    +0.145 A 
ATOM     36  F   UNL     1       2.851  -1.550  -9.747  0.00  0.00    -0.204 F 
ATOM     37  F   UNL     1       0.634   3.437  -9.338  0.00  0.00    -0.205 F 
ENDBRANCH  28  30
ENDBRANCH  25  26
ENDBRANCH   4  25
TORSDOF 7
