REMARK  Name = ZINC39360636
REMARK  7 active torsions:
REMARK  status: ('A' for Active; 'I' for Inactive)
REMARK    1  A    between atoms: C_1  and  C_2
REMARK    2  A    between atoms: C_8  and  C_10
REMARK    3  A    between atoms: C_10  and  N_11
REMARK    4  A    between atoms: C_16  and  C_18
REMARK    5  A    between atoms: N_21  and  C_23
REMARK    6  A    between atoms: C_28  and  O_29
REMARK    7  A    between atoms: O_29  and  C_30
REMARK                            x       y       z     vdW  Elec       q    Type
REMARK                         _______ _______ _______ _____ _____    ______ ____
ROOT
ATOM      1  N   UNL     1       3.623  -1.638  -0.025  0.00  0.00    -0.308 N 
ATOM      2  C   UNL     1       4.950  -2.031  -0.034  0.00  0.00    +0.194 A 
ATOM      3  N   UNL     1       5.240  -3.324  -0.048  0.00  0.00    -0.334 N 
ATOM      4  C   UNL     1       6.497  -3.743  -0.057  0.00  0.00    +0.087 A 
ATOM      5  C   UNL     1       7.520  -2.815  -0.051  0.00  0.00    +0.046 A 
ATOM      6  C   UNL     1       7.185  -1.453  -0.036  0.00  0.00    +0.075 A 
ATOM      7  N   UNL     1       5.896  -1.105  -0.033  0.00  0.00    -0.216 NA
ATOM      8  H   UNL     1       3.396  -0.695  -0.019  0.00  0.00    +0.149 HD
ATOM      9  H   UNL     1       4.521  -3.974  -0.052  0.00  0.00    +0.168 HD
ENDROOT
BRANCH   6  10
ATOM     10  C   UNL     1       8.236  -0.425  -0.029  0.00  0.00    +0.012 C 
ATOM     11  C   UNL     1       9.557  -0.639  -0.042  0.00  0.00    +0.095 C 
ATOM     12  N   UNL     1      10.260   0.536  -0.031  0.00  0.00    -0.270 N 
ATOM     13  N   UNL     1       9.390   1.633  -0.009  0.00  0.00    -0.246 N 
ATOM     14  C   UNL     1       8.028   1.073  -0.013  0.00  0.00    +0.166 C 
ATOM     15  H   UNL     1      11.228   0.599  -0.037  0.00  0.00    +0.169 HD
BRANCH  13  16
ATOM     16  C   UNL     1       9.743   2.988   0.008  0.00  0.00    +0.089 A 
ATOM     17  C   UNL     1       9.241   3.850  -0.955  0.00  0.00    +0.028 A 
ATOM     18  C   UNL     1       9.591   5.187  -0.936  0.00  0.00    +0.002 A 
ATOM     19  C   UNL     1      10.441   5.668   0.042  0.00  0.00    +0.004 A 
ATOM     20  C   UNL     1      10.946   4.814   1.006  0.00  0.00    +0.047 A 
ATOM     21  C   UNL     1      10.596   3.474   0.997  0.00  0.00    +0.143 A 
BRANCH  21  22
ATOM     22  O   UNL     1      11.087   2.635   1.947  0.00  0.00    -0.493 OA
ATOM     23  C   UNL     1      11.956   3.204   2.929  0.00  0.00    +0.277 C 
ENDBRANCH  21  22
ENDBRANCH  13  16
ENDBRANCH   6  10
BRANCH   1  24
ATOM     24  C   UNL     1       2.560  -2.647  -0.026  0.00  0.00    +0.178 C 
BRANCH  24  32
ATOM     25  C   UNL     1      -0.018   1.503   0.010  0.00  0.00    +0.066 C 
ATOM     26  C   UNL     1       0.002  -0.004   0.002  0.00  0.00    +0.045 A 
ATOM     27  C   UNL     1      -1.167  -0.702   0.004  0.00  0.00    +0.093 A 
ATOM     28  C   UNL     1      -1.113  -2.111  -0.005  0.00  0.00    +0.252 A 
ATOM     29  O   UNL     1      -2.136  -2.774  -0.004  0.00  0.00    -0.268 OA
ATOM     30  N   UNL     1       0.097  -2.710  -0.014  0.00  0.00    -0.310 N 
ATOM     31  H   UNL     1       0.160  -3.678  -0.020  0.00  0.00    +0.170 HD
ATOM     32  C   UNL     1       1.218  -1.962  -0.015  0.00  0.00    +0.127 A 
ATOM     33  N   UNL     1       1.167  -0.657  -0.013  0.00  0.00    -0.237 NA
ENDBRANCH  24  32
ENDBRANCH   1  24
TORSDOF 5
