REMARK  Name = ZINC01588266
REMARK  3 active torsions:
REMARK  status: ('A' for Active; 'I' for Inactive)
REMARK    1  A    between atoms: C_1  and  C_2
REMARK    2  A    between atoms: N_12  and  N_13
REMARK    3  A    between atoms: C_14  and  C_15
REMARK                            x       y       z     vdW  Elec       q    Type
REMARK                         _______ _______ _______ _____ _____    ______ ____
ROOT
ATOM      1  C   UNL     1      -0.749  -2.851   2.323  0.00  0.00    +0.088 C 
ATOM      2  C   UNL     1      -0.313  -2.072   1.109  0.00  0.00    +0.132 A 
ATOM      3  N   UNL     1      -0.275  -0.776   1.189  0.00  0.00    -0.232 NA
ATOM      4  C   UNL     1       0.108  -0.010   0.138  0.00  0.00    +0.078 A 
ATOM      5  C   UNL     1       0.150   1.384   0.225  0.00  0.00    +0.028 A 
ATOM      6  C   UNL     1       0.545   2.123  -0.867  0.00  0.00    +0.002 A 
ATOM      7  C   UNL     1       0.905   1.501  -2.056  0.00  0.00    +0.001 A 
ATOM      8  C   UNL     1       0.872   0.128  -2.166  0.00  0.00    +0.015 A 
ATOM      9  C   UNL     1       0.474  -0.639  -1.072  0.00  0.00    +0.067 A 
ATOM     10  C   UNL     1       0.421  -2.107  -1.131  0.00  0.00    +0.282 A 
ATOM     11  O   UNL     1       0.723  -2.711  -2.144  0.00  0.00    -0.265 OA
ATOM     12  N   UNL     1       0.022  -2.761  -0.015  0.00  0.00    -0.182 N 
ENDROOT
BRANCH  12  13
ATOM     13  N   UNL     1      -0.047  -4.160  -0.018  0.00  0.00    -0.170 NA
ATOM     14  C   UNL     1       1.039  -4.863  -0.131  0.00  0.00    +0.141 C 
BRANCH  14  15
ATOM     15  C   UNL     1       0.958  -6.331  -0.248  0.00  0.00    -0.005 A 
ATOM     16  C   UNL     1      -0.284  -6.969  -0.240  0.00  0.00    +0.010 A 
ATOM     17  C   UNL     1      -0.349  -8.341  -0.350  0.00  0.00    +0.004 A 
ATOM     18  C   UNL     1       0.810  -9.092  -0.469  0.00  0.00    -0.044 A 
ATOM     19  C   UNL     1       2.045  -8.466  -0.479  0.00  0.00    -0.044 A 
ATOM     20  C   UNL     1       2.123  -7.090  -0.375  0.00  0.00    +0.013 A 
ATOM     21  C   UNL     1       3.142  -9.500  -0.618  0.00  0.00    +0.036 C 
ATOM     22  C   UNL     1       2.434 -10.772  -1.131  0.00  0.00    +0.009 C 
ATOM     23  C   UNL     1       0.996 -10.589  -0.602  0.00  0.00    +0.036 C 
ENDBRANCH  14  15
ENDBRANCH  12  13
TORSDOF 2
