REMARK  Name = ZINC22055406
REMARK  10 active torsions:
REMARK  status: ('A' for Active; 'I' for Inactive)
REMARK    1  A    between atoms: C_1  and  O_2
REMARK    2  A    between atoms: O_2  and  C_3
REMARK    3  A    between atoms: C_3  and  C_5
REMARK    4  A    between atoms: C_7  and  O_37
REMARK    5  A    between atoms: C_9  and  O_36
REMARK    6  A    between atoms: C_11  and  O_35
REMARK    7  A    between atoms: C_13  and  O_16
REMARK    8  A    between atoms: O_16  and  C_17
REMARK    9  A    between atoms: C_25  and  C_28
REMARK   10  A    between atoms: C_31  and  O_34
REMARK                            x       y       z     vdW  Elec       q    Type
REMARK                         _______ _______ _______ _____ _____    ______ ____
ROOT
ATOM      1  C   UNL     1       4.181   1.244  -0.073  0.00  0.00    +0.128 A 
ATOM      2  C   UNL     1       3.636   0.330  -0.973  0.00  0.00    +0.047 A 
ATOM      3  C   UNL     1       4.368  -0.108  -2.039  0.00  0.00    +0.019 A 
ATOM      4  C   UNL     1       5.669   0.363  -2.226  0.00  0.00    +0.065 A 
ATOM      5  C   UNL     1       6.229   1.284  -1.324  0.00  0.00    +0.142 A 
ATOM      6  C   UNL     1       5.468   1.724  -0.248  0.00  0.00    +0.092 A 
ATOM      7  O   UNL     1       7.485   1.738  -1.506  0.00  0.00    -0.462 OA
ATOM      8  C   UNL     1       8.261   1.356  -2.524  0.00  0.00    +0.208 A 
ATOM      9  C   UNL     1       7.847   0.472  -3.468  0.00  0.00    +0.064 A 
ATOM     10  C   UNL     1       6.489  -0.088  -3.365  0.00  0.00    +0.200 A 
ATOM     11  O   UNL     1       6.063  -0.885  -4.184  0.00  0.00    -0.286 OA
ENDROOT
BRANCH   9  12
ATOM     12  C   UNL     1       8.745   0.079  -4.581  0.00  0.00    -0.011 A 
ATOM     13  C   UNL     1       8.946  -1.269  -4.873  0.00  0.00    +0.012 A 
ATOM     14  C   UNL     1       9.779  -1.632  -5.911  0.00  0.00    +0.046 A 
ATOM     15  C   UNL     1      10.424  -0.657  -6.658  0.00  0.00    +0.117 A 
ATOM     16  C   UNL     1      10.230   0.687  -6.367  0.00  0.00    +0.046 A 
ATOM     17  C   UNL     1       9.395   1.056  -5.333  0.00  0.00    +0.012 A 
BRANCH  15  18
ATOM     18  O   UNL     1      11.247  -1.017  -7.678  0.00  0.00    -0.507 OA
ATOM     19  H   UNL     1      11.759  -0.245  -8.271  0.00  0.00    +0.292 HD
ENDBRANCH  15  18
ENDBRANCH   9  12
BRANCH   1  20
ATOM     20  O   UNL     1       3.442   1.671   0.982  0.00  0.00    -0.461 OA
BRANCH  20  25
ATOM     21  C   UNL     1      -0.013   1.086   0.008  0.00  0.00    +0.261 C 
ATOM     22  C   UNL     1      -0.728   1.580   1.268  0.00  0.00    +0.185 C 
ATOM     23  C   UNL     1       0.053   1.119   2.503  0.00  0.00    +0.180 C 
ATOM     24  C   UNL     1       1.490   1.639   2.408  0.00  0.00    +0.214 C 
ATOM     25  C   UNL     1       2.120   1.143   1.104  0.00  0.00    +0.340 C 
ATOM     26  O   UNL     1       1.328   1.581  -0.002  0.00  0.00    -0.322 OA
BRANCH  21  27
ATOM     27  C   UNL     1      -0.742   1.585  -1.212  0.00  0.00    +0.339 C 
ATOM     28  O   UNL     1      -0.202   2.364  -1.962  0.00  0.00    -0.248 OA
BRANCH  27  30
ATOM     29  C   UNL     1      -2.632   1.688  -2.660  0.00  0.00    +0.280 C 
ATOM     30  O   UNL     1      -1.991   1.165  -1.467  0.00  0.00    -0.466 OA
ENDBRANCH  27  30
ENDBRANCH  21  27
BRANCH  24  31
ATOM     31  O   UNL     1       2.248   1.155   3.519  0.00  0.00    -0.383 OA
ATOM     32  H   UNL     1       3.308   1.427   3.622  0.00  0.00    +0.210 HD
ENDBRANCH  24  31
BRANCH  23  33
ATOM     33  O   UNL     1      -0.567   1.637   3.681  0.00  0.00    -0.386 OA
ATOM     34  H   UNL     1      -0.144   1.410   4.671  0.00  0.00    +0.210 HD
ENDBRANCH  23  33
BRANCH  22  35
ATOM     35  O   UNL     1      -2.050   1.039   1.310  0.00  0.00    -0.386 OA
ATOM     36  H   UNL     1      -2.719   1.285   2.148  0.00  0.00    +0.210 HD
ENDBRANCH  22  35
ENDBRANCH  20  25
ENDBRANCH   1  20
TORSDOF 9
