REMARK  Name = ZINC06137716
REMARK  12 active torsions:
REMARK  status: ('A' for Active; 'I' for Inactive)
REMARK    1  A    between atoms: C_1  and  C_2
REMARK    2  A    between atoms: C_5  and  O_30
REMARK    3  A    between atoms: C_7  and  C_27
REMARK    4  A    between atoms: C_7  and  C_28
REMARK    5  A    between atoms: C_12  and  O_26
REMARK    6  A    between atoms: C_14  and  C_16
REMARK    7  A    between atoms: C_16  and  C_17
REMARK    8  A    between atoms: N_19  and  C_20
REMARK    9  A    between atoms: C_20  and  C_21
REMARK   10  A    between atoms: C_28  and  O_29
REMARK   11  A    between atoms: O_30  and  C_31
REMARK   12  A    between atoms: N_33  and  C_34
REMARK                            x       y       z     vdW  Elec       q    Type
REMARK                         _______ _______ _______ _____ _____    ______ ____
ROOT
ATOM      1  C   UNL     1      -1.014   2.114   0.422  0.00  0.00    +0.012 C 
ATOM      2  C   UNL     1      -0.800   0.612   0.623  0.00  0.00    -0.023 C 
ATOM      3  C   UNL     1      -0.616  -0.063  -0.738  0.00  0.00    +0.011 C 
ATOM      4  C   UNL     1       0.603   0.535  -1.443  0.00  0.00    +0.046 C 
ATOM      5  C   UNL     1       1.850   0.307  -0.587  0.00  0.00    +0.186 C 
ATOM      6  C   UNL     1       1.666   0.982   0.773  0.00  0.00    +0.031 C 
ATOM      7  C   UNL     1       0.447   0.384   1.479  0.00  0.00    +0.007 C 
ATOM      8  C   UNL     1       0.660  -1.118   1.679  0.00  0.00    +0.007 C 
ATOM      9  C   UNL     1      -0.559  -1.717   2.384  0.00  0.00    +0.032 C 
ATOM     10  C   UNL     1      -1.806  -1.488   1.528  0.00  0.00    +0.119 C 
ATOM     11  C   UNL     1      -2.019   0.013   1.328  0.00  0.00    +0.032 C 
ATOM     12  C   UNL     1       2.913   0.754   1.629  0.00  0.00    +0.017 C 
ENDROOT
BRANCH  10  13
ATOM     13  O   UNL     1      -2.944  -2.047   2.187  0.00  0.00    -0.391 OA
ATOM     14  H   UNL     1      -2.878  -2.999   2.347  0.00  0.00    +0.210 HD
ENDBRANCH  10  13
BRANCH  11  15
ATOM     15  C   UNL     1      -2.204   0.688   2.688  0.00  0.00    +0.102 C 
BRANCH  15  16
ATOM     16  C   UNL     1      -3.586   0.394   3.211  0.00  0.00    +0.214 C 
ATOM     17  O   UNL     1      -4.403  -0.146   2.496  0.00  0.00    -0.276 OA
ATOM     18  N   UNL     1      -3.915   0.732   4.474  0.00  0.00    -0.311 N 
ATOM     19  H   UNL     1      -3.261   1.164   5.046  0.00  0.00    +0.149 HD
BRANCH  18  20
ATOM     20  C   UNL     1      -5.258   0.446   4.983  0.00  0.00    +0.146 C 
BRANCH  20  21
ATOM     21  C   UNL     1      -5.367   0.918   6.410  0.00  0.00    +0.007 A 
ATOM     22  C   UNL     1      -5.761   2.126   6.881  0.00  0.00    +0.013 A 
ATOM     23  C   UNL     1      -5.784   2.338   8.247  0.00  0.00    +0.008 A 
ATOM     24  C   UNL     1      -5.410   1.332   9.074  0.00  0.00    +0.045 A 
ATOM     25  S   UNL     1      -5.016   0.030   7.918  0.00  0.00    -0.100 S 
ENDBRANCH  20  21
ENDBRANCH  18  20
ENDBRANCH  15  16
ENDBRANCH  11  15
BRANCH   6  26
ATOM     26  C   UNL     1       1.452   2.484   0.573  0.00  0.00    +0.166 C 
BRANCH  26  27
ATOM     27  O   UNL     1       2.665   3.079   0.105  0.00  0.00    -0.394 OA
ATOM     28  H   UNL     1       2.603   4.032  -0.044  0.00  0.00    +0.209 HD
ENDBRANCH  26  27
ENDBRANCH   6  26
BRANCH   5  29
ATOM     29  O   UNL     1       2.989   0.866  -1.246  0.00  0.00    -0.446 OA
BRANCH  29  30
ATOM     30  C   UNL     1       3.667   0.060  -2.084  0.00  0.00    +0.405 C 
ATOM     31  O   UNL     1       3.302  -1.087  -2.252  0.00  0.00    -0.226 OA
ATOM     32  N   UNL     1       4.750   0.525  -2.737  0.00  0.00    -0.251 N 
ATOM     33  H   UNL     1       5.089   1.413  -2.544  0.00  0.00    +0.158 HD
BRANCH  32  34
ATOM     34  C   UNL     1       5.387  -0.274  -3.694  0.00  0.00    +0.036 A 
ATOM     35  C   UNL     1       6.763  -0.195  -3.862  0.00  0.00    +0.023 A 
ATOM     36  C   UNL     1       7.389  -0.984  -4.806  0.00  0.00    +0.002 A 
ATOM     37  C   UNL     1       6.646  -1.853  -5.585  0.00  0.00    +0.000 A 
ATOM     38  C   UNL     1       5.275  -1.934  -5.421  0.00  0.00    +0.002 A 
ATOM     39  C   UNL     1       4.645  -1.151  -4.473  0.00  0.00    +0.023 A 
ENDBRANCH  32  34
ENDBRANCH  29  30
ENDBRANCH   5  29
TORSDOF 10
