REMARK  Name = ZINC24072193
REMARK  11 active torsions:
REMARK  status: ('A' for Active; 'I' for Inactive)
REMARK    1  A    between atoms: C_1  and  C_2
REMARK    2  A    between atoms: C_2  and  C_3
REMARK    3  A    between atoms: C_2  and  C_4
REMARK    4  A    between atoms: C_2  and  N_5
REMARK    5  A    between atoms: C_6  and  C_8
REMARK    6  A    between atoms: C_8  and  N_9
REMARK    7  A    between atoms: N_12  and  C_15
REMARK    8  A    between atoms: C_15  and  C_16
REMARK    9  A    between atoms: N_18  and  C_19
REMARK   10  A    between atoms: C_19  and  C_20
REMARK   11  A    between atoms: N_22  and  C_23
REMARK                            x       y       z     vdW  Elec       q    Type
REMARK                         _______ _______ _______ _____ _____    ______ ____
ROOT
ATOM      1  C   UNL     1       3.895   7.507   0.427  0.00  0.00    +0.227 C 
ATOM      2  O   UNL     1       2.962   8.281   0.459  0.00  0.00    -0.274 OA
ATOM      3  N   UNL     1       3.669   6.183   0.312  0.00  0.00    -0.306 N 
ATOM      4  H   UNL     1       4.516   5.481   0.283  0.00  0.00    +0.149 HD
ENDROOT
BRANCH   1   5
ATOM      5  C   UNL     1       5.308   8.025   0.516  0.00  0.00    +0.180 C 
BRANCH   5   9
ATOM      6  N   UNL     1       6.018  12.147  -0.074  0.00  0.00    +0.387 N 
ATOM      7  C   UNL     1       6.538  11.528   1.153  0.00  0.00    -0.063 C 
ATOM      8  C   UNL     1       6.620  10.012   0.961  0.00  0.00    +0.066 C 
ATOM      9  N   UNL     1       5.285   9.489   0.634  0.00  0.00    -0.298 NA
ATOM     10  C   UNL     1       4.766  10.109  -0.593  0.00  0.00    +0.066 C 
ATOM     11  C   UNL     1       4.684  11.625  -0.400  0.00  0.00    -0.063 C 
ATOM     12  H   UNL     1       6.696  11.886  -0.900  0.00  0.00    -0.081 HD
BRANCH   6  13
ATOM     13  C   UNL     1       5.996  13.611   0.044  0.00  0.00    +0.019 C 
BRANCH  13  15
ATOM     14  N   UNL     1       5.625  15.559  -1.435  0.00  0.00    -0.312 N 
ATOM     15  C   UNL     1       5.696  14.220  -1.302  0.00  0.00    +0.197 C 
ATOM     16  O   UNL     1       5.518  13.504  -2.264  0.00  0.00    -0.278 OA
ATOM     17  H   UNL     1       5.786  16.208  -0.562  0.00  0.00    +0.149 HD
BRANCH  14  19
ATOM     18  C   UNL     1       3.969  15.657  -3.233  0.00  0.00    +0.031 C 
ATOM     19  C   UNL     1       5.332  16.150  -2.743  0.00  0.00    +0.026 C 
ATOM     20  C   UNL     1       5.309  17.675  -2.620  0.00  0.00    +0.031 C 
ATOM     21  C   UNL     1       6.414  15.736  -3.743  0.00  0.00    +0.031 C 
ENDBRANCH  14  19
ENDBRANCH  13  15
ENDBRANCH   6  13
ENDBRANCH   5   9
ENDBRANCH   1   5
BRANCH   3  22
ATOM     22  C   UNL     1       2.296   5.679   0.225  0.00  0.00    +0.200 C 
BRANCH  22  23
ATOM     23  C   UNL     1       2.319   4.177   0.104  0.00  0.00    +0.234 C 
ATOM     24  O   UNL     1       3.378   3.586   0.091  0.00  0.00    -0.274 OA
ATOM     25  N   UNL     1       1.163   3.491   0.009  0.00  0.00    -0.282 N 
ATOM     26  H   UNL     1       0.208   4.031  -0.071  0.00  0.00    +0.155 HD
BRANCH  25  27
ATOM     27  C   UNL     1       1.178   2.090   0.013  0.00  0.00    +0.072 A 
ATOM     28  C   UNL     1       2.230   1.407   0.608  0.00  0.00    +0.029 A 
ATOM     29  C   UNL     1       2.244   0.026   0.611  0.00  0.00    +0.043 A 
ATOM     30  C   UNL     1       1.210  -0.680   0.022  0.00  0.00    +0.161 A 
ATOM     31  C   UNL     1       0.156  -0.003  -0.574  0.00  0.00    +0.195 A 
ATOM     32  C   UNL     1       0.139   1.381  -0.579  0.00  0.00    +0.182 A 
ATOM     33  F   UNL     1      -0.884   2.043  -1.163  0.00  0.00    -0.200 F 
ATOM     34  F   UNL     1      -0.852  -0.694  -1.149  0.00  0.00    -0.199 F 
ATOM     35  F   UNL     1       1.226  -2.031   0.026  0.00  0.00    -0.202 F 
ENDBRANCH  25  27
ENDBRANCH  22  23
ENDBRANCH   3  22
TORSDOF 8
