REMARK  Name = ZINC67530482
REMARK  8 active torsions:
REMARK  status: ('A' for Active; 'I' for Inactive)
REMARK    1  A    between atoms: C_1  and  C_2
REMARK    2  A    between atoms: C_2  and  C_3
REMARK    3  A    between atoms: C_3  and  N_4
REMARK    4  A    between atoms: C_10  and  N_13
REMARK    5  A    between atoms: C_14  and  C_16
REMARK    6  A    between atoms: N_18  and  C_19
REMARK    7  A    between atoms: C_19  and  C_20
REMARK    8  A    between atoms: C_23  and  O_26
REMARK                            x       y       z     vdW  Elec       q    Type
REMARK                         _______ _______ _______ _____ _____    ______ ____
ROOT
ATOM      1  N   UNL     1      -4.774  -4.916   0.174  0.00  0.00    -0.278 N 
ATOM      2  C   UNL     1      -5.315  -6.093   0.546  0.00  0.00    +0.303 C 
ATOM      3  O   UNL     1      -4.795  -7.135   0.203  0.00  0.00    -0.265 OA
ATOM      4  H   UNL     1      -5.141  -4.085   0.513  0.00  0.00    +0.155 HD
ENDROOT
BRANCH   1  11
ATOM      5  N   UNL     1      -1.413  -2.005  -0.018  0.00  0.00    +0.385 N 
ATOM      6  C   UNL     1      -0.968  -2.509  -1.337  0.00  0.00    -0.042 C 
ATOM      7  C   UNL     1      -1.734  -3.793  -1.563  0.00  0.00    -0.061 A 
ATOM      8  C   UNL     1      -1.526  -4.848  -2.432  0.00  0.00    +0.002 A 
ATOM      9  C   UNL     1      -2.393  -5.925  -2.438  0.00  0.00    +0.002 A 
ATOM     10  C   UNL     1      -3.471  -5.951  -1.575  0.00  0.00    +0.023 A 
ATOM     11  C   UNL     1      -3.684  -4.893  -0.701  0.00  0.00    +0.035 A 
ATOM     12  C   UNL     1      -2.812  -3.813  -0.696  0.00  0.00    -0.041 A 
ATOM     13  C   UNL     1      -2.785  -2.543   0.123  0.00  0.00    -0.040 C 
ATOM     14  H   UNL     1      -0.817  -2.356   0.717  0.00  0.00    -0.081 HD
BRANCH   5  15
ATOM     15  C   UNL     1      -1.432  -0.536  -0.008  0.00  0.00    -0.078 C 
BRANCH  15  17
ATOM     16  C   UNL     1      -0.015   1.523  -0.019  0.00  0.00    +0.002 C 
ATOM     17  C   UNL     1       0.004  -0.007  -0.029  0.00  0.00    -0.022 C 
ENDBRANCH  15  17
ENDBRANCH   5  15
ENDBRANCH   1  11
BRANCH   2  18
ATOM     18  C   UNL     1      -6.554  -6.115   1.379  0.00  0.00    +0.300 C 
ATOM     19  O   UNL     1      -7.074  -5.073   1.722  0.00  0.00    -0.265 OA
ATOM     20  N   UNL     1      -7.095  -7.292   1.752  0.00  0.00    -0.303 N 
ATOM     21  H   UNL     1      -6.679  -8.125   1.478  0.00  0.00    +0.149 HD
BRANCH  20  22
ATOM     22  C   UNL     1      -8.310  -7.314   2.570  0.00  0.00    +0.140 C 
BRANCH  22  23
ATOM     23  C   UNL     1      -8.704  -8.742   2.845  0.00  0.00    -0.030 A 
ATOM     24  C   UNL     1      -9.550  -9.405   1.974  0.00  0.00    +0.009 A 
ATOM     25  C   UNL     1      -9.913 -10.714   2.225  0.00  0.00    +0.046 A 
ATOM     26  C   UNL     1      -9.429 -11.363   3.351  0.00  0.00    +0.117 A 
ATOM     27  C   UNL     1      -8.581 -10.696   4.223  0.00  0.00    +0.046 A 
ATOM     28  C   UNL     1      -8.216  -9.389   3.965  0.00  0.00    +0.009 A 
BRANCH  26  29
ATOM     29  O   UNL     1      -9.786 -12.651   3.600  0.00  0.00    -0.507 OA
ATOM     30  H   UNL     1      -9.191 -13.306   3.209  0.00  0.00    +0.292 HD
ENDBRANCH  26  29
ENDBRANCH  22  23
ENDBRANCH  20  22
ENDBRANCH   2  18
TORSDOF 7
