REMARK  Name = ZINC53373730
REMARK  9 active torsions:
REMARK  status: ('A' for Active; 'I' for Inactive)
REMARK    1  A    between atoms: C_3  and  C_6
REMARK    2  A    between atoms: C_6  and  C_8
REMARK    3  A    between atoms: C_6  and  N_25
REMARK    4  A    between atoms: C_8  and  N_9
REMARK    5  A    between atoms: C_10  and  C_12
REMARK    6  A    between atoms: C_13  and  C_14
REMARK    7  A    between atoms: C_17  and  O_20
REMARK    8  A    between atoms: O_20  and  C_21
REMARK    9  A    between atoms: C_21  and  C_22
REMARK                            x       y       z     vdW  Elec       q    Type
REMARK                         _______ _______ _______ _____ _____    ______ ____
ROOT
ATOM      1  N   UNL     1       5.785   2.168  -1.371  0.00  0.00    -0.313 N 
ATOM      2  C   UNL     1       6.521   2.208  -2.499  0.00  0.00    +0.237 C 
ATOM      3  O   UNL     1       6.042   1.827  -3.552  0.00  0.00    -0.271 OA
ATOM      4  H   UNL     1       6.166   2.472  -0.532  0.00  0.00    +0.149 HD
ENDROOT
BRANCH   2   5
ATOM      5  C   UNL     1       7.895   2.708  -2.459  0.00  0.00    +0.068 C 
ATOM      6  C   UNL     1       8.632   2.748  -3.590  0.00  0.00    +0.013 C 
BRANCH   6   7
ATOM      7  C   UNL     1      10.012   3.251  -3.549  0.00  0.00    -0.025 A 
ATOM      8  C   UNL     1      10.567   3.683  -2.339  0.00  0.00    +0.011 A 
ATOM      9  C   UNL     1      11.861   4.154  -2.307  0.00  0.00    +0.046 A 
ATOM     10  C   UNL     1      12.616   4.199  -3.473  0.00  0.00    +0.121 A 
ATOM     11  C   UNL     1      12.069   3.770  -4.678  0.00  0.00    +0.046 A 
ATOM     12  C   UNL     1      10.779   3.293  -4.720  0.00  0.00    +0.011 A 
BRANCH  10  13
ATOM     13  O   UNL     1      13.891   4.663  -3.436  0.00  0.00    -0.483 OA
BRANCH  13  14
ATOM     14  C   UNL     1      14.610   4.682  -4.671  0.00  0.00    +0.324 C 
BRANCH  14  15
ATOM     15  C   UNL     1      15.996   5.225  -4.436  0.00  0.00    +0.248 C 
ATOM     16  O   UNL     1      16.335   5.562  -3.321  0.00  0.00    -0.272 OA
ATOM     17  N   UNL     1      16.860   5.335  -5.464  0.00  0.00    -0.327 N 
ATOM     18  H   UNL     1      16.590   5.066  -6.356  0.00  0.00    +0.145 HD
ATOM     19  H   UNL     1      17.752   5.685  -5.313  0.00  0.00    +0.145 HD
ENDBRANCH  14  15
ENDBRANCH  13  14
ENDBRANCH  10  13
ENDBRANCH   6   7
ENDBRANCH   2   5
BRANCH   1  20
ATOM     20  C   UNL     1       4.409   1.667  -1.411  0.00  0.00    +0.094 C 
BRANCH  20  21
ATOM     21  C   UNL     1       3.759   1.852  -0.038  0.00  0.00    -0.013 C 
BRANCH  21  22
ATOM     22  N   UNL     1       2.426   1.234  -0.041  0.00  0.00    +0.386 N 
ATOM     23  C   UNL     1       2.539  -0.229  -0.271  0.00  0.00    -0.078 C 
ATOM     24  C   UNL     1       1.210  -0.782   0.302  0.00  0.00    -0.020 C 
ATOM     25  C   UNL     1       0.973   0.107   1.544  0.00  0.00    -0.020 C 
ATOM     26  C   UNL     1       1.791   1.386   1.286  0.00  0.00    -0.078 C 
ATOM     27  H   UNL     1       1.848   1.655  -0.753  0.00  0.00    -0.081 HD
ENDBRANCH  21  22
BRANCH  21  30
ATOM     28  C   UNL     1       4.106   5.446   1.173  0.00  0.00    +0.008 A 
ATOM     29  C   UNL     1       4.418   4.106   1.040  0.00  0.00    +0.009 A 
ATOM     30  C   UNL     1       3.630   3.323   0.263  0.00  0.00    -0.022 A 
ATOM     31  S   UNL     1       2.403   4.485  -0.310  0.00  0.00    -0.103 S 
ATOM     32  C   UNL     1       3.022   5.937   0.524  0.00  0.00    +0.045 A 
ENDBRANCH  21  30
ENDBRANCH  20  21
ENDBRANCH   1  20
TORSDOF 9
