REMARK  Name = ZINC39657724
REMARK  12 active torsions:
REMARK  status: ('A' for Active; 'I' for Inactive)
REMARK    1  A    between atoms: C_1  and  C_2
REMARK    2  A    between atoms: C_2  and  C_3
REMARK    3  A    between atoms: C_3  and  C_4
REMARK    4  A    between atoms: C_3  and  C_6
REMARK    5  A    between atoms: C_4  and  C_5
REMARK    6  A    between atoms: C_10  and  C_19
REMARK    7  A    between atoms: N_21  and  C_22
REMARK    8  A    between atoms: C_22  and  C_23
REMARK    9  A    between atoms: C_28  and  S_29
REMARK   10  A    between atoms: S_29  and  C_30
REMARK   11  A    between atoms: C_35  and  C_36
REMARK   12  A    between atoms: C_36  and  O_37
REMARK                            x       y       z     vdW  Elec       q    Type
REMARK                         _______ _______ _______ _____ _____    ______ ____
ROOT
ATOM      1  C   UNL     1       4.277  -1.379  -1.194  0.00  0.00    +0.218 C 
ATOM      2  O   UNL     1       4.239  -0.978  -0.050  0.00  0.00    -0.275 OA
ATOM      3  N   UNL     1       5.455  -1.442  -1.846  0.00  0.00    -0.311 N 
ATOM      4  H   UNL     1       5.478  -1.694  -2.782  0.00  0.00    +0.149 HD
ENDROOT
BRANCH   1   9
ATOM      5  C   UNL     1       0.706  -1.425   0.882  0.00  0.00    +0.219 C 
ATOM      6  O   UNL     1       0.341  -2.248   1.696  0.00  0.00    -0.275 OA
ATOM      7  N   UNL     1       1.213  -1.826  -0.300  0.00  0.00    -0.300 N 
ATOM      8  C   UNL     1       1.809  -0.985  -1.365  0.00  0.00    +0.121 C 
ATOM      9  C   UNL     1       3.009  -1.806  -1.886  0.00  0.00    +0.100 C 
ATOM     10  C   UNL     1       2.669  -3.264  -1.533  0.00  0.00    -0.004 C 
ATOM     11  C   UNL     1       1.307  -3.208  -0.827  0.00  0.00    +0.115 C 
ATOM     12  C   UNL     1       3.722  -3.839  -0.591  0.00  0.00    -0.010 C 
ATOM     13  C   UNL     1       3.393  -5.306  -0.300  0.00  0.00    -0.082 C 
ATOM     14  N   UNL     1       3.369  -6.062  -1.558  0.00  0.00    +0.379 N 
ATOM     15  C   UNL     1       2.292  -5.563  -2.422  0.00  0.00    -0.082 C 
ATOM     16  C   UNL     1       2.574  -4.106  -2.802  0.00  0.00    -0.010 C 
ATOM     17  H   UNL     1       4.254  -5.956  -2.031  0.00  0.00    -0.086 HD
ATOM     18  H   UNL     1       3.212  -7.039  -1.359  0.00  0.00    -0.086 HD
BRANCH   5  19
ATOM     19  C   UNL     1       0.591   0.045   1.194  0.00  0.00    +0.075 C 
BRANCH  19  21
ATOM     20  C   UNL     1      -0.653   2.144   0.660  0.00  0.00    +0.004 C 
ATOM     21  C   UNL     1      -0.625   0.626   0.471  0.00  0.00    +0.009 C 
ENDBRANCH  19  21
BRANCH  19  22
ATOM     22  C   UNL     1       0.427   0.235   2.703  0.00  0.00    +0.009 C 
ATOM     23  C   UNL     1       1.709  -0.203   3.415  0.00  0.00    +0.004 C 
ENDBRANCH  19  22
ENDBRANCH   5  19
ENDBRANCH   1   9
BRANCH   3  24
ATOM     24  C   UNL     1       6.701  -1.131  -1.140  0.00  0.00    +0.140 C 
BRANCH  24  25
ATOM     25  C   UNL     1       7.850  -1.158  -2.115  0.00  0.00    -0.017 A 
ATOM     26  C   UNL     1       8.706  -2.242  -2.144  0.00  0.00    +0.006 A 
ATOM     27  C   UNL     1       9.761  -2.267  -3.037  0.00  0.00    +0.000 A 
ATOM     28  C   UNL     1       9.964  -1.209  -3.905  0.00  0.00    +0.001 A 
ATOM     29  C   UNL     1       9.112  -0.123  -3.881  0.00  0.00    +0.015 A 
ATOM     30  C   UNL     1       8.047  -0.096  -2.989  0.00  0.00    +0.017 A 
BRANCH  30  31
ATOM     31  S   UNL     1       6.953   1.285  -2.960  0.00  0.00    -0.089 S 
BRANCH  31  32
ATOM     32  C   UNL     1       7.514   2.245  -1.593  0.00  0.00    +0.018 A 
ATOM     33  C   UNL     1       8.597   1.813  -0.837  0.00  0.00    +0.015 A 
ATOM     34  C   UNL     1       9.034   2.568   0.234  0.00  0.00    +0.001 A 
ATOM     35  C   UNL     1       8.394   3.752   0.555  0.00  0.00    +0.000 A 
ATOM     36  C   UNL     1       7.316   4.184  -0.195  0.00  0.00    +0.007 A 
ATOM     37  C   UNL     1       6.877   3.437  -1.271  0.00  0.00    -0.008 A 
BRANCH  37  38
ATOM     38  C   UNL     1       5.706   3.913  -2.092  0.00  0.00    +0.192 C 
BRANCH  38  39
ATOM     39  O   UNL     1       5.302   5.207  -1.641  0.00  0.00    -0.390 OA
ATOM     40  H   UNL     1       4.602   5.608  -2.173  0.00  0.00    +0.210 HD
ENDBRANCH  38  39
ENDBRANCH  37  38
ENDBRANCH  31  32
ENDBRANCH  30  31
ENDBRANCH  24  25
ENDBRANCH   3  24
TORSDOF 10
