REMARK  Name = ZINC38672973
REMARK  7 active torsions:
REMARK  status: ('A' for Active; 'I' for Inactive)
REMARK    1  A    between atoms: C_1  and  N_2
REMARK    2  A    between atoms: N_5  and  C_8
REMARK    3  A    between atoms: C_8  and  C_10
REMARK    4  A    between atoms: C_8  and  C_28
REMARK    5  A    between atoms: C_10  and  N_11
REMARK    6  A    between atoms: C_12  and  C_14
REMARK    7  A    between atoms: N_37  and  C_38
REMARK                            x       y       z     vdW  Elec       q    Type
REMARK                         _______ _______ _______ _____ _____    ______ ____
ROOT
ATOM      1  C   UNL     1       2.837  -4.018   0.318  0.00  0.00    +0.104 C 
ENDROOT
BRANCH   1   2
ATOM      2  C   UNL     1       3.970  -4.687   1.053  0.00  0.00    -0.028 A 
ATOM      3  C   UNL     1       5.256  -4.190   0.938  0.00  0.00    +0.007 A 
ATOM      4  C   UNL     1       6.293  -4.803   1.610  0.00  0.00    +0.024 A 
ATOM      5  C   UNL     1       6.046  -5.919   2.403  0.00  0.00    +0.033 A 
ATOM      6  C   UNL     1       4.757  -6.414   2.521  0.00  0.00    -0.026 A 
ATOM      7  C   UNL     1       3.721  -5.791   1.845  0.00  0.00    +0.010 A 
ATOM      8  C   UNL     1       4.450  -7.613   3.379  0.00  0.00    +0.038 C 
ATOM      9  C   UNL     1       5.715  -8.435   3.622  0.00  0.00    +0.024 C 
ATOM     10  C   UNL     1       6.822  -7.503   4.133  0.00  0.00    +0.105 C 
ATOM     11  N   UNL     1       7.113  -6.529   3.073  0.00  0.00    -0.333 N 
ATOM     12  C   UNL     1       8.497  -6.201   2.722  0.00  0.00    +0.129 C 
ENDBRANCH   1   2
BRANCH   1  17
ATOM     13  C   UNL     1       2.445   1.547   1.103  0.00  0.00    -0.096 C 
ATOM     14  N   UNL     1       2.224   0.095   1.073  0.00  0.00    +0.379 N 
ATOM     15  C   UNL     1       2.180  -0.365  -0.321  0.00  0.00    -0.064 C 
ATOM     16  C   UNL     1       1.932  -1.875  -0.352  0.00  0.00    +0.066 C 
ATOM     17  N   UNL     1       3.010  -2.561   0.374  0.00  0.00    -0.297 NA
ATOM     18  C   UNL     1       3.082  -2.092   1.765  0.00  0.00    +0.066 C 
ATOM     19  C   UNL     1       3.321  -0.581   1.780  0.00  0.00    -0.064 C 
ATOM     20  H   UNL     1       1.349  -0.121   1.526  0.00  0.00    -0.082 HD
ENDBRANCH   1  17
BRANCH   1  21
ATOM     21  C   UNL     1       2.836  -4.476  -1.142  0.00  0.00    +0.127 C 
BRANCH  21  22
ATOM     22  N   UNL     1       2.583  -5.918  -1.202  0.00  0.00    -0.313 N 
ATOM     23  C   UNL     1       2.667  -6.569  -2.379  0.00  0.00    +0.225 C 
ATOM     24  O   UNL     1       2.837  -5.946  -3.405  0.00  0.00    -0.275 OA
ATOM     25  H   UNL     1       2.354  -6.404  -0.394  0.00  0.00    +0.149 HD
BRANCH  23  26
ATOM     26  C   UNL     1       2.551  -8.070  -2.419  0.00  0.00    +0.142 C 
ATOM     27  C   UNL     1       1.106  -8.453  -2.591  0.00  0.00    +0.011 A 
ATOM     28  C   UNL     1       0.256  -8.402  -1.500  0.00  0.00    +0.008 A 
ATOM     29  C   UNL     1      -1.074  -8.750  -1.638  0.00  0.00    +0.001 A 
ATOM     30  C   UNL     1      -1.561  -9.151  -2.868  0.00  0.00    +0.004 A 
ATOM     31  C   UNL     1      -0.718  -9.203  -3.960  0.00  0.00    +0.046 A 
ATOM     32  C   UNL     1       0.621  -8.854  -3.825  0.00  0.00    +0.133 A 
ATOM     33  O   UNL     1       1.433  -8.913  -4.908  0.00  0.00    -0.455 OA
ATOM     34  C   UNL     1       2.775  -8.997  -4.745  0.00  0.00    +0.133 A 
ATOM     35  C   UNL     1       3.375  -8.603  -3.560  0.00  0.00    +0.011 A 
ATOM     36  C   UNL     1       4.748  -8.697  -3.418  0.00  0.00    +0.008 A 
ATOM     37  C   UNL     1       5.522  -9.184  -4.454  0.00  0.00    +0.001 A 
ATOM     38  C   UNL     1       4.926  -9.579  -5.638  0.00  0.00    +0.004 A 
ATOM     39  C   UNL     1       3.557  -9.486  -5.785  0.00  0.00    +0.046 A 
ENDBRANCH  23  26
ENDBRANCH  21  22
ENDBRANCH   1  21
TORSDOF 5
