REMARK  Name = ZINC63405929
REMARK  8 active torsions:
REMARK  status: ('A' for Active; 'I' for Inactive)
REMARK    1  A    between atoms: C_1  and  C_2
REMARK    2  A    between atoms: C_2  and  C_3
REMARK    3  A    between atoms: N_5  and  C_6
REMARK    4  A    between atoms: C_10  and  C_12
REMARK    5  A    between atoms: C_16  and  S_20
REMARK    6  A    between atoms: N_18  and  C_19
REMARK    7  A    between atoms: S_20  and  C_21
REMARK    8  A    between atoms: C_21  and  C_22
REMARK                            x       y       z     vdW  Elec       q    Type
REMARK                         _______ _______ _______ _____ _____    ______ ____
ROOT
ATOM      1  C   UNL     1      -4.655  -5.615   0.387  0.00  0.00    +0.171 C 
ATOM      2  N   UNL     1      -3.563  -6.382  -0.255  0.00  0.00    -0.233 NA
ATOM      3  N   UNL     1      -4.220  -7.591  -0.776  0.00  0.00    -0.229 NA
ATOM      4  C   UNL     1      -5.532  -7.080  -1.254  0.00  0.00    +0.200 C 
ATOM      5  N   UNL     1      -5.913  -6.058  -0.250  0.00  0.00    -0.260 NA
ATOM      6  C   UNL     1      -6.839  -6.616   0.745  0.00  0.00    +0.109 C 
ATOM      7  H   UNL     1      -2.847  -6.620   0.415  0.00  0.00    +0.143 HD
ATOM      8  H   UNL     1      -4.344  -8.278  -0.047  0.00  0.00    +0.143 HD
ENDROOT
BRANCH   1  13
ATOM      9  C   UNL     1      -2.989  -2.264  -0.145  0.00  0.00    +0.034 A 
ATOM     10  C   UNL     1      -4.090  -1.426  -0.262  0.00  0.00    +0.023 A 
ATOM     11  C   UNL     1      -5.365  -1.947  -0.170  0.00  0.00    +0.002 A 
ATOM     12  C   UNL     1      -5.547  -3.302   0.040  0.00  0.00    +0.006 A 
ATOM     13  C   UNL     1      -4.453  -4.139   0.158  0.00  0.00    -0.013 A 
ATOM     14  C   UNL     1      -3.174  -3.625   0.060  0.00  0.00    +0.029 A 
BRANCH   9  17
ATOM     15  C   UNL     1      -1.427  -0.515   0.259  0.00  0.00    +0.217 C 
ATOM     16  O   UNL     1      -2.324   0.166   0.710  0.00  0.00    -0.275 OA
ATOM     17  N   UNL     1      -1.695  -1.739  -0.238  0.00  0.00    -0.285 N 
ATOM     18  H   UNL     1      -0.991  -2.256  -0.660  0.00  0.00    +0.155 HD
BRANCH  15  20
ATOM     19  C   UNL     1       0.015   1.407   0.870  0.00  0.00    +0.013 C 
ATOM     20  C   UNL     1      -0.013   0.006   0.255  0.00  0.00    +0.093 C 
ENDBRANCH  15  20
ENDBRANCH   9  17
ENDBRANCH   1  13
BRANCH   4  21
ATOM     21  S   UNL     1      -6.756  -8.418  -1.298  0.00  0.00    -0.121 S 
BRANCH  21  22
ATOM     22  C   UNL     1      -6.289  -9.394  -2.753  0.00  0.00    +0.118 C 
BRANCH  22  23
ATOM     23  C   UNL     1      -7.324 -10.497  -2.982  0.00  0.00    +0.184 C 
ATOM     24  N   UNL     1      -8.662  -9.909  -3.131  0.00  0.00    -0.363 N 
ATOM     25  C   UNL     1      -9.406 -10.385  -2.175  0.00  0.00    +0.060 A 
ATOM     26  C   UNL     1     -10.812 -10.174  -1.805  0.00  0.00    +0.027 A 
ATOM     27  C   UNL     1     -11.323 -10.819  -0.737  0.00  0.00    +0.002 A 
ATOM     28  C   UNL     1     -10.561 -11.698   0.053  0.00  0.00    +0.002 A 
ATOM     29  C   UNL     1      -9.263 -11.961  -0.198  0.00  0.00    +0.027 A 
ATOM     30  C   UNL     1      -8.600 -11.316  -1.339  0.00  0.00    +0.060 A 
ATOM     31  N   UNL     1      -7.388 -11.379  -1.810  0.00  0.00    -0.363 N 
ATOM     32  H   UNL     1      -8.939  -9.281  -3.817  0.00  0.00    +0.162 HD
ATOM     33  H   UNL     1      -6.661 -11.912  -1.453  0.00  0.00    +0.162 HD
ENDBRANCH  22  23
ENDBRANCH  21  22
ENDBRANCH   4  21
TORSDOF 6
