REMARK  Name = ZINC44686119
REMARK  7 active torsions:
REMARK  status: ('A' for Active; 'I' for Inactive)
REMARK    1  A    between atoms: C_1  and  C_2
REMARK    2  A    between atoms: C_2  and  C_4
REMARK    3  A    between atoms: C_2  and  N_14
REMARK    4  A    between atoms: C_7  and  S_10
REMARK    5  A    between atoms: S_10  and  N_13
REMARK    6  A    between atoms: N_14  and  C_15
REMARK    7  A    between atoms: N_19  and  C_21
REMARK                            x       y       z     vdW  Elec       q    Type
REMARK                         _______ _______ _______ _____ _____    ______ ____
ROOT
ATOM      1  C   UNL     1      -0.019   1.526   0.010  0.00  0.00    +0.029 C 
ATOM      2  C   UNL     1       0.002  -0.004   0.002  0.00  0.00    +0.081 C 
ENDROOT
BRANCH   2   3
ATOM      3  C   UNL     1       0.731  -0.503   1.223  0.00  0.00    -0.031 A 
ATOM      4  C   UNL     1       0.081  -0.558   2.442  0.00  0.00    +0.007 A 
ATOM      5  C   UNL     1       0.749  -1.016   3.562  0.00  0.00    +0.029 A 
ATOM      6  C   UNL     1       2.068  -1.420   3.463  0.00  0.00    +0.105 A 
ATOM      7  C   UNL     1       2.718  -1.365   2.244  0.00  0.00    +0.029 A 
ATOM      8  C   UNL     1       2.048  -0.911   1.123  0.00  0.00    +0.007 A 
BRANCH   6   9
ATOM      9  S   UNL     1       2.921  -2.002   4.890  0.00  0.00    +0.056 S 
ATOM     10  O   UNL     1       4.306  -1.804   4.645  0.00  0.00    -0.153 OA
ATOM     11  O   UNL     1       2.259  -1.441   6.016  0.00  0.00    -0.153 OA
BRANCH   9  12
ATOM     12  N   UNL     1       2.683  -3.639   4.969  0.00  0.00    -0.204 NA
ATOM     13  H   UNL     1       3.359  -4.209   5.367  0.00  0.00    +0.144 HD
ATOM     14  H   UNL     1       1.867  -4.028   4.617  0.00  0.00    +0.144 HD
ENDBRANCH   9  12
ENDBRANCH   6   9
ENDBRANCH   2   3
BRANCH   2  15
ATOM     15  N   UNL     1      -1.376  -0.512   0.012  0.00  0.00    -0.309 NA
ATOM     16  H   UNL     1      -1.426  -1.413   0.464  0.00  0.00    +0.123 HD
BRANCH  15  17
ATOM     17  C   UNL     1      -1.924  -0.575  -1.349  0.00  0.00    +0.036 C 
ATOM     18  C   UNL     1      -2.620   0.758  -1.730  0.00  0.00    -0.002 C 
ATOM     19  C   UNL     1      -3.658   0.320  -2.784  0.00  0.00    -0.077 C 
ATOM     20  N   UNL     1      -3.915  -1.117  -2.574  0.00  0.00    +0.383 N 
ATOM     21  C   UNL     1      -3.103  -1.578  -1.427  0.00  0.00    -0.060 C 
ATOM     22  H   UNL     1      -3.656  -1.633  -3.401  0.00  0.00    -0.081 HD
BRANCH  20  23
ATOM     23  C   UNL     1      -5.340  -1.327  -2.288  0.00  0.00    -0.069 C 
ATOM     24  C   UNL     1      -6.071  -2.403  -3.094  0.00  0.00    -0.017 C 
ATOM     25  C   UNL     1      -6.345  -0.923  -3.368  0.00  0.00    -0.017 C 
ENDBRANCH  20  23
ENDBRANCH  15  17
ENDBRANCH   2  15
TORSDOF 6
