REMARK  Name = ZINC09543008
REMARK  8 active torsions:
REMARK  status: ('A' for Active; 'I' for Inactive)
REMARK    1  A    between atoms: C_1  and  C_2
REMARK    2  A    between atoms: C_2  and  C_3
REMARK    3  A    between atoms: C_6  and  C_9
REMARK    4  A    between atoms: C_11  and  C_23
REMARK    5  A    between atoms: C_13  and  C_16
REMARK    6  A    between atoms: C_21  and  O_22
REMARK    7  A    between atoms: C_26  and  O_30
REMARK    8  A    between atoms: O_30  and  C_31
REMARK                            x       y       z     vdW  Elec       q    Type
REMARK                         _______ _______ _______ _____ _____    ______ ____
ROOT
ATOM      1  C   UNL     1      -2.742   1.479   1.882  0.00  0.00    +0.040 C 
ATOM      2  N   UNL     1      -2.336   1.290   0.683  0.00  0.00    -0.299 NA
ATOM      3  C   UNL     1      -1.333   2.113   0.020  0.00  0.00    +0.081 C 
ATOM      4  C   UNL     1      -0.943   3.162   2.156  0.00  0.00    -0.028 C 
ATOM      5  C   UNL     1      -2.232   2.592   2.756  0.00  0.00    +0.044 C 
ATOM      6  N   UNL     1      -1.167   3.397   0.717  0.00  0.00    +0.401 N 
ATOM      7  H   UNL     1      -2.014   3.964   0.592  0.00  0.00    -0.081 HD
ATOM      8  H   UNL     1      -0.360   3.897   0.324  0.00  0.00    -0.081 HD
ENDROOT
BRANCH   3   9
ATOM      9  C   UNL     1      -0.017   1.379   0.010  0.00  0.00    -0.039 A 
ATOM     10  C   UNL     1       0.002  -0.004   0.002  0.00  0.00    +0.007 A 
ATOM     11  C   UNL     1       1.207  -0.680  -0.013  0.00  0.00    +0.047 A 
ATOM     12  C   UNL     1       2.399   0.029  -0.021  0.00  0.00    +0.134 A 
ATOM     13  C   UNL     1       2.378   1.417  -0.013  0.00  0.00    +0.060 A 
ATOM     14  C   UNL     1       1.169   2.088   0.002  0.00  0.00    +0.022 A 
ATOM     15 BR   UNL     1       4.000   2.388  -0.024  0.00  0.00    -0.047 Br
BRANCH  12  16
ATOM     16  O   UNL     1       3.585  -0.633  -0.035  0.00  0.00    -0.494 OA
ATOM     17  C   UNL     1       3.531  -2.061  -0.042  0.00  0.00    +0.277 C 
ENDBRANCH  12  16
ENDBRANCH   3   9
BRANCH   1  21
ATOM     18  C   UNL     1      -5.662  -1.162   3.469  0.00  0.00    -0.048 A 
ATOM     19  C   UNL     1      -5.204  -1.339   2.175  0.00  0.00    +0.004 A 
ATOM     20  C   UNL     1      -4.255  -0.485   1.654  0.00  0.00    +0.010 A 
ATOM     21  C   UNL     1      -3.757   0.561   2.434  0.00  0.00    -0.004 A 
ATOM     22  C   UNL     1      -4.220   0.730   3.740  0.00  0.00    +0.010 A 
ATOM     23  C   UNL     1      -5.173  -0.128   4.248  0.00  0.00    +0.004 A 
BRANCH  18  25
ATOM     24  C   UNL     1      -6.002  -3.281   4.712  0.00  0.00    +0.009 C 
ATOM     25  C   UNL     1      -6.698  -2.100   4.033  0.00  0.00    +0.032 C 
ENDBRANCH  18  25
ENDBRANCH   1  21
BRANCH   4  26
ATOM     26  C   UNL     1      -0.599   4.464   2.833  0.00  0.00    -0.019 A 
ATOM     27  C   UNL     1      -1.018   5.660   2.284  0.00  0.00    +0.005 A 
ATOM     28  C   UNL     1      -0.703   6.855   2.904  0.00  0.00    +0.000 A 
ATOM     29  C   UNL     1       0.032   6.856   4.076  0.00  0.00    +0.004 A 
ATOM     30  C   UNL     1       0.452   5.662   4.629  0.00  0.00    +0.045 A 
ATOM     31  C   UNL     1       0.134   4.462   4.011  0.00  0.00    +0.118 A 
BRANCH  31  32
ATOM     32  O   UNL     1       0.542   3.286   4.556  0.00  0.00    -0.507 OA
ATOM     33  H   UNL     1       1.410   2.990   4.248  0.00  0.00    +0.292 HD
ENDBRANCH  31  32
ENDBRANCH   4  26
TORSDOF 6
