REMARK  Name = ZINC63329017
REMARK  4 active torsions:
REMARK  status: ('A' for Active; 'I' for Inactive)
REMARK    1  A    between atoms: C_5  and  N_7
REMARK    2  A    between atoms: C_13  and  C_15
REMARK    3  A    between atoms: C_15  and  C_16
REMARK    4  A    between atoms: C_16  and  N_17
REMARK                            x       y       z     vdW  Elec       q    Type
REMARK                         _______ _______ _______ _____ _____    ______ ____
ROOT
ATOM      1  N   UNL     1       0.134  -8.880  -2.349  0.00  0.00    -0.299 N 
ATOM      2  C   UNL     1       0.159 -10.228  -2.357  0.00  0.00    +0.302 C 
ATOM      3  O   UNL     1       0.269 -10.840  -1.312  0.00  0.00    -0.253 OA
ATOM      4  N   UNL     1       0.062 -10.896  -3.523  0.00  0.00    -0.283 N 
ATOM      5  C   UNL     1       0.050 -10.153  -4.787  0.00  0.00    +0.114 C 
ATOM      6  C   UNL     1      -1.237 -10.483  -5.564  0.00  0.00    +0.052 C 
ATOM      7  C   UNL     1      -1.407 -11.981  -5.504  0.00  0.00    -0.035 C 
ATOM      8  C   UNL     1      -1.603 -12.882  -6.459  0.00  0.00    +0.001 A 
ATOM      9  C   UNL     1      -1.836 -12.741  -7.905  0.00  0.00    +0.030 A 
ATOM     10  C   UNL     1      -1.980 -13.898  -8.605  0.00  0.00    +0.042 A 
ATOM     11  C   UNL     1      -1.917 -15.166  -8.017  0.00  0.00    +0.022 A 
ATOM     12  C   UNL     1      -1.715 -15.388  -6.693  0.00  0.00    +0.027 A 
ATOM     13  C   UNL     1      -1.557 -14.248  -5.853  0.00  0.00    +0.043 A 
ATOM     14  N   UNL     1      -1.377 -14.169  -4.568  0.00  0.00    -0.376 N 
ATOM     15  C   UNL     1      -1.349 -12.755  -4.191  0.00  0.00    +0.124 C 
ATOM     16  C   UNL     1      -0.025 -12.365  -3.515  0.00  0.00    +0.138 C 
ATOM     17 CL   UNL     1      -2.258 -13.797 -10.316  0.00  0.00    -0.084 Cl
ATOM     18  H   UNL     1       0.120  -8.390  -3.186  0.00  0.00    +0.150 HD
ATOM     19  H   UNL     1      -1.279 -14.919  -3.961  0.00  0.00    +0.160 HD
ENDROOT
BRANCH   1  20
ATOM     20  C   UNL     1       0.128  -8.155  -1.076  0.00  0.00    +0.115 C 
BRANCH  20  21
ATOM     21  C   UNL     1       0.099  -6.650  -1.346  0.00  0.00    +0.114 C 
BRANCH  21  28
ATOM     22  N   UNL     1       1.218  -2.077  -0.020  0.00  0.00    -0.325 N 
ATOM     23  C   UNL     1       1.238  -2.832   1.240  0.00  0.00    +0.124 C 
ATOM     24  C   UNL     1       0.062  -3.816   1.241  0.00  0.00    +0.126 C 
ATOM     25  N   UNL     1       0.068  -4.557  -0.028  0.00  0.00    -0.298 N 
ATOM     26  C   UNL     1       0.048  -3.801  -1.289  0.00  0.00    +0.126 C 
ATOM     27  C   UNL     1       1.218  -2.817  -1.290  0.00  0.00    +0.124 C 
ATOM     28  C   UNL     1       0.093  -5.904  -0.036  0.00  0.00    +0.217 C 
ATOM     29  O   UNL     1       0.110  -6.517   1.010  0.00  0.00    -0.276 OA
BRANCH  22  34
ATOM     30  C   UNL     1      -0.043   1.376   0.012  0.00  0.00    +0.002 A 
ATOM     31  C   UNL     1       1.141   2.089   0.004  0.00  0.00    +0.003 A 
ATOM     32  C   UNL     1       2.353   1.423  -0.012  0.00  0.00    +0.040 A 
ATOM     33  C   UNL     1       2.383   0.040  -0.020  0.00  0.00    +0.144 A 
ATOM     34  C   UNL     1       1.192  -0.679  -0.012  0.00  0.00    +0.065 A 
ATOM     35  C   UNL     1      -0.021  -0.005   0.004  0.00  0.00    +0.026 A 
ATOM     36  F   UNL     1       3.566  -0.611  -0.036  0.00  0.00    -0.204 F 
ENDBRANCH  22  34
ENDBRANCH  21  28
ENDBRANCH  20  21
ENDBRANCH   1  20
TORSDOF 4
