REMARK  Name = ZINC63486321
REMARK  11 active torsions:
REMARK  status: ('A' for Active; 'I' for Inactive)
REMARK    1  A    between atoms: C_1  and  C_2
REMARK    2  A    between atoms: C_3  and  O_32
REMARK    3  A    between atoms: C_11  and  C_16
REMARK    4  A    between atoms: C_13  and  C_15
REMARK    5  A    between atoms: C_16  and  C_17
REMARK    6  A    between atoms: N_19  and  C_20
REMARK    7  A    between atoms: C_20  and  C_21
REMARK    8  A    between atoms: C_21  and  C_22
REMARK    9  A    between atoms: O_32  and  C_33
REMARK   10  A    between atoms: C_33  and  C_34
REMARK   11  A    between atoms: C_34  and  C_36
REMARK                            x       y       z     vdW  Elec       q    Type
REMARK                         _______ _______ _______ _____ _____    ______ ____
ROOT
ATOM      1  C   UNL     1      -0.018   1.503   0.010  0.00  0.00    +0.051 C 
ATOM      2  C   UNL     1       0.002  -0.004   0.002  0.00  0.00    +0.034 A 
ATOM      3  C   UNL     1       0.006  -0.688  -1.202  0.00  0.00    +0.127 A 
ATOM      4  C   UNL     1       0.026  -2.075  -1.207  0.00  0.00    +0.046 A 
ATOM      5  C   UNL     1       0.046  -2.768  -0.013  0.00  0.00    +0.011 A 
ATOM      6  C   UNL     1       0.044  -2.088   1.194  0.00  0.00    -0.001 A 
ATOM      7  C   UNL     1       0.023  -0.704   1.203  0.00  0.00    +0.141 A 
ATOM      8  O   UNL     1       0.005   0.007   2.364  0.00  0.00    -0.425 OA
ATOM      9  C   UNL     1       0.234  -0.666   3.509  0.00  0.00    +0.317 C 
ATOM     10  O   UNL     1       0.917  -0.201   4.390  0.00  0.00    -0.250 OA
ATOM     11  C   UNL     1      -0.406  -2.034   3.639  0.00  0.00    +0.114 C 
ATOM     12  C   UNL     1       0.077  -2.890   2.471  0.00  0.00    +0.034 C 
ATOM     13  C   UNL     1      -0.820  -4.120   2.321  0.00  0.00    +0.013 C 
ENDROOT
BRANCH  11  14
ATOM     14  C   UNL     1      -1.929  -1.902   3.579  0.00  0.00    +0.111 C 
BRANCH  14  15
ATOM     15  C   UNL     1      -2.414  -1.124   4.775  0.00  0.00    +0.214 C 
ATOM     16  O   UNL     1      -1.619  -0.715   5.595  0.00  0.00    -0.276 OA
ATOM     17  N   UNL     1      -3.731  -0.882   4.934  0.00  0.00    -0.315 N 
ATOM     18  H   UNL     1      -4.366  -1.209   4.278  0.00  0.00    +0.149 HD
BRANCH  17  19
ATOM     19  C   UNL     1      -4.202  -0.126   6.097  0.00  0.00    +0.108 C 
BRANCH  19  20
ATOM     20  C   UNL     1      -5.725   0.006   6.036  0.00  0.00    +0.052 C 
BRANCH  20  21
ATOM     21  C   UNL     1      -6.209   0.784   7.232  0.00  0.00    -0.040 C 
ATOM     22  C   UNL     1      -6.463   2.111   7.291  0.00  0.00    +0.002 A 
ATOM     23  C   UNL     1      -6.367   3.186   6.296  0.00  0.00    +0.048 A 
ATOM     24  C   UNL     1      -6.697   4.448   6.659  0.00  0.00    +0.124 A 
ATOM     25  C   UNL     1      -7.128   4.752   7.961  0.00  0.00    +0.040 A 
ATOM     26  C   UNL     1      -7.240   3.818   8.928  0.00  0.00    +0.029 A 
ATOM     27  C   UNL     1      -6.920   2.459   8.656  0.00  0.00    +0.043 A 
ATOM     28  N   UNL     1      -6.947   1.388   9.412  0.00  0.00    -0.380 N 
ATOM     29  C   UNL     1      -6.516   0.238   8.609  0.00  0.00    +0.144 C 
ATOM     30  F   UNL     1      -6.610   5.440   5.746  0.00  0.00    -0.205 F 
ATOM     31  H   UNL     1      -7.211   1.360  10.344  0.00  0.00    +0.160 HD
ENDBRANCH  20  21
ENDBRANCH  19  20
ENDBRANCH  17  19
ENDBRANCH  14  15
ENDBRANCH  11  14
BRANCH   3  32
ATOM     32  O   UNL     1      -0.011  -0.003  -2.376  0.00  0.00    -0.487 OA
BRANCH  32  33
ATOM     33  C   UNL     1      -0.006  -0.775  -3.578  0.00  0.00    +0.259 C 
BRANCH  33  34
ATOM     34  C   UNL     1      -0.026   0.149  -4.769  0.00  0.00    -0.043 C 
ATOM     35  C   UNL     1      -0.044   1.446  -4.590  0.00  0.00    +0.011 C 
ATOM     36  C   UNL     1      -0.025  -0.420  -6.164  0.00  0.00    +0.042 C 
ENDBRANCH  33  34
ENDBRANCH  32  33
ENDBRANCH   3  32
TORSDOF 8
