REMARK  Name = ZINC36847520
REMARK  9 active torsions:
REMARK  status: ('A' for Active; 'I' for Inactive)
REMARK    1  A    between atoms: C_1  and  C_2
REMARK    2  A    between atoms: C_5  and  N_9
REMARK    3  A    between atoms: N_9  and  C_10
REMARK    4  A    between atoms: C_10  and  N_12
REMARK    5  A    between atoms: N_12  and  C_13
REMARK    6  A    between atoms: C_13  and  C_14
REMARK    7  A    between atoms: C_14  and  C_16
REMARK    8  A    between atoms: C_14  and  N_17
REMARK    9  A    between atoms: C_22  and  C_24
REMARK                            x       y       z     vdW  Elec       q    Type
REMARK                         _______ _______ _______ _____ _____    ______ ____
ROOT
ATOM      1  N   UNL     1       0.991  -6.000   1.011  0.00  0.00    -0.328 N 
ATOM      2  H   UNL     1       1.095  -6.459   0.163  0.00  0.00    +0.148 HD
ENDROOT
BRANCH   1   3
ATOM      3  C   UNL     1       1.150  -4.663   1.078  0.00  0.00    +0.134 C 
ATOM      4  S   UNL     1       1.109  -3.871   2.595  0.00  0.00    -0.019 S 
BRANCH   3   5
ATOM      5  N   UNL     1       1.341  -3.951  -0.050  0.00  0.00    -0.297 N 
ATOM      6  H   UNL     1       1.290  -4.388  -0.915  0.00  0.00    +0.154 HD
BRANCH   5  11
ATOM      7  C   UNL     1       2.446   1.606   0.260  0.00  0.00    +0.045 C 
ATOM      8  C   UNL     1       2.152   0.130   0.177  0.00  0.00    -0.032 A 
ATOM      9  C   UNL     1       2.741  -0.742   1.074  0.00  0.00    +0.006 A 
ATOM     10  C   UNL     1       2.474  -2.095   1.001  0.00  0.00    +0.023 A 
ATOM     11  C   UNL     1       1.613  -2.580   0.026  0.00  0.00    +0.034 A 
ATOM     12  C   UNL     1       1.022  -1.703  -0.874  0.00  0.00    +0.043 A 
ATOM     13  C   UNL     1       1.289  -0.349  -0.792  0.00  0.00    +0.046 A 
ATOM     14 CL   UNL     1       0.545   0.750  -1.912  0.00  0.00    -0.083 Cl
ENDBRANCH   5  11
ENDBRANCH   3   5
ENDBRANCH   1   3
BRANCH   1  15
ATOM     15  C   UNL     1       0.660  -6.759   2.220  0.00  0.00    +0.088 C 
BRANCH  15  16
ATOM     16  C   UNL     1       0.446  -8.230   1.855  0.00  0.00    -0.054 C 
ATOM     17  C   UNL     1       0.236  -9.046   3.132  0.00  0.00    -0.012 C 
BRANCH  16  18
ATOM     18  N   UNL     1       1.626  -8.734   1.140  0.00  0.00    +0.384 N 
ATOM     19  C   UNL     1       2.813  -8.581   1.989  0.00  0.00    -0.078 C 
ATOM     20  C   UNL     1       4.057  -9.029   1.218  0.00  0.00    -0.019 C 
ATOM     21  C   UNL     1       3.900 -10.499   0.818  0.00  0.00    -0.003 C 
ATOM     22  C   UNL     1       2.619 -10.660  -0.005  0.00  0.00    -0.016 C 
ATOM     23  C   UNL     1       1.428 -10.151   0.811  0.00  0.00    -0.071 C 
ATOM     24  C   UNL     1       0.145 -10.310  -0.007  0.00  0.00    -0.013 C 
ATOM     25  H   UNL     1       1.752  -8.207   0.289  0.00  0.00    -0.081 HD
ENDBRANCH  16  18
ENDBRANCH  15  16
ENDBRANCH   1  15
TORSDOF 6
