REMARK  Name = ZINC44608219
REMARK  9 active torsions:
REMARK  status: ('A' for Active; 'I' for Inactive)
REMARK    1  A    between atoms: C_1  and  O_2
REMARK    2  A    between atoms: O_2  and  C_3
REMARK    3  A    between atoms: C_6  and  C_9
REMARK    4  A    between atoms: N_10  and  C_11
REMARK    5  A    between atoms: C_13  and  O_26
REMARK    6  A    between atoms: C_15  and  O_25
REMARK    7  A    between atoms: C_17  and  C_23
REMARK    8  A    between atoms: C_20  and  O_22
REMARK    9  A    between atoms: C_23  and  O_24
REMARK                            x       y       z     vdW  Elec       q    Type
REMARK                         _______ _______ _______ _____ _____    ______ ____
ROOT
ATOM      1  C   UNL     1       3.186  -4.432  -5.569  0.00  0.00    +0.166 C 
ATOM      2  C   UNL     1       2.171  -5.314  -6.302  0.00  0.00    +0.173 C 
ATOM      3  C   UNL     1       1.698  -6.423  -5.356  0.00  0.00    +0.176 C 
ATOM      4  C   UNL     1       2.912  -7.217  -4.866  0.00  0.00    +0.178 C 
ATOM      5  O   UNL     1       3.830  -6.332  -4.222  0.00  0.00    -0.341 OA
ATOM      6  C   UNL     1       4.343  -5.302  -5.071  0.00  0.00    +0.272 C 
ENDROOT
BRANCH   1   8
ATOM      7  C   UNL     1       2.490  -2.490  -4.359  0.00  0.00    +0.086 C 
ATOM      8  N   UNL     1       2.536  -3.782  -4.428  0.00  0.00    -0.380 N 
ATOM      9  H   UNL     1       2.140  -4.319  -3.724  0.00  0.00    +0.160 HD
BRANCH   7  13
ATOM     10  C   UNL     1       0.605  -0.607  -1.055  0.00  0.00    +0.120 A 
ATOM     11  C   UNL     1       1.172   0.166  -2.061  0.00  0.00    +0.046 A 
ATOM     12  C   UNL     1       1.785  -0.442  -3.135  0.00  0.00    +0.013 A 
ATOM     13  C   UNL     1       1.836  -1.836  -3.211  0.00  0.00    -0.009 A 
ATOM     14  C   UNL     1       1.264  -2.609  -2.197  0.00  0.00    +0.013 A 
ATOM     15  C   UNL     1       0.659  -1.993  -1.123  0.00  0.00    +0.046 A 
BRANCH  10  17
ATOM     16  C   UNL     1      -0.017   1.425   0.010  0.00  0.00    +0.277 C 
ATOM     17  O   UNL     1       0.002  -0.004   0.002  0.00  0.00    -0.495 OA
ENDBRANCH  10  17
ENDBRANCH   7  13
ENDBRANCH   1   8
BRANCH   6  18
ATOM     18  O   UNL     1       5.010  -5.893  -6.188  0.00  0.00    -0.365 OA
ATOM     19  H   UNL     1       5.755  -6.459  -5.946  0.00  0.00    +0.213 HD
ENDBRANCH   6  18
BRANCH   3  20
ATOM     20  O   UNL     1       0.804  -7.295  -6.051  0.00  0.00    -0.387 OA
ATOM     21  H   UNL     1       0.465  -8.022  -5.512  0.00  0.00    +0.210 HD
ENDBRANCH   3  20
BRANCH   2  22
ATOM     22  O   UNL     1       2.786  -5.896  -7.453  0.00  0.00    -0.387 OA
ATOM     23  H   UNL     1       2.199  -6.468  -7.965  0.00  0.00    +0.210 HD
ENDBRANCH   2  22
BRANCH   4  24
ATOM     24  C   UNL     1       2.454  -8.288  -3.874  0.00  0.00    +0.190 C 
BRANCH  24  25
ATOM     25  O   UNL     1       3.568  -9.104  -3.506  0.00  0.00    -0.392 OA
ATOM     26  H   UNL     1       3.351  -9.806  -2.878  0.00  0.00    +0.210 HD
ENDBRANCH  24  25
ENDBRANCH   4  24
TORSDOF 8
