REMARK  Name = ZINC54624444
REMARK  10 active torsions:
REMARK  status: ('A' for Active; 'I' for Inactive)
REMARK    1  A    between atoms: C_1  and  C_2
REMARK    2  A    between atoms: C_3  and  C_30
REMARK    3  A    between atoms: C_4  and  C_21
REMARK    4  A    between atoms: C_9  and  S_11
REMARK    5  A    between atoms: S_11  and  C_12
REMARK    6  A    between atoms: C_12  and  C_13
REMARK    7  A    between atoms: C_24  and  N_27
REMARK    8  A    between atoms: C_30  and  O_32
REMARK    9  A    between atoms: O_32  and  C_33
REMARK   10  A    between atoms: C_33  and  C_34
REMARK                            x       y       z     vdW  Elec       q    Type
REMARK                         _______ _______ _______ _____ _____    ______ ____
ROOT
ATOM      1  C   UNL     1      -0.018   1.503   0.010  0.00  0.00    +0.061 C 
ATOM      2  C   UNL     1       0.002  -0.004   0.002  0.00  0.00    +0.020 C 
ATOM      3  C   UNL     1      -1.164  -0.669   0.004  0.00  0.00    +0.082 C 
ATOM      4  C   UNL     1      -1.253  -2.171   0.007  0.00  0.00    +0.179 C 
ATOM      5  N   UNL     1       0.062  -2.737  -0.284  0.00  0.00    -0.220 N 
ATOM      6  C   UNL     1       1.208  -2.012  -0.281  0.00  0.00    +0.219 A 
ATOM      7  N   UNL     1       2.196  -2.814  -0.571  0.00  0.00    -0.187 NA
ATOM      8  C   UNL     1       1.724  -4.053  -0.770  0.00  0.00    +0.211 A 
ATOM      9  N   UNL     1       0.418  -4.046  -0.604  0.00  0.00    -0.141 NA
ATOM     10  N   UNL     1       1.212  -0.651  -0.013  0.00  0.00    -0.287 N 
ATOM     11  H   UNL     1       2.040  -0.175   0.160  0.00  0.00    +0.155 HD
ENDROOT
BRANCH   4  12
ATOM     12  C   UNL     1      -1.715  -2.644   1.361  0.00  0.00    -0.018 A 
ATOM     13  C   UNL     1      -0.971  -2.347   2.488  0.00  0.00    +0.008 A 
ATOM     14  C   UNL     1      -1.395  -2.781   3.730  0.00  0.00    +0.033 A 
ATOM     15  C   UNL     1      -2.562  -3.512   3.846  0.00  0.00    +0.126 A 
ATOM     16  C   UNL     1      -3.306  -3.809   2.720  0.00  0.00    +0.033 A 
ATOM     17  C   UNL     1      -2.885  -3.371   1.478  0.00  0.00    +0.008 A 
BRANCH  15  18
ATOM     18  N   UNL     1      -3.015  -3.978   5.176  0.00  0.00    +0.056 N 
ATOM     19  O   UNL     1      -2.365  -3.718   6.161  0.00  0.00    -0.126 OA
ATOM     20  O   UNL     1      -4.037  -4.617   5.277  0.00  0.00    -0.126 OA
ENDBRANCH  15  18
ENDBRANCH   4  12
BRANCH   3  21
ATOM     21  C   UNL     1      -2.364   0.077   0.003  0.00  0.00    +0.339 C 
ATOM     22  O   UNL     1      -2.325   1.293  -0.001  0.00  0.00    -0.245 OA
BRANCH  21  23
ATOM     23  O   UNL     1      -3.554  -0.560   0.004  0.00  0.00    -0.457 OA
BRANCH  23  24
ATOM     24  C   UNL     1      -4.727   0.257   0.003  0.00  0.00    +0.259 C 
BRANCH  24  25
ATOM     25  C   UNL     1      -5.951  -0.622   0.005  0.00  0.00    +0.006 C 
ATOM     26  C   UNL     1      -6.950  -0.350   0.807  0.00  0.00    +0.007 C 
ENDBRANCH  24  25
ENDBRANCH  23  24
ENDBRANCH  21  23
ENDBRANCH   3  21
BRANCH   8  27
ATOM     27  S   UNL     1       2.694  -5.463  -1.188  0.00  0.00    -0.080 S 
BRANCH  27  28
ATOM     28  C   UNL     1       4.389  -4.821  -1.267  0.00  0.00    +0.114 C 
BRANCH  28  29
ATOM     29  C   UNL     1       5.334  -5.941  -1.621  0.00  0.00    -0.019 A 
ATOM     30  C   UNL     1       5.910  -6.701  -0.620  0.00  0.00    +0.006 A 
ATOM     31  C   UNL     1       6.776  -7.728  -0.944  0.00  0.00    +0.000 A 
ATOM     32  C   UNL     1       7.068  -7.995  -2.269  0.00  0.00    +0.001 A 
ATOM     33  C   UNL     1       6.493  -7.236  -3.270  0.00  0.00    +0.020 A 
ATOM     34  C   UNL     1       5.621  -6.212  -2.946  0.00  0.00    +0.045 A 
ATOM     35 CL   UNL     1       4.893  -5.261  -4.204  0.00  0.00    -0.083 Cl
ENDBRANCH  28  29
ENDBRANCH  27  28
ENDBRANCH   8  27
TORSDOF 9
