REMARK  Name = ZINC09066622
REMARK  8 active torsions:
REMARK  status: ('A' for Active; 'I' for Inactive)
REMARK    1  A    between atoms: C_1  and  O_2
REMARK    2  A    between atoms: O_2  and  C_3
REMARK    3  A    between atoms: C_5  and  C_13
REMARK    4  A    between atoms: C_7  and  O_11
REMARK    5  A    between atoms: C_8  and  O_9
REMARK    6  A    between atoms: O_9  and  C_10
REMARK    7  A    between atoms: O_11  and  C_12
REMARK    8  A    between atoms: N_14  and  N_15
REMARK                            x       y       z     vdW  Elec       q    Type
REMARK                         _______ _______ _______ _____ _____    ______ ____
ROOT
ATOM      1  N   UNL     1       3.450   0.545  -6.294  0.00  0.00    -0.141 N 
ATOM      2  C   UNL     1       4.532   1.334  -6.120  0.00  0.00    +0.301 A 
ATOM      3  O   UNL     1       5.098   1.385  -5.041  0.00  0.00    -0.263 OA
ATOM      4  C   UNL     1       4.993   2.098  -7.213  0.00  0.00    +0.133 A 
ATOM      5  C   UNL     1       4.310   2.002  -8.424  0.00  0.00    +0.107 A 
ATOM      6  C   UNL     1       5.003   2.893  -9.365  0.00  0.00    +0.027 A 
ATOM      7  C   UNL     1       4.798   3.223 -10.706  0.00  0.00    +0.027 A 
ATOM      8  C   UNL     1       5.642   4.116 -11.327  0.00  0.00    +0.019 A 
ATOM      9  C   UNL     1       6.695   4.689 -10.626  0.00  0.00    +0.017 A 
ATOM     10  C   UNL     1       6.910   4.375  -9.303  0.00  0.00    +0.027 A 
ATOM     11  C   UNL     1       6.069   3.474  -8.655  0.00  0.00    +0.049 A 
ATOM     12  N   UNL     1       6.046   2.984  -7.366  0.00  0.00    -0.349 N 
ATOM     13  H   UNL     1       6.675   3.225  -6.668  0.00  0.00    +0.166 HD
ATOM     14 BR   UNL     1       5.367   4.562 -13.144  0.00  0.00    -0.050 Br
ATOM     15  N   UNL     1       3.240   1.196  -8.527  0.00  0.00    -0.189 NA
ATOM     16  C   UNL     1       2.825   0.488  -7.505  0.00  0.00    +0.372 A 
ATOM     17  O   UNL     1       1.748  -0.314  -7.653  0.00  0.00    -0.242 OA
ENDROOT
BRANCH   1  19
ATOM     18  C   UNL     1       2.461   0.357  -4.184  0.00  0.00    +0.141 C 
ATOM     19  N   UNL     1       2.970  -0.225  -5.226  0.00  0.00    -0.167 NA
BRANCH  18  22
ATOM     20  C   UNL     1       1.137  -0.574  -0.794  0.00  0.00    +0.166 A 
ATOM     21  C   UNL     1       1.512   0.181  -1.891  0.00  0.00    +0.059 A 
ATOM     22  C   UNL     1       2.061  -0.444  -3.014  0.00  0.00    +0.002 A 
ATOM     23  C   UNL     1       2.229  -1.832  -3.025  0.00  0.00    +0.059 A 
ATOM     24  C   UNL     1       1.852  -2.581  -1.926  0.00  0.00    +0.166 A 
ATOM     25  C   UNL     1       1.311  -1.955  -0.807  0.00  0.00    +0.204 A 
BRANCH  20  27
ATOM     26  C   UNL     1       0.453   1.454   0.243  0.00  0.00    +0.277 C 
ATOM     27  O   UNL     1       0.603   0.034   0.299  0.00  0.00    -0.491 OA
ENDBRANCH  20  27
BRANCH  25  28
ATOM     28  O   UNL     1       0.947  -2.694   0.275  0.00  0.00    -0.488 OA
ATOM     29  C   UNL     1      -0.393  -3.190   0.301  0.00  0.00    +0.277 C 
ENDBRANCH  25  28
BRANCH  24  30
ATOM     30  O   UNL     1       2.014  -3.932  -1.936  0.00  0.00    -0.491 OA
ATOM     31  C   UNL     1       2.580  -4.508  -3.115  0.00  0.00    +0.277 C 
ENDBRANCH  24  30
ENDBRANCH  18  22
ENDBRANCH   1  19
TORSDOF 5
