REMARK  Name = ZINC39327304
REMARK  5 active torsions:
REMARK  status: ('A' for Active; 'I' for Inactive)
REMARK    1  A    between atoms: C_4  and  C_7
REMARK    2  A    between atoms: C_7  and  C_9
REMARK    3  A    between atoms: C_14  and  N_15
REMARK    4  A    between atoms: C_16  and  C_18
REMARK    5  A    between atoms: C_19  and  N_33
REMARK                            x       y       z     vdW  Elec       q    Type
REMARK                         _______ _______ _______ _____ _____    ______ ____
ROOT
ATOM      1  C   UNL     1       8.655  -1.844  -0.016  0.00  0.00    +0.097 A 
ATOM      2  C   UNL     1       9.959  -2.285  -0.078  0.00  0.00    +0.053 A 
ATOM      3  C   UNL     1      11.024  -1.294  -0.067  0.00  0.00    +0.027 A 
ATOM      4  C   UNL     1      12.426  -1.503  -0.130  0.00  0.00    +0.017 A 
ATOM      5  C   UNL     1      13.259  -0.414  -0.097  0.00  0.00    -0.028 A 
ATOM      6  C   UNL     1      12.732   0.870   0.000  0.00  0.00    +0.020 A 
ATOM      7  N   UNL     1      11.434   1.063   0.043  0.00  0.00    -0.352 N 
ATOM      8  C   UNL     1      10.593   0.049   0.014  0.00  0.00    +0.088 A 
ATOM      9  S   UNL     1       8.822  -0.071   0.050  0.00  0.00    -0.064 S 
ATOM     10  C   UNL     1      13.711   2.013   0.072  0.00  0.00    +0.053 C 
ATOM     11  C   UNL     1      14.186   2.441  -1.279  0.00  0.00    +0.006 C 
ATOM     12  C   UNL     1      15.259   1.615  -1.958  0.00  0.00    +0.000 C 
ATOM     13  C   UNL     1      14.663   0.307  -2.511  0.00  0.00    +0.000 C 
ATOM     14  C   UNL     1      15.161  -0.857  -1.611  0.00  0.00    +0.005 C 
ATOM     15  C   UNL     1      14.755  -0.571  -0.167  0.00  0.00    +0.037 C 
ATOM     16  H   UNL     1      11.088   1.968   0.097  0.00  0.00    +0.166 HD
ENDROOT
BRANCH   1  18
ATOM     17  N   UNL     1       6.267  -2.004   0.048  0.00  0.00    -0.280 N 
ATOM     18  C   UNL     1       7.467  -2.615  -0.013  0.00  0.00    +0.257 C 
ATOM     19  O   UNL     1       7.529  -3.831  -0.064  0.00  0.00    -0.269 OA
ATOM     20  H   UNL     1       6.218  -1.044   0.174  0.00  0.00    +0.155 HD
BRANCH  17  26
ATOM     21  C   UNL     1       3.901  -2.281   0.488  0.00  0.00    +0.043 A 
ATOM     22  C   UNL     1       2.733  -3.038   0.355  0.00  0.00    +0.013 A 
ATOM     23  C   UNL     1       2.767  -4.240  -0.317  0.00  0.00    +0.001 A 
ATOM     24  C   UNL     1       3.953  -4.704  -0.864  0.00  0.00    +0.002 A 
ATOM     25  C   UNL     1       5.114  -3.968  -0.741  0.00  0.00    +0.024 A 
ATOM     26  C   UNL     1       5.099  -2.751  -0.072  0.00  0.00    +0.045 A 
BRANCH  21  27
ATOM     27  C   UNL     1       3.872  -0.994   1.206  0.00  0.00    +0.195 C 
ATOM     28  O   UNL     1       3.316  -0.033   0.710  0.00  0.00    -0.287 OA
BRANCH  27  32
ATOM     29  C   UNL     1       5.730  -0.642   5.010  0.00  0.00    +0.000 A 
ATOM     30  C   UNL     1       5.192   0.477   4.400  0.00  0.00    +0.001 A 
ATOM     31  C   UNL     1       4.587   0.370   3.164  0.00  0.00    +0.012 A 
ATOM     32  C   UNL     1       4.519  -0.871   2.529  0.00  0.00    +0.022 A 
ATOM     33  C   UNL     1       5.064  -1.997   3.150  0.00  0.00    +0.012 A 
ATOM     34  C   UNL     1       5.666  -1.876   4.386  0.00  0.00    +0.001 A 
ENDBRANCH  27  32
ENDBRANCH  21  27
ENDBRANCH  17  26
ENDBRANCH   1  18
BRANCH   2  35
ATOM     35  N   UNL     1      10.249  -3.640  -0.148  0.00  0.00    -0.356 N 
ATOM     36  H   UNL     1       9.530  -4.291  -0.154  0.00  0.00    +0.142 HD
ATOM     37  H   UNL     1      11.172  -3.937  -0.190  0.00  0.00    +0.142 HD
ENDBRANCH   2  35
TORSDOF 5
