REMARK  Name = ZINC19143518
REMARK  15 active torsions:
REMARK  status: ('A' for Active; 'I' for Inactive)
REMARK    1  A    between atoms: C_1  and  C_2
REMARK    2  A    between atoms: C_2  and  N_3
REMARK    3  A    between atoms: N_3  and  C_4
REMARK    4  A    between atoms: N_3  and  C_6
REMARK    5  A    between atoms: C_4  and  C_5
REMARK    6  A    between atoms: C_9  and  C_12
REMARK    7  A    between atoms: N_13  and  N_14
REMARK    8  A    between atoms: C_26  and  N_27
REMARK    9  A    between atoms: N_27  and  C_28
REMARK   10  A    between atoms: C_28  and  C_29
REMARK   11  A    between atoms: C_28  and  C_31
REMARK   12  A    between atoms: C_28  and  C_33
REMARK   13  A    between atoms: C_29  and  O_30
REMARK   14  A    between atoms: C_31  and  O_32
REMARK   15  A    between atoms: C_33  and  O_34
REMARK                            x       y       z     vdW  Elec       q    Type
REMARK                         _______ _______ _______ _____ _____    ______ ____
ROOT
ATOM      1  N   UNL     1      -3.187  -6.792  -0.338  0.00  0.00    -0.119 N 
ATOM      2  C   UNL     1      -4.308  -6.049  -0.292  0.00  0.00    +0.274 C 
ATOM      3  O   UNL     1      -5.396  -6.593  -0.324  0.00  0.00    -0.268 OA
ATOM      4  C   UNL     1      -4.225  -4.585  -0.205  0.00  0.00    +0.047 A 
ATOM      5  C   UNL     1      -5.357  -3.783  -0.156  0.00  0.00    +0.014 A 
ATOM      6  C   UNL     1      -5.231  -2.403  -0.073  0.00  0.00    +0.001 A 
ATOM      7  C   UNL     1      -3.995  -1.797  -0.040  0.00  0.00    +0.010 A 
ATOM      8  C   UNL     1      -2.831  -2.577  -0.086  0.00  0.00    +0.004 A 
ATOM      9  C   UNL     1      -2.949  -3.978  -0.170  0.00  0.00    +0.008 A 
ATOM     10  C   UNL     1      -1.792  -4.792  -0.219  0.00  0.00    +0.048 A 
ATOM     11  C   UNL     1      -0.536  -4.193  -0.184  0.00  0.00    +0.015 A 
ATOM     12  C   UNL     1      -0.419  -2.817  -0.107  0.00  0.00    +0.024 A 
ATOM     13  C   UNL     1      -1.539  -2.000  -0.053  0.00  0.00    +0.036 A 
ATOM     14  C   UNL     1      -1.957  -6.246  -0.306  0.00  0.00    +0.274 C 
ATOM     15  O   UNL     1      -0.975  -6.963  -0.351  0.00  0.00    -0.268 OA
ENDROOT
BRANCH   1  17
ATOM     16  C   UNL     1      -2.907  -8.931   0.565  0.00  0.00    +0.139 C 
ATOM     17  N   UNL     1      -3.303  -8.186  -0.422  0.00  0.00    -0.177 NA
BRANCH  16  21
ATOM     18  C   UNL     1      -2.963 -13.159   0.189  0.00  0.00    +0.030 A 
ATOM     19  C   UNL     1      -2.520 -12.573   1.370  0.00  0.00    +0.024 A 
ATOM     20  C   UNL     1      -2.501 -11.202   1.496  0.00  0.00    +0.011 A 
ATOM     21  C   UNL     1      -2.927 -10.398   0.434  0.00  0.00    -0.005 A 
ATOM     22  C   UNL     1      -3.377 -10.991  -0.749  0.00  0.00    +0.011 A 
ATOM     23  C   UNL     1      -3.388 -12.362  -0.870  0.00  0.00    +0.024 A 
BRANCH  18  24
ATOM     24  N   UNL     1      -2.982 -14.547   0.065  0.00  0.00    -0.330 N 
BRANCH  24  26
ATOM     25  C   UNL     1      -2.265 -15.353  -2.130  0.00  0.00    +0.024 C 
ATOM     26  C   UNL     1      -3.448 -15.166  -1.178  0.00  0.00    +0.102 C 
ENDBRANCH  24  26
BRANCH  24  27
ATOM     27  C   UNL     1      -2.536 -15.388   1.179  0.00  0.00    +0.102 C 
ATOM     28  C   UNL     1      -3.726 -15.709   2.085  0.00  0.00    +0.024 C 
ENDBRANCH  24  27
ENDBRANCH  18  24
ENDBRANCH  16  21
ENDBRANCH   1  17
BRANCH  13  29
ATOM     29  N   UNL     1      -1.393  -0.628   0.029  0.00  0.00    -0.332 N 
ATOM     30  H   UNL     1      -2.173  -0.053  -0.028  0.00  0.00    +0.147 HD
BRANCH  29  31
ATOM     31  C   UNL     1      -0.062  -0.041   0.200  0.00  0.00    +0.101 C 
BRANCH  31  32
ATOM     32  C   UNL     1      -0.193   1.470   0.400  0.00  0.00    +0.186 C 
BRANCH  32  33
ATOM     33  O   UNL     1       1.106   2.042   0.568  0.00  0.00    -0.393 OA
ATOM     34  H   UNL     1       1.100   3.000   0.700  0.00  0.00    +0.209 HD
ENDBRANCH  32  33
ENDBRANCH  31  32
BRANCH  31  35
ATOM     35  C   UNL     1       0.782  -0.320  -1.045  0.00  0.00    +0.186 C 
BRANCH  35  36
ATOM     36  O   UNL     1       0.102   0.173  -2.201  0.00  0.00    -0.393 OA
ATOM     37  H   UNL     1       0.581   0.030  -3.030  0.00  0.00    +0.209 HD
ENDBRANCH  35  36
ENDBRANCH  31  35
BRANCH  31  38
ATOM     38  C   UNL     1       0.615  -0.661   1.424  0.00  0.00    +0.186 C 
BRANCH  38  39
ATOM     39  O   UNL     1      -0.234  -0.512   2.564  0.00  0.00    -0.393 OA
ATOM     40  H   UNL     1       0.132  -0.883   3.379  0.00  0.00    +0.209 HD
ENDBRANCH  38  39
ENDBRANCH  31  38
ENDBRANCH  29  31
ENDBRANCH  13  29
TORSDOF 13
