REMARK  Name = ZINC14162384
REMARK  6 active torsions:
REMARK  status: ('A' for Active; 'I' for Inactive)
REMARK    1  A    between atoms: C_1  and  C_2
REMARK    2  A    between atoms: C_2  and  O_3
REMARK    3  A    between atoms: O_3  and  C_4
REMARK    4  A    between atoms: C_4  and  C_6
REMARK    5  A    between atoms: C_7  and  N_36
REMARK    6  A    between atoms: C_27  and  C_29
REMARK                            x       y       z     vdW  Elec       q    Type
REMARK                         _______ _______ _______ _____ _____    ______ ____
ROOT
ATOM      1  C   UNL     1      -2.373   5.968  -1.979  0.00  0.00    +0.117 C 
ATOM      2  C   UNL     1      -2.399   7.293  -2.284  0.00  0.00    +0.195 C 
ATOM      3  O   UNL     1      -1.285   8.038  -2.246  0.00  0.00    -0.446 OA
ATOM      4  C   UNL     1      -0.075   7.453  -2.327  0.00  0.00    +0.115 C 
ATOM      5  C   UNL     1       0.093   6.149  -2.034  0.00  0.00    +0.057 C 
ATOM      6  C   UNL     1      -1.079   5.309  -1.600  0.00  0.00    +0.142 C 
ATOM      7  C   UNL     1      -1.023   5.033  -0.132  0.00  0.00    +0.001 A 
ATOM      8  C   UNL     1      -1.050   5.819   0.999  0.00  0.00    +0.045 A 
ATOM      9  C   UNL     1      -0.974   5.163   2.228  0.00  0.00    +0.124 A 
ATOM     10  C   UNL     1      -0.877   3.781   2.330  0.00  0.00    +0.044 A 
ATOM     11  C   UNL     1      -0.849   2.994   1.203  0.00  0.00    -0.020 A 
ATOM     12  C   UNL     1      -0.919   3.653  -0.024  0.00  0.00    +0.045 A 
ATOM     13  N   UNL     1      -0.896   3.028  -1.271  0.00  0.00    -0.263 N 
ATOM     14  C   UNL     1      -0.990   3.938  -2.253  0.00  0.00    +0.240 C 
ATOM     15  O   UNL     1      -1.001   3.709  -3.444  0.00  0.00    -0.274 OA
ATOM     16  C   UNL     1      -0.779   1.567  -1.357  0.00  0.00    +0.043 C 
ATOM     17  C   UNL     1      -2.178   0.938  -1.477  0.00  0.00    +0.026 C 
ATOM     18  C   UNL     1      -2.370   0.737  -3.002  0.00  0.00    +0.002 C 
ATOM     19  C   UNL     1      -0.956   0.316  -3.474  0.00  0.00    +0.002 C 
ATOM     20  C   UNL     1       0.000   1.176  -2.619  0.00  0.00    +0.026 C 
ATOM     21  C   UNL     1      -0.070   1.038  -0.111  0.00  0.00    +0.034 C 
ATOM     22  C   UNL     1      -0.760   1.497   1.178  0.00  0.00    +0.020 C 
ATOM     23  C   UNL     1       0.048   1.018   2.385  0.00  0.00    +0.012 C 
ATOM     24  F   UNL     1      -0.995   5.899   3.361  0.00  0.00    -0.205 F 
ATOM     25  C   UNL     1       1.358   5.537  -2.125  0.00  0.00    +0.164 C 
ATOM     26  O   UNL     1       1.474   4.363  -1.836  0.00  0.00    -0.292 OA
ATOM     27  C   UNL     1       2.568   6.310  -2.574  0.00  0.00    +0.080 C 
ATOM     28  C   UNL     1       2.116   7.443  -3.501  0.00  0.00    +0.016 C 
ATOM     29  C   UNL     1       1.097   8.305  -2.752  0.00  0.00    +0.075 C 
ENDROOT
BRANCH   2  30
ATOM     30  N   UNL     1      -3.586   7.877  -2.635  0.00  0.00    -0.329 N 
ATOM     31  H   UNL     1      -4.410   7.367  -2.591  0.00  0.00    +0.145 HD
ATOM     32  H   UNL     1      -3.603   8.802  -2.929  0.00  0.00    +0.145 HD
ENDBRANCH   2  30
BRANCH   1  33
ATOM     33  C   UNL     1      -3.557   5.216  -2.019  0.00  0.00    +0.342 C 
ATOM     34  O   UNL     1      -4.116   4.903  -0.983  0.00  0.00    -0.245 OA
BRANCH  33  35
ATOM     35  O   UNL     1      -4.078   4.839  -3.207  0.00  0.00    -0.462 OA
BRANCH  35  37
ATOM     36  C   UNL     1      -5.826   3.939  -4.613  0.00  0.00    +0.048 C 
ATOM     37  C   UNL     1      -5.344   4.178  -3.180  0.00  0.00    +0.229 C 
ENDBRANCH  35  37
ENDBRANCH  33  35
ENDBRANCH   1  33
TORSDOF 4
