REMARK  Name = ZINC14169392
REMARK  4 active torsions:
REMARK  status: ('A' for Active; 'I' for Inactive)
REMARK    1  A    between atoms: C_10  and  N_12
REMARK    2  A    between atoms: C_13  and  C_15
REMARK    3  A    between atoms: C_15  and  N_48
REMARK    4  A    between atoms: C_20  and  C_22
REMARK                            x       y       z     vdW  Elec       q    Type
REMARK                         _______ _______ _______ _____ _____    ______ ____
ROOT
ATOM      1  N   UNL     1      -4.631   4.378  -2.259  0.00  0.00    -0.310 N 
ATOM      2  C   UNL     1      -3.684   3.617  -1.676  0.00  0.00    +0.197 C 
ATOM      3  O   UNL     1      -3.060   4.046  -0.729  0.00  0.00    -0.278 OA
ATOM      4  H   UNL     1      -5.131   4.035  -3.016  0.00  0.00    +0.149 HD
ENDROOT
BRANCH   1  14
ATOM      5  C   UNL     1      -2.067   8.406  -3.490  0.00  0.00    +0.000 A 
ATOM      6  C   UNL     1      -1.679   7.156  -3.045  0.00  0.00    +0.000 A 
ATOM      7  C   UNL     1      -2.613   6.307  -2.489  0.00  0.00    +0.006 A 
ATOM      8  C   UNL     1      -3.941   6.698  -2.372  0.00  0.00    -0.024 A 
ATOM      9  C   UNL     1      -4.328   7.941  -2.818  0.00  0.00    -0.042 A 
ATOM     10  C   UNL     1      -3.385   8.795  -3.376  0.00  0.00    +0.004 A 
ATOM     11  C   UNL     1      -5.752   8.425  -2.737  0.00  0.00    +0.035 C 
ATOM     12  C   UNL     1      -6.548   7.585  -1.741  0.00  0.00    +0.007 C 
ATOM     13  C   UNL     1      -6.347   6.105  -2.086  0.00  0.00    +0.027 C 
ATOM     14  C   UNL     1      -4.907   5.723  -1.749  0.00  0.00    +0.103 C 
ENDBRANCH   1  14
BRANCH   2  15
ATOM     15  C   UNL     1      -3.401   2.233  -2.200  0.00  0.00    +0.020 C 
BRANCH  15  21
ATOM     16  C   UNL     1      -1.137   2.244  -1.343  0.00  0.00    -0.077 C 
ATOM     17  C   UNL     1      -0.121   1.439  -0.530  0.00  0.00    -0.019 C 
ATOM     18  C   UNL     1      -0.618   1.305   0.911  0.00  0.00    -0.003 C 
ATOM     19  C   UNL     1      -1.996   0.636   0.907  0.00  0.00    -0.006 C 
ATOM     20  C   UNL     1      -2.958   1.464   0.052  0.00  0.00    +0.020 C 
ATOM     21  N   UNL     1      -2.434   1.535  -1.328  0.00  0.00    +0.393 N 
ATOM     22  H   UNL     1      -2.295   0.580  -1.681  0.00  0.00    -0.080 HD
BRANCH  20  23
ATOM     23  C   UNL     1      -4.310   0.798   0.029  0.00  0.00    +0.197 C 
ATOM     24  O   UNL     1      -4.576  -0.004  -0.841  0.00  0.00    -0.278 OA
ATOM     25  N   UNL     1      -5.223   1.095   0.975  0.00  0.00    -0.331 N 
ATOM     26  H   UNL     1      -5.010   1.736   1.671  0.00  0.00    +0.145 HD
ATOM     27  H   UNL     1      -6.093   0.666   0.960  0.00  0.00    +0.145 HD
ENDBRANCH  20  23
ENDBRANCH  15  21
ENDBRANCH   2  15
TORSDOF 4
