REMARK  Name = ZINC12654593
REMARK  12 active torsions:
REMARK  status: ('A' for Active; 'I' for Inactive)
REMARK    1  A    between atoms: C_1  and  N_69
REMARK    2  A    between atoms: C_2  and  N_69
REMARK    3  A    between atoms: C_8  and  O_32
REMARK    4  A    between atoms: C_9  and  O_30
REMARK    5  A    between atoms: C_10  and  O_28
REMARK    6  A    between atoms: C_17  and  N_20
REMARK    7  A    between atoms: N_20  and  C_21
REMARK    8  A    between atoms: C_21  and  C_22
REMARK    9  A    between atoms: C_22  and  N_72
REMARK   10  A    between atoms: O_28  and  C_29
REMARK   11  A    between atoms: O_30  and  C_31
REMARK   12  A    between atoms: O_32  and  C_33
REMARK                            x       y       z     vdW  Elec       q    Type
REMARK                         _______ _______ _______ _____ _____    ______ ____
ROOT
ATOM      1  C   UNL     1       0.957  -0.996   1.049  0.00  0.00    -0.040 C 
ATOM      2  C   UNL     1       0.523  -2.382   1.479  0.00  0.00    -0.007 C 
ATOM      3  C   UNL     1       1.428  -2.924   2.583  0.00  0.00    +0.035 C 
ATOM      4  C   UNL     1       1.677  -1.849   3.610  0.00  0.00    -0.033 A 
ATOM      5  C   UNL     1       1.026  -1.887   4.825  0.00  0.00    +0.054 A 
ATOM      6  C   UNL     1       1.266  -0.901   5.774  0.00  0.00    +0.165 A 
ATOM      7  C   UNL     1       2.163   0.128   5.505  0.00  0.00    +0.204 A 
ATOM      8  C   UNL     1       2.818   0.174   4.282  0.00  0.00    +0.173 A 
ATOM      9  C   UNL     1       2.567  -0.818   3.329  0.00  0.00    +0.031 A 
ATOM     10  C   UNL     1       3.255  -0.762   2.005  0.00  0.00    -0.012 A 
ATOM     11  C   UNL     1       2.459  -0.908   0.869  0.00  0.00    -0.050 A 
ATOM     12  C   UNL     1       2.914  -0.979  -0.394  0.00  0.00    +0.055 A 
ATOM     13  C   UNL     1       4.165  -0.908  -0.937  0.00  0.00    +0.200 A 
ATOM     14  O   UNL     1       4.232  -1.094  -2.144  0.00  0.00    -0.286 OA
ATOM     15  C   UNL     1       5.374  -0.652  -0.295  0.00  0.00    +0.074 A 
ATOM     16  C   UNL     1       5.538  -0.498   1.049  0.00  0.00    +0.027 A 
ATOM     17  C   UNL     1       4.612  -0.563   2.022  0.00  0.00    +0.011 A 
ENDROOT
BRANCH   1  19
ATOM     18  C   UNL     1       0.165   0.793  -0.378  0.00  0.00    -0.100 C 
ATOM     19  N   UNL     1       0.299  -0.669  -0.230  0.00  0.00    +0.382 N 
ATOM     20  H   UNL     1       0.862  -1.037  -1.005  0.00  0.00    -0.085 HD
ATOM     21  H   UNL     1      -0.634  -1.098  -0.250  0.00  0.00    -0.085 HD
ENDBRANCH   1  19
BRANCH  15  22
ATOM     22  N   UNL     1       6.504  -0.545  -1.089  0.00  0.00    -0.343 N 
ATOM     23  H   UNL     1       6.432  -0.648  -2.051  0.00  0.00    +0.146 HD
BRANCH  22  24
ATOM     24  C   UNL     1       7.807  -0.276  -0.476  0.00  0.00    +0.083 C 
BRANCH  24  25
ATOM     25  C   UNL     1       8.879  -0.206  -1.566  0.00  0.00    -0.060 C 
BRANCH  25  31
ATOM     26  C   UNL     1      10.214   1.398  -0.340  0.00  0.00    -0.079 C 
ATOM     27  C   UNL     1      11.533   1.588   0.413  0.00  0.00    -0.019 C 
ATOM     28  C   UNL     1      12.700   1.428  -0.565  0.00  0.00    -0.004 C 
ATOM     29  C   UNL     1      12.620   0.048  -1.223  0.00  0.00    -0.019 C 
ATOM     30  C   UNL     1      11.270  -0.097  -1.929  0.00  0.00    -0.079 C 
ATOM     31  N   UNL     1      10.188   0.043  -0.930  0.00  0.00    +0.381 N 
ATOM     32  H   UNL     1      10.334  -0.647  -0.184  0.00  0.00    -0.082 HD
ENDBRANCH  25  31
ENDBRANCH  24  25
ENDBRANCH  22  24
ENDBRANCH  15  22
BRANCH   8  33
ATOM     33  O   UNL     1       3.696   1.176   4.013  0.00  0.00    -0.491 OA
ATOM     34  C   UNL     1       3.153   2.395   3.502  0.00  0.00    +0.277 C 
ENDBRANCH   8  33
BRANCH   7  35
ATOM     35  O   UNL     1       2.399   1.087   6.441  0.00  0.00    -0.488 OA
ATOM     36  C   UNL     1       3.467   0.849   7.360  0.00  0.00    +0.277 C 
ENDBRANCH   7  35
BRANCH   6  37
ATOM     37  O   UNL     1       0.622  -0.942   6.970  0.00  0.00    -0.491 OA
ATOM     38  C   UNL     1      -0.285  -2.025   7.181  0.00  0.00    +0.277 C 
ENDBRANCH   6  37
TORSDOF 8
