REMARK  Name = ZINC48182260
REMARK  14 active torsions:
REMARK  status: ('A' for Active; 'I' for Inactive)
REMARK    1  A    between atoms: C_1  and  C_2
REMARK    2  A    between atoms: C_4  and  C_25
REMARK    3  A    between atoms: C_7  and  N_8
REMARK    4  A    between atoms: N_11  and  C_12
REMARK    5  A    between atoms: C_12  and  C_13
REMARK    6  A    between atoms: C_13  and  C_15
REMARK    7  A    between atoms: C_13  and  N_18
REMARK    8  A    between atoms: C_15  and  C_16
REMARK    9  A    between atoms: C_15  and  C_17
REMARK   10  A    between atoms: N_18  and  C_19
REMARK   11  A    between atoms: N_18  and  C_22
REMARK   12  A    between atoms: C_19  and  C_20
REMARK   13  A    between atoms: C_22  and  C_23
REMARK   14  A    between atoms: N_27  and  C_28
REMARK                            x       y       z     vdW  Elec       q    Type
REMARK                         _______ _______ _______ _____ _____    ______ ____
ROOT
ATOM      1  N   UNL     1      -1.823   1.183   2.725  0.00  0.00    -0.269 N 
ATOM      2  C   UNL     1      -1.387   0.328   3.671  0.00  0.00    +0.304 C 
ATOM      3  O   UNL     1      -1.098  -0.815   3.372  0.00  0.00    -0.253 OA
ATOM      4  N   UNL     1      -1.270   0.740   4.949  0.00  0.00    -0.301 N 
ATOM      5  H   UNL     1      -1.988   2.112   2.949  0.00  0.00    +0.156 HD
ATOM      6  H   UNL     1      -1.500   1.651   5.188  0.00  0.00    +0.150 HD
ENDROOT
BRANCH   1  13
ATOM      7  C   UNL     1      -3.947   2.350   1.242  0.00  0.00    +0.045 C 
ATOM      8  C   UNL     1      -3.066   1.275   0.660  0.00  0.00    -0.028 A 
ATOM      9  C   UNL     1      -3.276   0.836  -0.628  0.00  0.00    +0.018 A 
ATOM     10  C   UNL     1      -2.458  -0.161  -1.167  0.00  0.00    +0.037 A 
ATOM     11  C   UNL     1      -1.429  -0.709  -0.396  0.00  0.00    +0.015 A 
ATOM     12  C   UNL     1      -1.224  -0.265   0.891  0.00  0.00    +0.024 A 
ATOM     13  C   UNL     1      -2.037   0.732   1.423  0.00  0.00    +0.038 A 
BRANCH  10  14
ATOM     14  C   UNL     1      -2.681  -0.634  -2.546  0.00  0.00    +0.244 C 
ATOM     15  O   UNL     1      -3.577  -0.157  -3.216  0.00  0.00    -0.270 OA
ATOM     16  N   UNL     1      -1.892  -1.596  -3.065  0.00  0.00    -0.314 N 
ATOM     17  C   UNL     1      -2.113  -2.066  -4.435  0.00  0.00    +0.128 C 
ATOM     18  H   UNL     1      -1.177  -1.976  -2.531  0.00  0.00    +0.149 HD
ENDBRANCH  10  14
ENDBRANCH   1  13
BRANCH   4  19
ATOM     19  C   UNL     1      -0.795  -0.189   5.977  0.00  0.00    +0.091 C 
BRANCH  19  20
ATOM     20  C   UNL     1      -0.573   0.570   7.287  0.00  0.00    -0.048 C 
BRANCH  20  21
ATOM     21  C   UNL     1      -0.304  -0.428   8.415  0.00  0.00    -0.029 C 
ATOM     22  C   UNL     1      -0.126   0.329   9.733  0.00  0.00    +0.005 C 
ATOM     23  C   UNL     1      -1.486  -1.391   8.537  0.00  0.00    +0.005 C 
ENDBRANCH  20  21
BRANCH  20  24
ATOM     24  N   UNL     1       0.581   1.468   7.143  0.00  0.00    +0.387 N 
ATOM     25  H   UNL     1       0.798   1.883   8.036  0.00  0.00    -0.080 HD
BRANCH  24  26
ATOM     26  C   UNL     1       1.740   0.703   6.664  0.00  0.00    -0.051 C 
BRANCH  26  27
ATOM     27  C   UNL     1       2.973   1.567   6.727  0.00  0.00    -0.053 C 
ATOM     28  C   UNL     1       3.998   1.193   7.452  0.00  0.00    +0.002 C 
ENDBRANCH  26  27
ENDBRANCH  24  26
BRANCH  24  29
ATOM     29  C   UNL     1       0.259   2.526   6.176  0.00  0.00    -0.051 C 
BRANCH  29  30
ATOM     30  C   UNL     1       1.331   3.585   6.215  0.00  0.00    -0.053 C 
ATOM     31  C   UNL     1       1.948   3.933   5.113  0.00  0.00    +0.002 C 
ENDBRANCH  29  30
ENDBRANCH  24  29
ENDBRANCH  20  24
ENDBRANCH  19  20
ENDBRANCH   4  19
TORSDOF 10
