REMARK  Name = ZINC22010492
REMARK  6 active torsions:
REMARK  status: ('A' for Active; 'I' for Inactive)
REMARK    1  A    between atoms: C_1  and  C_2
REMARK    2  A    between atoms: C_2  and  C_4
REMARK    3  A    between atoms: C_2  and  N_18
REMARK    4  A    between atoms: N_10  and  C_11
REMARK    5  A    between atoms: N_21  and  S_24
REMARK    6  A    between atoms: S_24  and  C_27
REMARK                            x       y       z     vdW  Elec       q    Type
REMARK                         _______ _______ _______ _____ _____    ______ ____
ROOT
ATOM      1  C   UNL     1      -2.007   1.706   0.383  0.00  0.00    -0.005 C 
ATOM      2  C   UNL     1      -0.501   1.939   0.519  0.00  0.00    -0.002 C 
ENDROOT
BRANCH   2   3
ATOM      3  C   UNL     1       0.011   1.216   1.739  0.00  0.00    +0.123 A 
ATOM      4  N   UNL     1      -0.225   1.707   2.943  0.00  0.00    -0.201 NA
ATOM      5  C   UNL     1       0.226   1.071   4.022  0.00  0.00    +0.217 A 
ATOM      6  N   UNL     1       0.912  -0.059   3.888  0.00  0.00    -0.181 NA
ATOM      7  C   UNL     1       1.147  -0.549   2.675  0.00  0.00    +0.224 A 
ATOM      8  N   UNL     1       0.689   0.090   1.601  0.00  0.00    -0.201 NA
ATOM      9  N   UNL     1       1.860  -1.722   2.530  0.00  0.00    -0.284 N 
ATOM     10  N   UNL     1      -0.020   1.585   5.279  0.00  0.00    -0.327 N 
ATOM     11  H   UNL     1       1.972  -2.179   1.536  0.00  0.00    +0.155 HD
ATOM     12  H   UNL     1       0.352   1.058   6.171  0.00  0.00    +0.145 HD
ATOM     13  H   UNL     1      -0.588   2.520   5.390  0.00  0.00    +0.145 HD
BRANCH   9  14
ATOM     14  C   UNL     1       2.441  -2.331   3.648  0.00  0.00    +0.034 A 
ATOM     15  C   UNL     1       2.994  -1.551   4.655  0.00  0.00    +0.023 A 
ATOM     16  C   UNL     1       3.562  -2.155   5.760  0.00  0.00    +0.002 A 
ATOM     17  C   UNL     1       3.590  -3.534   5.859  0.00  0.00    +0.000 A 
ATOM     18  C   UNL     1       3.045  -4.313   4.854  0.00  0.00    +0.002 A 
ATOM     19  C   UNL     1       2.470  -3.716   3.749  0.00  0.00    +0.023 A 
ENDBRANCH   9  14
ENDBRANCH   2   3
BRANCH   2  20
ATOM     20  N   UNL     1      -0.238   3.378   0.657  0.00  0.00    +0.388 N 
ATOM     21  C   UNL     1      -0.766   4.122  -0.494  0.00  0.00    -0.060 C 
ATOM     22  C   UNL     1      -0.635   5.626  -0.229  0.00  0.00    +0.091 C 
ATOM     23  N   UNL     1       0.764   5.920   0.112  0.00  0.00    -0.180 NA
ATOM     24  C   UNL     1       1.407   5.119   1.165  0.00  0.00    +0.091 C 
ATOM     25  C   UNL     1       1.196   3.635   0.846  0.00  0.00    -0.060 C 
ATOM     26  H   UNL     1      -0.763   3.735   1.556  0.00  0.00    -0.081 HD
BRANCH  23  27
ATOM     27  S   UNL     1       1.595   7.121  -0.668  0.00  0.00    +0.061 S 
ATOM     28  O   UNL     1       0.623   8.028  -1.169  0.00  0.00    -0.153 OA
ATOM     29  O   UNL     1       2.638   7.529   0.207  0.00  0.00    -0.153 OA
BRANCH  27  30
ATOM     30  C   UNL     1       2.372   6.391  -2.071  0.00  0.00    +0.106 A 
ATOM     31  C   UNL     1       3.648   5.870  -1.960  0.00  0.00    +0.031 A 
ATOM     32  C   UNL     1       4.256   5.293  -3.059  0.00  0.00    +0.040 A 
ATOM     33  C   UNL     1       3.592   5.246  -4.273  0.00  0.00    +0.124 A 
ATOM     34  C   UNL     1       2.317   5.773  -4.383  0.00  0.00    +0.040 A 
ATOM     35  C   UNL     1       1.708   6.345  -3.282  0.00  0.00    +0.031 A 
ATOM     36  F   UNL     1       4.188   4.686  -5.348  0.00  0.00    -0.205 F 
ENDBRANCH  27  30
ENDBRANCH  23  27
ENDBRANCH   2  20
TORSDOF 5
