REMARK  Name = ZINC63182734
REMARK  9 active torsions:
REMARK  status: ('A' for Active; 'I' for Inactive)
REMARK    1  A    between atoms: C_1  and  C_2
REMARK    2  A    between atoms: C_5  and  N_12
REMARK    3  A    between atoms: C_7  and  S_8
REMARK    4  A    between atoms: S_8  and  N_11
REMARK    5  A    between atoms: C_13  and  C_15
REMARK    6  A    between atoms: C_15  and  C_17
REMARK    7  A    between atoms: C_15  and  N_27
REMARK    8  A    between atoms: C_17  and  C_18
REMARK    9  A    between atoms: C_28  and  C_30
REMARK                            x       y       z     vdW  Elec       q    Type
REMARK                         _______ _______ _______ _____ _____    ______ ____
ROOT
ATOM      1  C   UNL     1      -0.134  -6.343  -1.187  0.00  0.00    +0.163 C 
ENDROOT
BRANCH   1   3
ATOM      2  N   UNL     1       0.059  -4.170  -0.021  0.00  0.00    -0.284 N 
ATOM      3  C   UNL     1      -0.040  -4.839  -1.187  0.00  0.00    +0.238 C 
ATOM      4  O   UNL     1      -0.054  -4.230  -2.236  0.00  0.00    -0.273 OA
ATOM      5  H   UNL     1       0.137  -4.658   0.813  0.00  0.00    +0.155 HD
BRANCH   2  10
ATOM      6  C   UNL     1       0.017   1.503   0.008  0.00  0.00    +0.046 C 
ATOM      7  C   UNL     1       0.028  -0.004   0.001  0.00  0.00    -0.024 A 
ATOM      8  C   UNL     1      -0.566  -0.704   1.035  0.00  0.00    +0.007 A 
ATOM      9  C   UNL     1      -0.558  -2.084   1.031  0.00  0.00    +0.023 A 
ATOM     10  C   UNL     1       0.048  -2.771  -0.014  0.00  0.00    +0.035 A 
ATOM     11  C   UNL     1       0.643  -2.065  -1.051  0.00  0.00    +0.052 A 
ATOM     12  C   UNL     1       0.627  -0.684  -1.044  0.00  0.00    +0.110 A 
BRANCH  12  13
ATOM     13  S   UNL     1       1.377   0.212  -2.363  0.00  0.00    +0.056 S 
ATOM     14  O   UNL     1       2.211   1.194  -1.764  0.00  0.00    -0.153 OA
ATOM     15  O   UNL     1       1.873  -0.753  -3.279  0.00  0.00    -0.153 OA
BRANCH  13  16
ATOM     16  N   UNL     1       0.169   1.032  -3.146  0.00  0.00    -0.204 NA
ATOM     17  H   UNL     1       0.361   1.876  -3.583  0.00  0.00    +0.144 HD
ATOM     18  H   UNL     1      -0.729   0.667  -3.167  0.00  0.00    +0.144 HD
ENDBRANCH  13  16
ENDBRANCH  12  13
ENDBRANCH   2  10
ENDBRANCH   1   3
BRANCH   1  19
ATOM     19  N   UNL     1       0.243  -6.855  -2.507  0.00  0.00    -0.299 N 
ATOM     20  C   UNL     1      -0.456  -6.485  -3.598  0.00  0.00    +0.251 C 
ATOM     21  O   UNL     1      -1.400  -5.726  -3.487  0.00  0.00    -0.270 OA
ATOM     22  H   UNL     1       0.996  -7.461  -2.595  0.00  0.00    +0.150 HD
BRANCH  20  23
ATOM     23  C   UNL     1      -0.078  -6.998  -4.918  0.00  0.00    +0.074 A 
ATOM     24  C   UNL     1      -0.654  -6.741  -6.153  0.00  0.00    +0.021 A 
ATOM     25  C   UNL     1      -0.074  -7.375  -7.226  0.00  0.00    +0.008 A 
ATOM     26  C   UNL     1       0.991  -8.186  -7.015  0.00  0.00    +0.046 A 
ATOM     27  S   UNL     1       1.245  -8.109  -5.356  0.00  0.00    -0.092 S 
ENDBRANCH  20  23
ENDBRANCH   1  19
BRANCH   1  28
ATOM     28  C   UNL     1      -1.570  -6.764  -0.867  0.00  0.00    +0.065 C 
BRANCH  28  29
ATOM     29  C   UNL     1      -1.637  -8.265  -0.746  0.00  0.00    -0.039 C 
ATOM     30  C   UNL     1      -1.559  -8.994   0.391  0.00  0.00    -0.001 A 
ATOM     31  C   UNL     1      -1.393  -8.621   1.801  0.00  0.00    +0.010 A 
ATOM     32  C   UNL     1      -1.348  -9.597   2.736  0.00  0.00    +0.001 A 
ATOM     33  C   UNL     1      -1.456 -10.952   2.393  0.00  0.00    +0.002 A 
ATOM     34  C   UNL     1      -1.610 -11.372   1.119  0.00  0.00    +0.026 A 
ATOM     35  C   UNL     1      -1.671 -10.431   0.055  0.00  0.00    +0.043 A 
ATOM     36  N   UNL     1      -1.813 -10.585  -1.239  0.00  0.00    -0.380 N 
ATOM     37  C   UNL     1      -1.813  -9.261  -1.871  0.00  0.00    +0.144 C 
ATOM     38  H   UNL     1      -1.906 -11.433  -1.702  0.00  0.00    +0.160 HD
ENDBRANCH  28  29
ENDBRANCH   1  28
TORSDOF 8
