REMARK  Name = ZINC50441527
REMARK  9 active torsions:
REMARK  status: ('A' for Active; 'I' for Inactive)
REMARK    1  A    between atoms: C_1  and  C_2
REMARK    2  A    between atoms: C_2  and  C_3
REMARK    3  A    between atoms: C_2  and  C_17
REMARK    4  A    between atoms: C_2  and  N_20
REMARK    5  A    between atoms: C_3  and  C_4
REMARK    6  A    between atoms: C_4  and  O_5
REMARK    7  A    between atoms: O_5  and  C_6
REMARK    8  A    between atoms: C_9  and  N_13
REMARK    9  A    between atoms: N_20  and  C_21
REMARK                            x       y       z     vdW  Elec       q    Type
REMARK                         _______ _______ _______ _____ _____    ______ ____
ROOT
ATOM      1  C   UNL     1       0.026  -0.018   2.500  0.00  0.00    +0.228 C 
ENDROOT
BRANCH   1   2
ATOM      2  C   UNL     1       0.742  -0.511   1.242  0.00  0.00    +0.037 C 
BRANCH   2   4
ATOM      3  C   UNL     1      -0.019   1.526   0.010  0.00  0.00    -0.001 C 
ATOM      4  C   UNL     1       0.002  -0.004   0.002  0.00  0.00    +0.010 C 
BRANCH   4   5
ATOM      5  C   UNL     1      -1.412  -0.526   0.013  0.00  0.00    +0.199 C 
ATOM      6  O   UNL     1      -2.306   0.155   0.469  0.00  0.00    -0.278 OA
ATOM      7  N   UNL     1      -1.683  -1.749  -0.485  0.00  0.00    -0.330 N 
ATOM      8  H   UNL     1      -0.968  -2.293  -0.849  0.00  0.00    +0.145 HD
ATOM      9  H   UNL     1      -2.593  -2.084  -0.478  0.00  0.00    +0.145 HD
ENDBRANCH   4   5
BRANCH   4  10
ATOM     10  N   UNL     1       0.690  -0.478  -1.207  0.00  0.00    +0.387 N 
ATOM     11  C   UNL     1      -0.021   0.009  -2.397  0.00  0.00    -0.099 C 
ATOM     12  H   UNL     1       1.636  -0.129  -1.214  0.00  0.00    -0.085 HD
ATOM     13  H   UNL     1       0.703  -1.487  -1.212  0.00  0.00    -0.085 HD
ENDBRANCH   4  10
ENDBRANCH   2   4
ENDBRANCH   1   2
BRANCH   1  14
ATOM     14  O   UNL     1       0.717  -0.491   3.658  0.00  0.00    -0.490 OA
BRANCH  14  15
ATOM     15  C   UNL     1       0.207  -0.139   4.868  0.00  0.00    +0.148 A 
ATOM     16  C   UNL     1       0.622   1.034   5.483  0.00  0.00    +0.063 A 
ATOM     17  C   UNL     1       0.102   1.389   6.713  0.00  0.00    +0.051 A 
ATOM     18  C   UNL     1      -0.831   0.577   7.331  0.00  0.00    +0.129 A 
ATOM     19  C   UNL     1      -1.247  -0.592   6.721  0.00  0.00    +0.051 A 
ATOM     20  C   UNL     1      -0.734  -0.949   5.488  0.00  0.00    +0.063 A 
ATOM     21 BR   UNL     1      -1.308  -2.544   4.650  0.00  0.00    -0.046 Br
ATOM     22 BR   UNL     1       1.899   2.144   4.639  0.00  0.00    -0.046 Br
BRANCH  18  23
ATOM     23  N   UNL     1      -1.386   0.960   8.649  0.00  0.00    +0.056 N 
ATOM     24  O   UNL     1      -1.024   1.982   9.184  0.00  0.00    -0.126 OA
ATOM     25  O   UNL     1      -2.202   0.251   9.191  0.00  0.00    -0.126 OA
ENDBRANCH  18  23
ENDBRANCH  14  15
ENDBRANCH   1  14
TORSDOF 7
