REMARK  Name = ZINC06646113
REMARK  4 active torsions:
REMARK  status: ('A' for Active; 'I' for Inactive)
REMARK    1  A    between atoms: C_1  and  O_2
REMARK    2  A    between atoms: O_2  and  C_3
REMARK    3  A    between atoms: C_6  and  C_9
REMARK    4  A    between atoms: C_9  and  C_11
REMARK                            x       y       z     vdW  Elec       q    Type
REMARK                         _______ _______ _______ _____ _____    ______ ____
ROOT
ATOM      1  C   UNL     1       2.683  -0.899   6.150  0.00  0.00    +0.152 C 
ATOM      2  C   UNL     1       2.243  -2.321   5.727  0.00  0.00    +0.061 C 
ATOM      3  C   UNL     1       3.078  -2.793   4.550  0.00  0.00    +0.153 C 
ATOM      4  C   UNL     1       2.675  -4.244   4.199  0.00  0.00    +0.195 C 
ATOM      5  O   UNL     1       3.581  -5.083   4.906  0.00  0.00    -0.342 OA
ATOM      6  C   UNL     1       4.439  -4.199   5.652  0.00  0.00    +0.319 C 
ATOM      7  O   UNL     1       4.448  -2.949   4.921  0.00  0.00    -0.339 OA
ATOM      8  C   UNL     1       3.760  -3.898   6.973  0.00  0.00    +0.194 C 
ATOM      9  O   UNL     1       4.285  -4.216   8.013  0.00  0.00    -0.292 OA
ATOM     10  C   UNL     1       2.428  -3.200   6.979  0.00  0.00    +0.092 C 
ATOM     11  C   UNL     1       2.399  -2.156   8.112  0.00  0.00    +0.108 C 
ATOM     12  N   UNL     1       3.172  -1.032   7.519  0.00  0.00    -0.312 N 
ATOM     13  C   UNL     1       3.143   0.051   8.362  0.00  0.00    +0.038 A 
ATOM     14  C   UNL     1       2.935   1.349   7.938  0.00  0.00    +0.024 A 
ATOM     15  C   UNL     1       2.904   2.379   8.861  0.00  0.00    +0.002 A 
ATOM     16  C   UNL     1       3.080   2.121  10.209  0.00  0.00    +0.001 A 
ATOM     17  C   UNL     1       3.292   0.829  10.652  0.00  0.00    +0.010 A 
ATOM     18  C   UNL     1       3.329  -0.214   9.737  0.00  0.00    -0.004 A 
ATOM     19  C   UNL     1       3.560  -1.615  10.163  0.00  0.00    +0.007 C 
ATOM     20  C   UNL     1       3.101  -2.594   9.362  0.00  0.00    -0.003 C 
ENDROOT
BRANCH   1  21
ATOM     21  C   UNL     1       1.510   0.045   6.104  0.00  0.00    +0.184 C 
ATOM     22  O   UNL     1       0.836   0.223   7.097  0.00  0.00    -0.290 OA
BRANCH  21  26
ATOM     23  C   UNL     1       0.565   2.077   2.510  0.00  0.00    +0.120 A 
ATOM     24  C   UNL     1       1.708   1.289   2.581  0.00  0.00    +0.046 A 
ATOM     25  C   UNL     1       2.022   0.634   3.744  0.00  0.00    +0.015 A 
ATOM     26  C   UNL     1       1.182   0.750   4.858  0.00  0.00    +0.020 A 
ATOM     27  C   UNL     1       0.029   1.541   4.781  0.00  0.00    +0.015 A 
ATOM     28  C   UNL     1      -0.273   2.196   3.615  0.00  0.00    +0.046 A 
BRANCH  23  30
ATOM     29  C   UNL     1       1.164   2.562   0.264  0.00  0.00    +0.277 C 
ATOM     30  O   UNL     1       0.262   2.728   1.359  0.00  0.00    -0.495 OA
ENDBRANCH  23  30
ENDBRANCH  21  26
ENDBRANCH   1  21
TORSDOF 3
