REMARK  Name = ZINC20454994
REMARK  6 active torsions:
REMARK  status: ('A' for Active; 'I' for Inactive)
REMARK    1  A    between atoms: C_3  and  C_6
REMARK    2  A    between atoms: C_6  and  N_7
REMARK    3  A    between atoms: C_8  and  C_10
REMARK    4  A    between atoms: C_13  and  C_18
REMARK    5  A    between atoms: C_18  and  N_19
REMARK    6  A    between atoms: N_22  and  C_25
REMARK                            x       y       z     vdW  Elec       q    Type
REMARK                         _______ _______ _______ _____ _____    ______ ____
ROOT
ATOM      1  C   UNL     1      -2.626   1.932  -5.733  0.00  0.00    +0.101 A 
ATOM      2  C   UNL     1      -1.357   2.502  -5.656  0.00  0.00    +0.020 A 
ATOM      3  C   UNL     1      -0.548   2.205  -4.559  0.00  0.00    +0.023 A 
ATOM      4  C   UNL     1      -0.995   1.365  -3.591  0.00  0.00    +0.033 A 
ATOM      5  N   UNL     1      -2.227   0.807  -3.659  0.00  0.00    -0.324 N 
ATOM      6  H   UNL     1      -2.570   0.133  -2.861  0.00  0.00    +0.169 HD
ATOM      7  C   UNL     1      -3.050   1.064  -4.693  0.00  0.00    +0.261 A 
ATOM      8  O   UNL     1      -4.156   0.553  -4.737  0.00  0.00    -0.267 OA
ENDROOT
BRANCH   1  10
ATOM      9  N   UNL     1      -4.686   1.578  -6.994  0.00  0.00    -0.307 N 
ATOM     10  C   UNL     1      -3.510   2.225  -6.871  0.00  0.00    +0.250 C 
ATOM     11  O   UNL     1      -3.181   3.052  -7.700  0.00  0.00    -0.270 OA
ATOM     12  H   UNL     1      -5.023   0.893  -6.202  0.00  0.00    +0.149 HD
BRANCH   9  13
ATOM     13  C   UNL     1      -5.516   1.787  -8.184  0.00  0.00    +0.147 C 
BRANCH  13  16
ATOM     14  C   UNL     1      -8.984   0.346  -7.546  0.00  0.00    +0.008 A 
ATOM     15  C   UNL     1      -7.964   1.278  -7.529  0.00  0.00    +0.013 A 
ATOM     16  C   UNL     1      -6.767   0.954  -8.076  0.00  0.00    +0.007 A 
ATOM     17  S   UNL     1      -7.055  -0.719  -8.630  0.00  0.00    -0.100 S 
ATOM     18  C   UNL     1      -8.754  -0.870  -8.100  0.00  0.00    +0.045 A 
ENDBRANCH  13  16
ENDBRANCH   9  13
ENDBRANCH   1  10
BRANCH   4  19
ATOM     19  C   UNL     1      -0.105   1.051  -2.416  0.00  0.00    +0.137 C 
BRANCH  19  20
ATOM     20  N   UNL     1      -0.710   1.584  -1.188  0.00  0.00    -0.300 NA
ATOM     21  C   UNL     1       0.001   1.097   0.003  0.00  0.00    +0.066 C 
ATOM     22  C   UNL     1      -0.706   1.609   1.261  0.00  0.00    -0.062 C 
ATOM     23  N   UNL     1      -0.743   3.078   1.236  0.00  0.00    +0.385 N 
ATOM     24  C   UNL     1      -1.454   3.564   0.045  0.00  0.00    -0.062 C 
ATOM     25  C   UNL     1      -0.746   3.053  -1.212  0.00  0.00    +0.066 C 
ATOM     26  H   UNL     1       0.294   3.442   1.185  0.00  0.00    -0.081 HD
BRANCH  23  27
ATOM     27  C   UNL     1      -1.348   3.610   2.464  0.00  0.00    -0.065 C 
ATOM     28  C   UNL     1      -1.282   5.138   2.443  0.00  0.00    -0.009 C 
ATOM     29  C   UNL     1      -1.912   5.693   3.723  0.00  0.00    -0.012 C 
ATOM     30  C   UNL     1      -1.147   5.166   4.938  0.00  0.00    +0.007 C 
ATOM     31  C   UNL     1      -1.213   3.637   4.958  0.00  0.00    -0.012 C 
ATOM     32  C   UNL     1      -0.583   3.083   3.679  0.00  0.00    -0.009 C 
ATOM     33  C   UNL     1      -2.674   3.191   5.043  0.00  0.00    +0.007 C 
ATOM     34  C   UNL     1      -3.439   3.718   3.827  0.00  0.00    -0.012 C 
ATOM     35  C   UNL     1      -3.373   5.247   3.807  0.00  0.00    +0.007 C 
ATOM     36  C   UNL     1      -2.809   3.164   2.548  0.00  0.00    -0.009 C 
ENDBRANCH  23  27
ENDBRANCH  19  20
ENDBRANCH   4  19
TORSDOF 6
