REMARK  Name = ZINC35577218
REMARK  5 active torsions:
REMARK  status: ('A' for Active; 'I' for Inactive)
REMARK    1  A    between atoms: C_1  and  O_2
REMARK    2  A    between atoms: O_2  and  C_3
REMARK    3  A    between atoms: C_6  and  N_9
REMARK    4  A    between atoms: C_10  and  N_32
REMARK    5  A    between atoms: C_12  and  C_25
REMARK                            x       y       z     vdW  Elec       q    Type
REMARK                         _______ _______ _______ _____ _____    ______ ____
ROOT
ATOM      1  N   UNL     1      -5.066  -2.452  -0.307  0.00  0.00    -0.216 N 
ATOM      2  C   UNL     1      -5.219  -3.741  -0.665  0.00  0.00    +0.131 A 
ATOM      3  C   UNL     1      -6.417  -4.187  -0.119  0.00  0.00    +0.086 A 
ATOM      4  C   UNL     1      -7.139  -5.402  -0.118  0.00  0.00    +0.089 A 
ATOM      5  N   UNL     1      -8.291  -5.448   0.539  0.00  0.00    -0.214 NA
ATOM      6  C   UNL     1      -8.777  -4.395   1.189  0.00  0.00    +0.220 A 
ATOM      7  N   UNL     1      -8.171  -3.227   1.240  0.00  0.00    -0.193 NA
ATOM      8  C   UNL     1      -6.992  -3.045   0.614  0.00  0.00    +0.189 A 
ATOM      9  N   UNL     1      -6.151  -2.043   0.477  0.00  0.00    -0.144 NA
ATOM     10  N   UNL     1      -9.986  -4.534   1.847  0.00  0.00    -0.301 N 
ATOM     11  C   UNL     1     -10.674  -5.840   1.803  0.00  0.00    +0.106 C 
ATOM     12  C   UNL     1     -11.270  -6.198   3.177  0.00  0.00    -0.000 C 
ATOM     13  C   UNL     1     -10.302  -5.794   4.266  0.00  0.00    -0.081 C 
ATOM     14  N   UNL     1     -10.639  -4.452   4.738  0.00  0.00    +0.380 N 
ATOM     15  C   UNL     1     -10.032  -3.398   4.019  0.00  0.00    -0.063 C 
ATOM     16  C   UNL     1     -10.528  -3.395   2.559  0.00  0.00    +0.089 C 
ATOM     17  H   UNL     1     -11.640  -4.338   4.686  0.00  0.00    -0.086 HD
ATOM     18  H   UNL     1     -10.364  -4.377   5.706  0.00  0.00    -0.086 HD
ENDROOT
BRANCH   4  19
ATOM     19  C   UNL     1      -6.624  -6.591  -0.833  0.00  0.00    +0.001 A 
ATOM     20  C   UNL     1      -5.290  -6.973  -0.687  0.00  0.00    +0.011 A 
ATOM     21  C   UNL     1      -4.816  -8.082  -1.355  0.00  0.00    +0.020 A 
ATOM     22  C   UNL     1      -5.661  -8.817  -2.170  0.00  0.00    +0.041 A 
ATOM     23  C   UNL     1      -6.986  -8.443  -2.319  0.00  0.00    +0.020 A 
ATOM     24  C   UNL     1      -7.472  -7.339  -1.651  0.00  0.00    +0.011 A 
ATOM     25 CL   UNL     1      -5.057 -10.212  -3.008  0.00  0.00    -0.084 Cl
ENDBRANCH   4  19
BRANCH   1  29
ATOM     26  C   UNL     1      -1.830  -0.042  -1.360  0.00  0.00    +0.120 A 
ATOM     27  C   UNL     1      -3.100   0.508  -1.256  0.00  0.00    +0.048 A 
ATOM     28  C   UNL     1      -4.171  -0.289  -0.907  0.00  0.00    +0.031 A 
ATOM     29  C   UNL     1      -3.979  -1.642  -0.661  0.00  0.00    +0.068 A 
ATOM     30  C   UNL     1      -2.708  -2.192  -0.766  0.00  0.00    +0.031 A 
ATOM     31  C   UNL     1      -1.638  -1.395  -1.119  0.00  0.00    +0.048 A 
BRANCH  26  33
ATOM     32  C   UNL     1      -1.045   2.128  -1.935  0.00  0.00    +0.277 C 
ATOM     33  O   UNL     1      -0.775   0.744  -1.702  0.00  0.00    -0.495 OA
ENDBRANCH  26  33
ENDBRANCH   1  29
BRANCH   2  34
ATOM     34  N   UNL     1      -4.345  -4.485  -1.435  0.00  0.00    -0.342 N 
ATOM     35  H   UNL     1      -3.460  -4.141  -1.633  0.00  0.00    +0.144 HD
ATOM     36  H   UNL     1      -4.616  -5.352  -1.776  0.00  0.00    +0.144 HD
ENDBRANCH   2  34
TORSDOF 4
