REMARK  Name = ZINC65965695
REMARK  6 active torsions:
REMARK  status: ('A' for Active; 'I' for Inactive)
REMARK    1  A    between atoms: C_6  and  C_7
REMARK    2  A    between atoms: C_7  and  C_8
REMARK    3  A    between atoms: C_7  and  O_24
REMARK    4  A    between atoms: C_8  and  N_9
REMARK    5  A    between atoms: C_13  and  C_15
REMARK    6  A    between atoms: N_17  and  C_18
REMARK                            x       y       z     vdW  Elec       q    Type
REMARK                         _______ _______ _______ _____ _____    ______ ____
ROOT
ATOM      1  N   UNL     1      -2.959  -1.833  -1.319  0.00  0.00    +0.382 N 
ATOM      2  C   UNL     1      -2.927  -2.980  -0.403  0.00  0.00    -0.079 C 
ATOM      3  C   UNL     1      -4.338  -3.548  -0.242  0.00  0.00    -0.018 C 
ATOM      4  C   UNL     1      -4.860  -4.000  -1.609  0.00  0.00    +0.009 C 
ATOM      5  C   UNL     1      -4.819  -2.814  -2.577  0.00  0.00    +0.058 C 
ATOM      6  C   UNL     1      -3.390  -2.273  -2.652  0.00  0.00    -0.066 C 
ATOM      7  H   UNL     1      -3.606  -1.143  -0.968  0.00  0.00    -0.082 HD
ENDROOT
BRANCH   5   8
ATOM      8  C   UNL     1      -5.258  -3.267  -3.946  0.00  0.00    +0.215 C 
ATOM      9  O   UNL     1      -4.503  -3.162  -4.890  0.00  0.00    -0.276 OA
ATOM     10  N   UNL     1      -6.489  -3.787  -4.121  0.00  0.00    -0.312 N 
ATOM     11  H   UNL     1      -7.092  -3.870  -3.366  0.00  0.00    +0.149 HD
BRANCH  10  12
ATOM     12  C   UNL     1      -6.915  -4.227  -5.452  0.00  0.00    +0.073 C 
ATOM     13  C   UNL     1      -7.469  -3.032  -6.231  0.00  0.00    +0.022 C 
ATOM     14  C   UNL     1      -7.915  -3.492  -7.620  0.00  0.00    +0.002 C 
ATOM     15  C   UNL     1      -9.003  -4.559  -7.481  0.00  0.00    +0.000 C 
ATOM     16  C   UNL     1      -8.448  -5.753  -6.702  0.00  0.00    +0.002 C 
ATOM     17  C   UNL     1      -8.003  -5.294  -5.312  0.00  0.00    +0.022 C 
ENDBRANCH  10  12
ENDBRANCH   5   8
BRANCH   1  18
ATOM     18  C   UNL     1      -1.617  -1.243  -1.410  0.00  0.00    -0.042 C 
BRANCH  18  19
ATOM     19  C   UNL     1      -1.680   0.044  -2.235  0.00  0.00    +0.128 C 
BRANCH  19  25
ATOM     20  C   UNL     1       0.447   0.449  -3.489  0.00  0.00    +0.009 A 
ATOM     21  C   UNL     1       1.713   0.995  -3.589  0.00  0.00    +0.039 A 
ATOM     22  C   UNL     1       2.232   1.735  -2.539  0.00  0.00    +0.123 A 
ATOM     23  C   UNL     1       1.482   1.926  -1.391  0.00  0.00    +0.039 A 
ATOM     24  C   UNL     1       0.216   1.378  -1.294  0.00  0.00    +0.009 A 
ATOM     25  C   UNL     1      -0.300   0.640  -2.342  0.00  0.00    -0.021 A 
ATOM     26  F   UNL     1       3.469   2.269  -2.635  0.00  0.00    -0.205 F 
ENDBRANCH  19  25
BRANCH  19  27
ATOM     27  O   UNL     1      -2.554   0.977  -1.596  0.00  0.00    -0.389 OA
ATOM     28  H   UNL     1      -2.280   1.224  -0.702  0.00  0.00    +0.210 HD
ENDBRANCH  19  27
ENDBRANCH  18  19
ENDBRANCH   1  18
TORSDOF 6
