REMARK  Name = ZINC01424180
REMARK  9 active torsions:
REMARK  status: ('A' for Active; 'I' for Inactive)
REMARK    1  A    between atoms: C_1  and  O_2
REMARK    2  A    between atoms: O_2  and  C_3
REMARK    3  A    between atoms: C_3  and  C_5
REMARK    4  A    between atoms: C_10  and  C_15
REMARK    5  A    between atoms: C_13  and  N_14
REMARK    6  A    between atoms: C_22  and  C_26
REMARK    7  A    between atoms: C_23  and  N_25
REMARK    8  A    between atoms: C_26  and  O_28
REMARK    9  A    between atoms: O_28  and  C_29
REMARK                            x       y       z     vdW  Elec       q    Type
REMARK                         _______ _______ _______ _____ _____    ______ ____
ROOT
ATOM      1  C   UNL     1      -1.056  -1.038   0.006  0.00  0.00    +0.127 A 
ATOM      2  C   UNL     1       0.002  -0.004   0.002  0.00  0.00    +0.040 A 
ATOM      3  C   UNL     1      -0.017   1.386   0.010  0.00  0.00    +0.059 A 
ATOM      4  C   UNL     1       1.173   2.097   0.002  0.00  0.00    +0.140 A 
ATOM      5  C   UNL     1       2.392   1.403  -0.013  0.00  0.00    +0.047 A 
ATOM      6  C   UNL     1       2.418   0.003  -0.021  0.00  0.00    +0.037 A 
ATOM      7  C   UNL     1       1.214  -0.708  -0.013  0.00  0.00    +0.147 A 
ATOM      8  O   UNL     1       0.935  -2.029  -0.018  0.00  0.00    -0.440 OA
ATOM      9  C   UNL     1      -0.386  -2.252  -0.007  0.00  0.00    +0.199 A 
ATOM     10  C   UNL     1       3.442   2.442  -0.015  0.00  0.00    +0.127 A 
ATOM     11  C   UNL     1       2.764   3.653  -0.002  0.00  0.00    +0.199 A 
ATOM     12  O   UNL     1       1.444   3.421   0.009  0.00  0.00    -0.441 OA
ENDROOT
BRANCH   6  13
ATOM     13  C   UNL     1       3.711  -0.719  -0.036  0.00  0.00    -0.013 A 
ATOM     14  C   UNL     1       4.583  -0.617   1.047  0.00  0.00    +0.011 A 
ATOM     15  C   UNL     1       5.784  -1.296   1.030  0.00  0.00    +0.039 A 
ATOM     16  C   UNL     1       6.129  -2.070  -0.066  0.00  0.00    +0.123 A 
ATOM     17  C   UNL     1       5.268  -2.171  -1.147  0.00  0.00    +0.039 A 
ATOM     18  C   UNL     1       4.063  -1.500  -1.137  0.00  0.00    +0.011 A 
ATOM     19  F   UNL     1       7.309  -2.728  -0.081  0.00  0.00    -0.205 F 
ENDBRANCH   6  13
BRANCH   9  20
ATOM     20  N   UNL     1      -0.982  -3.488  -0.009  0.00  0.00    -0.329 N 
ATOM     21  H   UNL     1      -1.950  -3.560  -0.000  0.00  0.00    +0.145 HD
ATOM     22  H   UNL     1      -0.437  -4.290  -0.018  0.00  0.00    +0.145 HD
ENDBRANCH   9  20
BRANCH  11  23
ATOM     23  N   UNL     1       3.353   4.892   0.001  0.00  0.00    -0.329 N 
ATOM     24  H   UNL     1       4.319   4.970  -0.008  0.00  0.00    +0.145 HD
ATOM     25  H   UNL     1       2.802   5.690   0.011  0.00  0.00    +0.145 HD
ENDBRANCH  11  23
BRANCH   1  26
ATOM     26  C   UNL     1      -2.458  -0.832   0.020  0.00  0.00    +0.345 C 
ATOM     27  O   UNL     1      -3.069  -0.737  -1.028  0.00  0.00    -0.245 OA
BRANCH  26  29
ATOM     28  C   UNL     1      -4.527  -0.531   1.134  0.00  0.00    +0.280 C 
ATOM     29  O   UNL     1      -3.115  -0.739   1.195  0.00  0.00    -0.464 OA
ENDBRANCH  26  29
ENDBRANCH   1  26
BRANCH  10  30
ATOM     30  C   UNL     1       4.846   2.244  -0.030  0.00  0.00    +0.345 C 
ATOM     31  O   UNL     1       5.438   2.166  -1.090  0.00  0.00    -0.245 OA
BRANCH  30  32
ATOM     32  O   UNL     1       5.524   2.142   1.132  0.00  0.00    -0.464 OA
ATOM     33  C   UNL     1       6.937   1.943   1.043  0.00  0.00    +0.280 C 
ENDBRANCH  30  32
ENDBRANCH  10  30
TORSDOF 7
