REMARK  Name = ZINC38361533
REMARK  15 active torsions:
REMARK  status: ('A' for Active; 'I' for Inactive)
REMARK    1  A    between atoms: C_1  and  C_2
REMARK    2  A    between atoms: C_2  and  C_4
REMARK    3  A    between atoms: C_2  and  N_17
REMARK    4  A    between atoms: N_6  and  C_7
REMARK    5  A    between atoms: C_10  and  S_13
REMARK    6  A    between atoms: S_13  and  N_16
REMARK    7  A    between atoms: N_17  and  C_18
REMARK    8  A    between atoms: C_18  and  C_20
REMARK    9  A    between atoms: C_18  and  C_30
REMARK   10  A    between atoms: C_23  and  C_26
REMARK   11  A    between atoms: C_26  and  C_27
REMARK   12  A    between atoms: C_27  and  C_28
REMARK   13  A    between atoms: C_27  and  C_29
REMARK   14  A    between atoms: C_30  and  C_31
REMARK   15  A    between atoms: C_30  and  C_32
REMARK                            x       y       z     vdW  Elec       q    Type
REMARK                         _______ _______ _______ _____ _____    ______ ____
ROOT
ATOM      1  C   UNL     1       0.467   0.467  -3.542  0.00  0.00    -0.004 C 
ATOM      2  C   UNL     1      -0.027   0.365  -2.098  0.00  0.00    +0.014 C 
ENDROOT
BRANCH   2   3
ATOM      3  C   UNL     1      -1.500   0.049  -2.091  0.00  0.00    +0.203 C 
ATOM      4  O   UNL     1      -1.900  -0.966  -1.561  0.00  0.00    -0.277 OA
ATOM      5  N   UNL     1      -2.374   0.893  -2.675  0.00  0.00    -0.287 N 
ATOM      6  H   UNL     1      -2.049   1.672  -3.155  0.00  0.00    +0.155 HD
BRANCH   5   7
ATOM      7  C   UNL     1      -3.748   0.647  -2.590  0.00  0.00    +0.033 A 
ATOM      8  C   UNL     1      -4.593   1.057  -3.613  0.00  0.00    +0.025 A 
ATOM      9  C   UNL     1      -5.950   0.812  -3.526  0.00  0.00    +0.030 A 
ATOM     10  C   UNL     1      -6.467   0.161  -2.421  0.00  0.00    +0.105 A 
ATOM     11  C   UNL     1      -5.628  -0.247  -1.400  0.00  0.00    +0.030 A 
ATOM     12  C   UNL     1      -4.270  -0.012  -1.484  0.00  0.00    +0.025 A 
BRANCH  10  13
ATOM     13  S   UNL     1      -8.198  -0.149  -2.314  0.00  0.00    +0.056 S 
ATOM     14  O   UNL     1      -8.501  -0.287  -0.932  0.00  0.00    -0.153 OA
ATOM     15  O   UNL     1      -8.835   0.815  -3.141  0.00  0.00    -0.153 OA
BRANCH  13  16
ATOM     16  N   UNL     1      -8.475  -1.626  -3.009  0.00  0.00    -0.204 NA
ATOM     17  H   UNL     1      -9.211  -2.178  -2.699  0.00  0.00    +0.144 HD
ATOM     18  H   UNL     1      -7.902  -1.940  -3.726  0.00  0.00    +0.144 HD
ENDBRANCH  13  16
ENDBRANCH  10  13
ENDBRANCH   5   7
ENDBRANCH   2   3
BRANCH   2  19
ATOM     19  N   UNL     1       0.706  -0.702  -1.404  0.00  0.00    +0.391 N 
ATOM     20  H   UNL     1       0.301  -0.850  -0.492  0.00  0.00    -0.084 HD
ATOM     21  H   UNL     1       0.648  -1.554  -1.941  0.00  0.00    -0.084 HD
BRANCH  19  22
ATOM     22  C   UNL     1       2.115  -0.312  -1.256  0.00  0.00    -0.037 C 
BRANCH  22  23
ATOM     23  C   UNL     1       2.792  -0.357  -2.601  0.00  0.00    -0.061 A 
ATOM     24  C   UNL     1       2.503  -1.378  -3.487  0.00  0.00    +0.002 A 
ATOM     25  C   UNL     1       3.125  -1.419  -4.721  0.00  0.00    +0.004 A 
ATOM     26  C   UNL     1       4.035  -0.439  -5.069  0.00  0.00    -0.047 A 
ATOM     27  C   UNL     1       4.324   0.582  -4.184  0.00  0.00    +0.004 A 
ATOM     28  C   UNL     1       3.699   0.626  -2.951  0.00  0.00    +0.002 A 
BRANCH  26  29
ATOM     29  C   UNL     1       4.714  -0.484  -6.414  0.00  0.00    +0.038 C 
BRANCH  29  30
ATOM     30  C   UNL     1       3.877   0.290  -7.434  0.00  0.00    -0.013 C 
ATOM     31  C   UNL     1       3.844   1.770  -7.047  0.00  0.00    +0.007 C 
ATOM     32  C   UNL     1       4.499   0.140  -8.824  0.00  0.00    +0.007 C 
ENDBRANCH  29  30
ENDBRANCH  26  29
ENDBRANCH  22  23
BRANCH  22  33
ATOM     33  C   UNL     1       2.814  -1.280  -0.300  0.00  0.00    -0.027 C 
ATOM     34  C   UNL     1       4.256  -0.821  -0.073  0.00  0.00    +0.006 C 
ATOM     35  C   UNL     1       2.070  -1.304   1.037  0.00  0.00    +0.006 C 
ENDBRANCH  22  33
ENDBRANCH  19  22
ENDBRANCH   2  19
TORSDOF 10
