REMARK  Name = ZINC63795091
REMARK  7 active torsions:
REMARK  status: ('A' for Active; 'I' for Inactive)
REMARK    1  A    between atoms: C_7  and  C_10
REMARK    2  A    between atoms: C_10  and  C_11
REMARK    3  A    between atoms: C_11  and  N_12
REMARK    4  A    between atoms: C_13  and  C_15
REMARK    5  A    between atoms: C_18  and  C_22
REMARK    6  A    between atoms: C_22  and  C_23
REMARK    7  A    between atoms: N_25  and  C_26
REMARK                            x       y       z     vdW  Elec       q    Type
REMARK                         _______ _______ _______ _____ _____    ______ ____
ROOT
ATOM      1  C   UNL     1      -1.721  -6.566  -2.608  0.00  0.00    +0.297 C 
ATOM      2  N   UNL     1      -1.077  -7.750  -1.996  0.00  0.00    -0.265 NA
ATOM      3  C   UNL     1      -2.134  -8.447  -1.232  0.00  0.00    +0.158 C 
ATOM      4  N   UNL     1      -3.364  -7.643  -1.419  0.00  0.00    -0.181 NA
ATOM      5  O   UNL     1      -2.867  -6.293  -1.770  0.00  0.00    -0.270 OA
ATOM      6  H   UNL     1      -0.684  -8.354  -2.703  0.00  0.00    +0.126 HD
ATOM      7  H   UNL     1      -3.934  -8.021  -2.161  0.00  0.00    +0.156 HD
ENDROOT
BRANCH   1   9
ATOM      8  N   UNL     1      -0.429  -4.811  -1.438  0.00  0.00    -0.312 N 
ATOM      9  C   UNL     1      -0.775  -5.393  -2.604  0.00  0.00    +0.259 C 
ATOM     10  O   UNL     1      -0.326  -4.971  -3.648  0.00  0.00    -0.271 OA
ATOM     11  H   UNL     1      -0.788  -5.148  -0.602  0.00  0.00    +0.149 HD
BRANCH   8  12
ATOM     12  C   UNL     1       0.490  -3.671  -1.433  0.00  0.00    +0.108 C 
BRANCH  12  13
ATOM     13  C   UNL     1       0.716  -3.203   0.006  0.00  0.00    +0.052 C 
BRANCH  13  20
ATOM     14  C   UNL     1       0.028   1.333   0.033  0.00  0.00    +0.001 A 
ATOM     15  C   UNL     1       1.213   2.082   0.034  0.00  0.00    +0.002 A 
ATOM     16  C   UNL     1       2.436   1.510   0.029  0.00  0.00    +0.026 A 
ATOM     17  C   UNL     1       2.568   0.095   0.020  0.00  0.00    +0.043 A 
ATOM     18  N   UNL     1       3.623  -0.684   0.013  0.00  0.00    -0.380 N 
ATOM     19  C   UNL     1       3.174  -2.080   0.006  0.00  0.00    +0.144 C 
ATOM     20  C   UNL     1       1.662  -2.030   0.011  0.00  0.00    -0.040 C 
ATOM     21  C   UNL     1       1.331  -0.719   0.019  0.00  0.00    -0.001 A 
ATOM     22  C   UNL     1       0.041  -0.019   0.026  0.00  0.00    +0.010 A 
ATOM     23  H   UNL     1       4.546  -0.386   0.012  0.00  0.00    +0.160 HD
ENDBRANCH  13  20
ENDBRANCH  12  13
ENDBRANCH   8  12
ENDBRANCH   1   9
BRANCH   3  24
ATOM     24  C   UNL     1      -2.337  -9.861  -1.780  0.00  0.00    +0.132 C 
BRANCH  24  25
ATOM     25  C   UNL     1      -3.416 -10.556  -0.991  0.00  0.00    +0.220 C 
ATOM     26  O   UNL     1      -3.968  -9.977  -0.079  0.00  0.00    -0.275 OA
ATOM     27  N   UNL     1      -3.767 -11.820  -1.298  0.00  0.00    -0.283 N 
ATOM     28  H   UNL     1      -3.384 -12.255  -2.076  0.00  0.00    +0.155 HD
BRANCH  27  29
ATOM     29  C   UNL     1      -4.686 -12.507  -0.493  0.00  0.00    +0.069 A 
ATOM     30  C   UNL     1      -4.848 -12.149   0.838  0.00  0.00    +0.029 A 
ATOM     31  C   UNL     1      -5.754 -12.827   1.630  0.00  0.00    +0.040 A 
ATOM     32  C   UNL     1      -6.502 -13.864   1.097  0.00  0.00    +0.126 A 
ATOM     33  C   UNL     1      -6.343 -14.225  -0.230  0.00  0.00    +0.078 A 
ATOM     34  C   UNL     1      -5.441 -13.545  -1.028  0.00  0.00    +0.147 A 
ATOM     35  F   UNL     1      -5.290 -13.892  -2.325  0.00  0.00    -0.203 F 
ATOM     36  F   UNL     1      -7.387 -14.526   1.874  0.00  0.00    -0.205 F 
ENDBRANCH  27  29
ENDBRANCH  24  25
ENDBRANCH   3  24
TORSDOF 7
