REMARK  Name = ZINC19832196
REMARK  10 active torsions:
REMARK  status: ('A' for Active; 'I' for Inactive)
REMARK    1  A    between atoms: C_1  and  C_2
REMARK    2  A    between atoms: C_2  and  C_3
REMARK    3  A    between atoms: C_3  and  C_4
REMARK    4  A    between atoms: C_4  and  O_5
REMARK    5  A    between atoms: O_5  and  C_6
REMARK    6  A    between atoms: C_6  and  C_8
REMARK    7  A    between atoms: C_9  and  C_37
REMARK    8  A    between atoms: C_13  and  C_15
REMARK    9  A    between atoms: C_19  and  N_21
REMARK   10  A    between atoms: C_28  and  C_31
REMARK                            x       y       z     vdW  Elec       q    Type
REMARK                         _______ _______ _______ _____ _____    ______ ____
ROOT
ATOM      1  C   UNL     1       2.447   0.260   1.192  0.00  0.00    +0.065 C 
ATOM      2  C   UNL     1       2.269  -1.072   1.191  0.00  0.00    +0.016 C 
ATOM      3  N   UNL     1       2.110  -1.748   0.013  0.00  0.00    -0.321 N 
ATOM      4  C   UNL     1       2.515  -1.191  -1.170  0.00  0.00    +0.016 C 
ATOM      5  C   UNL     1       2.701   0.142  -1.272  0.00  0.00    +0.024 C 
ATOM      6  C   UNL     1       2.469   1.044  -0.086  0.00  0.00    +0.092 C 
ATOM      7  C   UNL     1       3.114   0.727  -2.482  0.00  0.00    +0.162 C 
ATOM      8  O   UNL     1       3.286   1.928  -2.536  0.00  0.00    -0.292 OA
ATOM      9  C   UNL     1       3.347  -0.109  -3.711  0.00  0.00    +0.088 C 
ATOM     10  C   UNL     1       2.450  -1.349  -3.648  0.00  0.00    +0.032 C 
ATOM     11  C   UNL     1       2.750  -2.101  -2.350  0.00  0.00    +0.059 C 
ATOM     12  C   UNL     1       2.244  -1.826   2.496  0.00  0.00    +0.061 C 
ATOM     13  H   UNL     1       1.654  -2.749   0.011  0.00  0.00    +0.152 HD
ENDROOT
BRANCH   6  14
ATOM     14  C   UNL     1       1.149   1.752  -0.255  0.00  0.00    -0.033 A 
ATOM     15  C   UNL     1      -0.023   1.020  -0.326  0.00  0.00    +0.008 A 
ATOM     16  C   UNL     1      -1.233   1.666  -0.485  0.00  0.00    +0.053 A 
ATOM     17  C   UNL     1      -1.274   3.051  -0.564  0.00  0.00    +0.209 A 
ATOM     18  C   UNL     1      -0.098   3.783  -0.493  0.00  0.00    +0.173 A 
ATOM     19  C   UNL     1       1.111   3.131  -0.339  0.00  0.00    +0.041 A 
ATOM     20  O   UNL     1      -2.464   3.689  -0.716  0.00  0.00    -0.285 OA
BRANCH  18  21
ATOM     21  N   UNL     1      -0.138   5.259  -0.582  0.00  0.00    +0.060 N 
ATOM     22  O   UNL     1       0.896   5.901  -0.519  0.00  0.00    -0.126 OA
ATOM     23  O   UNL     1      -1.203   5.833  -0.718  0.00  0.00    -0.126 OA
ENDBRANCH  18  21
ENDBRANCH   6  14
BRANCH  10  24
ATOM     24  C   UNL     1       2.735  -2.241  -4.829  0.00  0.00    -0.044 A 
ATOM     25  C   UNL     1       4.005  -2.754  -5.016  0.00  0.00    +0.004 A 
ATOM     26  C   UNL     1       4.266  -3.576  -6.097  0.00  0.00    +0.000 A 
ATOM     27  C   UNL     1       3.259  -3.877  -6.995  0.00  0.00    +0.000 A 
ATOM     28  C   UNL     1       1.990  -3.360  -6.810  0.00  0.00    +0.000 A 
ATOM     29  C   UNL     1       1.728  -2.542  -5.727  0.00  0.00    +0.004 A 
ENDBRANCH  10  24
BRANCH   1  30
ATOM     30  C   UNL     1       2.616   0.935   2.424  0.00  0.00    +0.338 C 
ATOM     31  O   UNL     1       3.717   1.340   2.749  0.00  0.00    -0.245 OA
BRANCH  30  32
ATOM     32  O   UNL     1       1.557   1.132   3.237  0.00  0.00    -0.461 OA
BRANCH  32  33
ATOM     33  C   UNL     1       1.801   1.821   4.465  0.00  0.00    +0.232 C 
BRANCH  33  34
ATOM     34  C   UNL     1       0.493   1.948   5.247  0.00  0.00    +0.041 C 
BRANCH  34  36
ATOM     35  C   UNL     1      -0.555   2.813   7.344  0.00  0.00    +0.004 C 
ATOM     36  C   UNL     1       0.754   2.686   6.561  0.00  0.00    -0.000 C 
ENDBRANCH  34  36
ENDBRANCH  33  34
ENDBRANCH  32  33
ENDBRANCH  30  32
ENDBRANCH   1  30
TORSDOF 8
