REMARK  Name = ZINC64716211
REMARK  9 active torsions:
REMARK  status: ('A' for Active; 'I' for Inactive)
REMARK    1  A    between atoms: C_1  and  C_2
REMARK    2  A    between atoms: C_2  and  C_4
REMARK    3  A    between atoms: C_2  and  N_14
REMARK    4  A    between atoms: N_6  and  C_7
REMARK    5  A    between atoms: C_7  and  C_8
REMARK    6  A    between atoms: N_14  and  C_15
REMARK    7  A    between atoms: C_15  and  C_16
REMARK    8  A    between atoms: C_16  and  C_18
REMARK    9  A    between atoms: C_16  and  C_24
REMARK                            x       y       z     vdW  Elec       q    Type
REMARK                         _______ _______ _______ _____ _____    ______ ____
ROOT
ATOM      1  C   UNL     1      -2.050  -0.126  -1.234  0.00  0.00    -0.069 C 
ENDROOT
BRANCH   1   2
ATOM      2  N   UNL     1      -1.376  -0.512   0.012  0.00  0.00    +0.387 N 
ATOM      3  H   UNL     1      -1.363  -1.518   0.090  0.00  0.00    -0.085 HD
ATOM      4  H   UNL     1      -1.873  -0.121   0.799  0.00  0.00    -0.085 HD
BRANCH   2   6
ATOM      5  C   UNL     1      -0.019   1.526   0.010  0.00  0.00    -0.004 C 
ATOM      6  C   UNL     1       0.002  -0.004   0.002  0.00  0.00    +0.013 C 
BRANCH   6   7
ATOM      7  C   UNL     1       0.731  -0.503   1.223  0.00  0.00    +0.199 C 
ATOM      8  O   UNL     1       0.159  -1.213   2.023  0.00  0.00    -0.278 OA
ATOM      9  N   UNL     1       2.019  -0.161   1.426  0.00  0.00    -0.313 N 
ATOM     10  H   UNL     1       2.476   0.406   0.786  0.00  0.00    +0.149 HD
BRANCH   9  11
ATOM     11  C   UNL     1       2.727  -0.647   2.613  0.00  0.00    +0.139 C 
BRANCH  11  12
ATOM     12  C   UNL     1       4.141  -0.125   2.602  0.00  0.00    -0.030 A 
ATOM     13  C   UNL     1       5.142  -0.853   1.985  0.00  0.00    +0.005 A 
ATOM     14  C   UNL     1       6.438  -0.374   1.975  0.00  0.00    +0.000 A 
ATOM     15  C   UNL     1       6.735   0.832   2.582  0.00  0.00    +0.000 A 
ATOM     16  C   UNL     1       5.734   1.560   3.198  0.00  0.00    +0.000 A 
ATOM     17  C   UNL     1       4.436   1.084   3.204  0.00  0.00    +0.005 A 
ENDBRANCH  11  12
ENDBRANCH   9  11
ENDBRANCH   6   7
ENDBRANCH   2   6
ENDBRANCH   1   2
BRANCH   1  18
ATOM     18  C   UNL     1      -3.485  -0.656  -1.224  0.00  0.00    +0.030 C 
BRANCH  18  19
ATOM     19  C   UNL     1      -4.138  -0.366  -2.551  0.00  0.00    -0.036 C 
ATOM     20  C   UNL     1      -4.648  -1.269  -3.420  0.00  0.00    -0.001 A 
ATOM     21  C   UNL     1      -4.744  -2.733  -3.391  0.00  0.00    +0.010 A 
ATOM     22  C   UNL     1      -5.322  -3.373  -4.433  0.00  0.00    +0.001 A 
ATOM     23  C   UNL     1      -5.830  -2.675  -5.537  0.00  0.00    +0.002 A 
ATOM     24  C   UNL     1      -5.778  -1.330  -5.636  0.00  0.00    +0.026 A 
ATOM     25  C   UNL     1      -5.192  -0.555  -4.597  0.00  0.00    +0.043 A 
ATOM     26  N   UNL     1      -5.024   0.738  -4.461  0.00  0.00    -0.380 N 
ATOM     27  C   UNL     1      -4.360   0.992  -3.178  0.00  0.00    +0.145 C 
ATOM     28  H   UNL     1      -5.298   1.415  -5.101  0.00  0.00    +0.160 HD
ENDBRANCH  18  19
BRANCH  18  29
ATOM     29  C   UNL     1      -4.262   0.021  -0.124  0.00  0.00    -0.042 A 
ATOM     30  C   UNL     1      -4.418   1.395  -0.133  0.00  0.00    +0.004 A 
ATOM     31  C   UNL     1      -5.131   2.016   0.876  0.00  0.00    +0.000 A 
ATOM     32  C   UNL     1      -5.688   1.264   1.893  0.00  0.00    +0.000 A 
ATOM     33  C   UNL     1      -5.533  -0.110   1.901  0.00  0.00    +0.000 A 
ATOM     34  C   UNL     1      -4.824  -0.732   0.890  0.00  0.00    +0.004 A 
ENDBRANCH  18  29
ENDBRANCH   1  18
TORSDOF 8
