REMARK  Name = ZINC20721936
REMARK  8 active torsions:
REMARK  status: ('A' for Active; 'I' for Inactive)
REMARK    1  A    between atoms: C_1  and  C_2
REMARK    2  A    between atoms: C_2  and  C_3
REMARK    3  A    between atoms: C_2  and  O_4
REMARK    4  A    between atoms: O_4  and  C_5
REMARK    5  A    between atoms: C_10  and  C_11
REMARK    6  A    between atoms: C_11  and  C_12
REMARK    7  A    between atoms: C_12  and  C_13
REMARK    8  A    between atoms: C_27  and  C_32
REMARK                            x       y       z     vdW  Elec       q    Type
REMARK                         _______ _______ _______ _____ _____    ______ ____
ROOT
ATOM      1  C   UNL     1      -7.663  -2.986   4.109  0.00  0.00    +0.128 A 
ATOM      2  C   UNL     1      -8.502  -2.327   4.993  0.00  0.00    +0.093 A 
ATOM      3  C   UNL     1      -8.029  -1.953   6.242  0.00  0.00    +0.143 A 
ATOM      4  C   UNL     1      -6.700  -2.248   6.593  0.00  0.00    +0.026 A 
ATOM      5  C   UNL     1      -5.869  -2.918   5.692  0.00  0.00    +0.019 A 
ATOM      6  C   UNL     1      -6.348  -3.276   4.464  0.00  0.00    -0.004 A 
ATOM      7  C   UNL     1      -6.209  -1.845   7.921  0.00  0.00    -0.000 A 
ATOM      8  C   UNL     1      -7.088  -1.191   8.764  0.00  0.00    +0.101 A 
ATOM      9  C   UNL     1      -8.400  -0.935   8.332  0.00  0.00    +0.338 A 
ATOM     10  O   UNL     1      -9.168  -0.358   9.081  0.00  0.00    -0.245 OA
ATOM     11  O   UNL     1      -8.831  -1.310   7.117  0.00  0.00    -0.422 OA
ENDROOT
BRANCH   7  12
ATOM     12  C   UNL     1      -4.820  -2.132   8.341  0.00  0.00    -0.017 A 
ATOM     13  C   UNL     1      -4.299  -3.421   8.208  0.00  0.00    +0.008 A 
ATOM     14  C   UNL     1      -3.001  -3.680   8.596  0.00  0.00    +0.001 A 
ATOM     15  C   UNL     1      -2.219  -2.670   9.127  0.00  0.00    +0.000 A 
ATOM     16  C   UNL     1      -2.731  -1.392   9.267  0.00  0.00    +0.001 A 
ATOM     17  C   UNL     1      -4.026  -1.118   8.877  0.00  0.00    +0.008 A 
ENDBRANCH   7  12
BRANCH   1  18
ATOM     18  O   UNL     1      -8.127  -3.351   2.886  0.00  0.00    -0.489 OA
BRANCH  18  20
ATOM     19  C   UNL     1      -9.724  -1.694   2.151  0.00  0.00    +0.051 C 
ATOM     20  C   UNL     1      -9.515  -3.133   2.627  0.00  0.00    +0.167 C 
ATOM     21  C   UNL     1      -9.990  -4.103   1.544  0.00  0.00    +0.051 C 
ENDBRANCH  18  20
ENDBRANCH   1  18
BRANCH   6  22
ATOM     22  C   UNL     1      -5.450  -3.994   3.490  0.00  0.00    +0.048 C 
BRANCH  22  23
ATOM     23  C   UNL     1      -4.815  -2.978   2.537  0.00  0.00    +0.101 C 
BRANCH  23  24
ATOM     24  C   UNL     1      -3.917  -3.696   1.563  0.00  0.00    +0.216 C 
ATOM     25  O   UNL     1      -3.796  -4.901   1.625  0.00  0.00    -0.276 OA
ATOM     26  N   UNL     1      -3.248  -2.999   0.624  0.00  0.00    -0.298 N 
ATOM     27  C   UNL     1      -2.366  -3.680  -0.337  0.00  0.00    +0.126 C 
ATOM     28  C   UNL     1      -1.003  -2.981  -0.326  0.00  0.00    +0.125 C 
ATOM     29  N   UNL     1      -1.191  -1.544  -0.567  0.00  0.00    -0.314 N 
ATOM     30  C   UNL     1      -1.977  -0.922   0.508  0.00  0.00    +0.125 C 
ATOM     31  C   UNL     1      -3.380  -1.537   0.532  0.00  0.00    +0.126 C 
ATOM     32  C   UNL     1       0.031  -0.901  -0.726  0.00  0.00    +0.099 A 
ATOM     33  C   UNL     1       0.063   0.469  -0.964  0.00  0.00    +0.042 A 
ATOM     34  C   UNL     1       1.286   1.096  -1.120  0.00  0.00    +0.005 A 
ATOM     35  C   UNL     1       2.440   0.329  -1.033  0.00  0.00    +0.018 A 
ATOM     36  C   UNL     1       2.334  -1.027  -0.795  0.00  0.00    +0.084 A 
ATOM     37  N   UNL     1       1.154  -1.599  -0.650  0.00  0.00    -0.350 N 
ATOM     38  H   UNL     1       1.117  -2.682  -0.462  0.00  0.00    +0.166 HD
ENDBRANCH  23  24
ENDBRANCH  22  23
ENDBRANCH   6  22
TORSDOF 6
