REMARK  Name = ZINC24835020
REMARK  9 active torsions:
REMARK  status: ('A' for Active; 'I' for Inactive)
REMARK    1  A    between atoms: C_1  and  C_2
REMARK    2  A    between atoms: C_2  and  C_4
REMARK    3  A    between atoms: C_2  and  N_22
REMARK    4  A    between atoms: N_6  and  C_7
REMARK    5  A    between atoms: N_6  and  C_8
REMARK    6  A    between atoms: C_8  and  C_9
REMARK    7  A    between atoms: N_11  and  C_12
REMARK    8  A    between atoms: C_17  and  C_18
REMARK    9  A    between atoms: N_25  and  C_28
REMARK                            x       y       z     vdW  Elec       q    Type
REMARK                         _______ _______ _______ _____ _____    ______ ____
ROOT
ATOM      1  C   UNL     1       1.247   1.590   0.128  0.00  0.00    +0.202 C 
ATOM      2  O   UNL     1       1.166   2.264   1.134  0.00  0.00    -0.277 OA
ATOM      3  N   UNL     1       2.377   1.607  -0.605  0.00  0.00    -0.297 N 
ATOM      4  C   UNL     1       2.475   0.794  -1.819  0.00  0.00    +0.132 C 
ENDROOT
BRANCH   1   6
ATOM      5  C   UNL     1      -0.625   1.394  -1.486  0.00  0.00    -0.004 C 
ATOM      6  C   UNL     1       0.083   0.734  -0.301  0.00  0.00    +0.016 C 
BRANCH   6   7
ATOM      7  N   UNL     1      -0.860   0.593   0.817  0.00  0.00    +0.389 N 
ATOM      8  C   UNL     1      -1.782  -0.528   0.590  0.00  0.00    -0.059 C 
ATOM      9  C   UNL     1      -2.693  -0.691   1.809  0.00  0.00    +0.086 C 
ATOM     10  N   UNL     1      -3.433   0.559   2.034  0.00  0.00    -0.333 N 
ATOM     11  C   UNL     1      -2.511   1.680   2.261  0.00  0.00    +0.086 C 
ATOM     12  C   UNL     1      -1.600   1.843   1.042  0.00  0.00    -0.059 C 
ATOM     13  H   UNL     1      -0.277   0.376   1.724  0.00  0.00    -0.081 HD
BRANCH  10  14
ATOM     14  C   UNL     1      -4.329   0.425   3.097  0.00  0.00    +0.031 A 
ATOM     15  C   UNL     1      -4.260   1.293   4.180  0.00  0.00    +0.023 A 
ATOM     16  C   UNL     1      -5.151   1.162   5.227  0.00  0.00    +0.003 A 
ATOM     17  C   UNL     1      -6.105   0.161   5.204  0.00  0.00    +0.020 A 
ATOM     18  C   UNL     1      -6.173  -0.710   4.130  0.00  0.00    +0.043 A 
ATOM     19  C   UNL     1      -5.288  -0.580   3.077  0.00  0.00    +0.043 A 
ATOM     20 CL   UNL     1      -7.372  -1.965   4.106  0.00  0.00    -0.083 Cl
ENDBRANCH  10  14
ENDBRANCH   6   7
ENDBRANCH   1   6
BRANCH   3  21
ATOM     21  C   UNL     1       3.509   2.439  -0.188  0.00  0.00    +0.203 C 
BRANCH  21  22
ATOM     22  C   UNL     1       4.410   1.643   0.721  0.00  0.00    +0.235 C 
ATOM     23  O   UNL     1       4.134   0.494   0.993  0.00  0.00    -0.274 OA
ATOM     24  N   UNL     1       5.522   2.209   1.231  0.00  0.00    -0.284 N 
ATOM     25  H   UNL     1       5.725   3.276   1.058  0.00  0.00    +0.155 HD
BRANCH  24  26
ATOM     26  C   UNL     1       6.417   1.438   1.980  0.00  0.00    +0.045 A 
ATOM     27  C   UNL     1       6.407   0.054   1.869  0.00  0.00    +0.024 A 
ATOM     28  C   UNL     1       7.296  -0.704   2.606  0.00  0.00    +0.002 A 
ATOM     29  C   UNL     1       8.188  -0.085   3.463  0.00  0.00    +0.001 A 
ATOM     30  C   UNL     1       8.197   1.292   3.581  0.00  0.00    +0.014 A 
ATOM     31  C   UNL     1       7.314   2.056   2.842  0.00  0.00    +0.076 A 
BRANCH  31  32
ATOM     32  C   UNL     1       7.324   3.557   2.972  0.00  0.00    +0.419 C 
ATOM     33  F   UNL     1       8.306   3.939   3.892  0.00  0.00    -0.166 F 
ATOM     34  F   UNL     1       7.603   4.131   1.726  0.00  0.00    -0.166 F 
ATOM     35  F   UNL     1       6.072   3.995   3.417  0.00  0.00    -0.166 F 
ENDBRANCH  31  32
ENDBRANCH  24  26
ENDBRANCH  21  22
ENDBRANCH   3  21
TORSDOF 7
