REMARK  Name = ZINC59488446
REMARK  9 active torsions:
REMARK  status: ('A' for Active; 'I' for Inactive)
REMARK    1  A    between atoms: C_1  and  C_2
REMARK    2  A    between atoms: C_2  and  C_26
REMARK    3  A    between atoms: C_4  and  N_10
REMARK    4  A    between atoms: C_6  and  C_8
REMARK    5  A    between atoms: C_6  and  C_9
REMARK    6  A    between atoms: C_11  and  C_13
REMARK    7  A    between atoms: N_15  and  N_16
REMARK    8  A    between atoms: C_17  and  C_18
REMARK    9  A    between atoms: C_23  and  O_24
REMARK                            x       y       z     vdW  Elec       q    Type
REMARK                         _______ _______ _______ _____ _____    ______ ____
ROOT
ATOM      1  N   UNL     1       2.615  -0.819  -2.626  0.00  0.00    -0.305 N 
ATOM      2  C   UNL     1       3.770  -0.334  -3.123  0.00  0.00    +0.301 C 
ATOM      3  O   UNL     1       4.375   0.530  -2.523  0.00  0.00    -0.265 OA
ATOM      4  H   UNL     1       2.133  -1.510  -3.106  0.00  0.00    +0.149 HD
ENDROOT
BRANCH   1   8
ATOM      5  C   UNL     1      -0.019   1.528   0.010  0.00  0.00    -0.010 C 
ATOM      6  C   UNL     1       0.002  -0.004   0.002  0.00  0.00    -0.072 C 
ATOM      7  C   UNL     1       0.573  -0.505  -1.321  0.00  0.00    +0.009 C 
ATOM      8  C   UNL     1       2.088  -0.301  -1.357  0.00  0.00    +0.071 C 
ATOM      9  C   UNL     1       2.703  -1.086  -0.198  0.00  0.00    +0.009 C 
ATOM     10  C   UNL     1       2.147  -0.590   1.133  0.00  0.00    -0.072 C 
ATOM     11  N   UNL     1       0.697  -0.529   1.164  0.00  0.00    +0.386 N 
ATOM     12  C   UNL     1       2.769   0.766   1.481  0.00  0.00    -0.010 C 
ATOM     13  C   UNL     1       2.600  -1.589   2.223  0.00  0.00    -0.010 C 
ATOM     14  C   UNL     1      -1.468  -0.478   0.079  0.00  0.00    -0.010 C 
ATOM     15  H   UNL     1       0.416   0.021   1.982  0.00  0.00    -0.084 HD
ATOM     16  H   UNL     1       0.341  -1.472   1.351  0.00  0.00    -0.084 HD
ENDBRANCH   1   8
BRANCH   2  17
ATOM     17  C   UNL     1       4.306  -0.860  -4.412  0.00  0.00    +0.318 C 
ATOM     18  O   UNL     1       3.702  -1.725  -5.013  0.00  0.00    -0.263 OA
ATOM     19  N   UNL     1       5.461  -0.376  -4.910  0.00  0.00    -0.199 N 
ATOM     20  H   UNL     1       5.944   0.315  -4.430  0.00  0.00    +0.178 HD
BRANCH  19  21
ATOM     21  N   UNL     1       5.964  -0.870  -6.121  0.00  0.00    -0.187 NA
ATOM     22  C   UNL     1       7.078  -0.402  -6.601  0.00  0.00    +0.142 C 
BRANCH  22  23
ATOM     23  C   UNL     1       7.607  -0.922  -7.873  0.00  0.00    +0.037 A 
ATOM     24  C   UNL     1       8.807  -0.426  -8.390  0.00  0.00    +0.028 A 
ATOM     25  C   UNL     1       9.296  -0.917  -9.582  0.00  0.00    +0.019 A 
ATOM     26  C   UNL     1       8.603  -1.900 -10.270  0.00  0.00    +0.019 A 
ATOM     27  C   UNL     1       7.415  -2.398  -9.770  0.00  0.00    +0.047 A 
ATOM     28  C   UNL     1       6.912  -1.920  -8.570  0.00  0.00    +0.126 A 
ATOM     29 BR   UNL     1      10.920  -0.245 -10.281  0.00  0.00    -0.050 Br
BRANCH  28  30
ATOM     30  O   UNL     1       5.748  -2.413  -8.075  0.00  0.00    -0.506 OA
ATOM     31  H   UNL     1       4.961  -1.936  -8.371  0.00  0.00    +0.292 HD
ENDBRANCH  28  30
ENDBRANCH  22  23
ENDBRANCH  19  21
ENDBRANCH   2  17
TORSDOF 5
