REMARK  Name = ZINC09546664
REMARK  8 active torsions:
REMARK  status: ('A' for Active; 'I' for Inactive)
REMARK    1  A    between atoms: C_1  and  C_2
REMARK    2  A    between atoms: C_2  and  C_3
REMARK    3  A    between atoms: C_2  and  C_4
REMARK    4  A    between atoms: C_4  and  C_6
REMARK    5  A    between atoms: C_4  and  N_17
REMARK    6  A    between atoms: C_18  and  C_20
REMARK    7  A    between atoms: C_20  and  N_63
REMARK    8  A    between atoms: C_29  and  C_31
REMARK                            x       y       z     vdW  Elec       q    Type
REMARK                         _______ _______ _______ _____ _____    ______ ____
ROOT
ATOM      1  N   UNL     1      -1.278   8.691  -2.559  0.00  0.00    -0.310 N 
ATOM      2  C   UNL     1      -1.239   7.521  -1.891  0.00  0.00    +0.197 C 
ATOM      3  O   UNL     1      -1.215   6.474  -2.502  0.00  0.00    -0.278 OA
ATOM      4  H   UNL     1      -1.297   9.528  -2.070  0.00  0.00    +0.149 HD
ENDROOT
BRANCH   1   5
ATOM      5  C   UNL     1      -1.291   8.697  -4.024  0.00  0.00    +0.106 C 
BRANCH   5   6
ATOM      6  C   UNL     1      -1.932   9.970  -4.515  0.00  0.00    -0.023 A 
ATOM      7  C   UNL     1      -1.670  11.165  -3.873  0.00  0.00    +0.009 A 
ATOM      8  C   UNL     1      -2.250  12.338  -4.321  0.00  0.00    +0.050 A 
ATOM      9  C   UNL     1      -3.105  12.309  -5.410  0.00  0.00    +0.162 A 
ATOM     10  C   UNL     1      -3.372  11.108  -6.052  0.00  0.00    +0.162 A 
ATOM     11  C   UNL     1      -2.785   9.936  -5.603  0.00  0.00    +0.055 A 
ATOM     12  O   UNL     1      -4.215  11.089  -7.125  0.00  0.00    -0.488 OA
ATOM     13  C   UNL     1      -5.589  11.366  -6.845  0.00  0.00    +0.232 C 
ATOM     14  C   UNL     1      -5.841  12.866  -6.814  0.00  0.00    +0.082 C 
ATOM     15  C   UNL     1      -5.102  13.553  -5.677  0.00  0.00    +0.232 C 
ATOM     16  O   UNL     1      -3.688  13.458  -5.860  0.00  0.00    -0.488 OA
ENDBRANCH   5   6
BRANCH   5  18
ATOM     17  C   UNL     1       0.795   7.322  -4.049  0.00  0.00    +0.009 C 
ATOM     18  C   UNL     1       0.144   8.614  -4.547  0.00  0.00    +0.008 C 
ATOM     19  C   UNL     1       0.130   8.621  -6.077  0.00  0.00    +0.009 C 
ENDBRANCH   5  18
ENDBRANCH   1   5
BRANCH   2  20
ATOM     20  C   UNL     1      -1.225   7.514  -0.384  0.00  0.00    +0.020 C 
BRANCH  20  30
ATOM     21  C   UNL     1       0.069   5.473  -0.295  0.00  0.00    -0.041 C 
ATOM     22  C   UNL     1       0.060   4.025   0.120  0.00  0.00    -0.061 A 
ATOM     23  C   UNL     1       1.268   3.344   0.167  0.00  0.00    +0.002 A 
ATOM     24  C   UNL     1       1.306   2.015   0.538  0.00  0.00    +0.000 A 
ATOM     25  C   UNL     1       0.134   1.357   0.863  0.00  0.00    +0.000 A 
ATOM     26  C   UNL     1      -1.069   2.032   0.811  0.00  0.00    +0.004 A 
ATOM     27  C   UNL     1      -1.108   3.369   0.446  0.00  0.00    -0.047 A 
ATOM     28  C   UNL     1      -2.443   4.068   0.415  0.00  0.00    +0.029 C 
ATOM     29  C   UNL     1      -2.336   5.361  -0.394  0.00  0.00    +0.024 C 
ATOM     30  N   UNL     1      -1.183   6.124   0.124  0.00  0.00    +0.396 N 
ATOM     31  H   UNL     1      -1.226   6.141   1.149  0.00  0.00    -0.080 HD
BRANCH  29  32
ATOM     32  C   UNL     1      -3.594   6.174  -0.225  0.00  0.00    +0.197 C 
ATOM     33  O   UNL     1      -3.712   6.919   0.725  0.00  0.00    -0.278 OA
ATOM     34  N   UNL     1      -4.588   6.073  -1.129  0.00  0.00    -0.331 N 
ATOM     35  H   UNL     1      -4.494   5.478  -1.889  0.00  0.00    +0.145 HD
ATOM     36  H   UNL     1      -5.398   6.596  -1.021  0.00  0.00    +0.145 HD
ENDBRANCH  29  32
ENDBRANCH  20  30
ENDBRANCH   2  20
TORSDOF 6
