REMARK  Name = ZINC01206577
REMARK  5 active torsions:
REMARK  status: ('A' for Active; 'I' for Inactive)
REMARK    1  A    between atoms: C_9  and  O_12
REMARK    2  A    between atoms: O_12  and  C_13
REMARK    3  A    between atoms: C_13  and  C_14
REMARK    4  A    between atoms: C_16  and  N_53
REMARK    5  A    between atoms: C_20  and  N_25
REMARK                            x       y       z     vdW  Elec       q    Type
REMARK                         _______ _______ _______ _____ _____    ______ ____
ROOT
ATOM      1  C   UNL     1      -5.031   6.790   0.298  0.00  0.00    +0.054 C 
ATOM      2  C   UNL     1      -4.391   5.646   0.172  0.00  0.00    +0.096 C 
ATOM      3  C   UNL     1      -2.892   5.456   0.044  0.00  0.00    +0.034 C 
ATOM      4  C   UNL     1      -2.739   3.956  -0.068  0.00  0.00    -0.009 A 
ATOM      5  C   UNL     1      -1.641   3.135  -0.202  0.00  0.00    +0.038 A 
ATOM      6  C   UNL     1      -1.810   1.765  -0.286  0.00  0.00    +0.127 A 
ATOM      7  C   UNL     1      -3.082   1.225  -0.224  0.00  0.00    +0.036 A 
ATOM      8  C   UNL     1      -4.182   2.045  -0.085  0.00  0.00    +0.049 A 
ATOM      9  C   UNL     1      -4.021   3.428  -0.005  0.00  0.00    +0.130 A 
ATOM     10  O   UNL     1      -4.941   4.411   0.131  0.00  0.00    -0.462 OA
ENDROOT
BRANCH   3  16
ATOM     11  C   UNL     1      -2.916   5.487  -2.378  0.00  0.00    -0.049 C 
ATOM     12  C   UNL     1      -2.413   6.248  -3.607  0.00  0.00    +0.141 C 
ATOM     13  O   UNL     1      -0.983   6.279  -3.591  0.00  0.00    -0.383 OA
ATOM     14  C   UNL     1      -0.434   6.893  -2.421  0.00  0.00    +0.141 C 
ATOM     15  C   UNL     1      -0.917   6.138  -1.180  0.00  0.00    -0.049 C 
ATOM     16  N   UNL     1      -2.395   6.149  -1.164  0.00  0.00    +0.392 N 
ATOM     17  H   UNL     1      -2.722   7.122  -1.148  0.00  0.00    -0.080 HD
ENDBRANCH   3  16
BRANCH   6  18
ATOM     18  N   UNL     1      -0.634   0.879  -0.435  0.00  0.00    +0.056 N 
ATOM     19  O   UNL     1      -0.785  -0.328  -0.504  0.00  0.00    -0.126 OA
ATOM     20  O   UNL     1       0.485   1.357  -0.494  0.00  0.00    -0.126 OA
ENDBRANCH   6  18
BRANCH   1  21
ATOM     21  C   UNL     1      -6.538   6.814   0.298  0.00  0.00    +0.260 C 
BRANCH  21  22
ATOM     22  O   UNL     1      -7.000   7.663   1.351  0.00  0.00    -0.487 OA
BRANCH  22  31
ATOM     23  C   UNL     1     -12.995   8.970   2.871  0.00  0.00    +0.001 A 
ATOM     24  C   UNL     1     -12.149   9.654   3.743  0.00  0.00    +0.001 A 
ATOM     25  C   UNL     1     -10.797   9.546   3.633  0.00  0.00    +0.010 A 
ATOM     26  C   UNL     1     -10.242   8.735   2.628  0.00  0.00    -0.000 A 
ATOM     27  C   UNL     1     -11.103   8.040   1.742  0.00  0.00    -0.017 A 
ATOM     28  C   UNL     1     -12.495   8.175   1.887  0.00  0.00    +0.008 A 
ATOM     29  C   UNL     1     -10.552   7.227   0.737  0.00  0.00    +0.012 A 
ATOM     30  C   UNL     1      -9.202   7.114   0.621  0.00  0.00    +0.047 A 
ATOM     31  C   UNL     1      -8.346   7.796   1.490  0.00  0.00    +0.135 A 
ATOM     32  C   UNL     1      -8.851   8.597   2.490  0.00  0.00    +0.067 A 
ATOM     33 BR   UNL     1      -7.681   9.508   3.663  0.00  0.00    -0.046 Br
ENDBRANCH  22  31
ENDBRANCH  21  22
ENDBRANCH   1  21
TORSDOF 5
