REMARK  Name = ZINC63796093
REMARK  5 active torsions:
REMARK  status: ('A' for Active; 'I' for Inactive)
REMARK    1  A    between atoms: C_1  and  C_2
REMARK    2  A    between atoms: C_2  and  C_3
REMARK    3  A    between atoms: C_8  and  C_10
REMARK    4  A    between atoms: C_13  and  C_16
REMARK    5  A    between atoms: C_16  and  N_17
REMARK                            x       y       z     vdW  Elec       q    Type
REMARK                         _______ _______ _______ _____ _____    ______ ____
ROOT
ATOM      1  C   UNL     1       4.225  -2.588   6.457  0.00  0.00    +0.075 C 
ATOM      2  C   UNL     1       4.866  -3.785   5.752  0.00  0.00    +0.013 C 
ATOM      3  C   UNL     1       3.804  -4.859   5.504  0.00  0.00    +0.005 C 
ATOM      4  C   UNL     1       3.214  -5.310   6.842  0.00  0.00    +0.004 C 
ATOM      5  C   UNL     1       2.574  -4.113   7.547  0.00  0.00    +0.005 C 
ATOM      6  C   UNL     1       3.635  -3.039   7.794  0.00  0.00    +0.013 C 
ENDROOT
BRANCH   1  12
ATOM      7  C   UNL     1       0.773  -0.002   1.817  0.00  0.00    +0.103 A 
ATOM      8  N   UNL     1       0.316  -0.407   2.985  0.00  0.00    -0.145 NA
ATOM      9  N   UNL     1       1.122  -0.907   3.821  0.00  0.00    -0.126 NA
ATOM     10  C   UNL     1       2.408  -1.035   3.558  0.00  0.00    +0.188 A 
ATOM     11  N   UNL     1       3.418  -1.558   4.358  0.00  0.00    -0.263 N 
ATOM     12  C   UNL     1       3.130  -2.021   5.590  0.00  0.00    +0.222 C 
ATOM     13  O   UNL     1       1.990  -1.982   6.002  0.00  0.00    -0.275 OA
ATOM     14  S   UNL     1       2.505  -0.406   1.997  0.00  0.00    -0.035 S 
ATOM     15  H   UNL     1       4.330  -1.589   4.029  0.00  0.00    +0.157 HD
BRANCH   7  17
ATOM     16  C   UNL     1       0.044   2.143   0.809  0.00  0.00    +0.011 C 
ATOM     17  C   UNL     1       0.042   0.621   0.656  0.00  0.00    +0.061 C 
ENDBRANCH   7  17
ENDBRANCH   1  12
BRANCH   4  18
ATOM     18  C   UNL     1       2.153  -6.384   6.594  0.00  0.00    +0.105 C 
BRANCH  18  19
ATOM     19  N   UNL     1       2.790  -7.583   6.035  0.00  0.00    -0.243 NA
ATOM     20  C   UNL     1       1.780  -8.609   5.688  0.00  0.00    +0.168 C 
ATOM     21  N   UNL     1       2.448  -9.896   6.017  0.00  0.00    -0.335 NA
ATOM     22  N   UNL     1       3.209  -9.565   7.232  0.00  0.00    +0.408 N 
ATOM     23  N   UNL     1       3.691  -8.200   7.007  0.00  0.00    -0.281 NA
ATOM     24  H   UNL     1       1.770 -10.619   6.201  0.00  0.00    +0.105 HD
ATOM     25  H   UNL     1       2.609  -9.597   8.042  0.00  0.00    -0.032 HD
ATOM     26  H   UNL     1       3.707  -7.675   7.869  0.00  0.00    +0.121 HD
ATOM     27  H   UNL     1       3.987 -10.198   7.343  0.00  0.00    -0.032 HD
ENDBRANCH  18  19
ENDBRANCH   4  18
TORSDOF 4
