REMARK  Name = ZINC22063417
REMARK  9 active torsions:
REMARK  status: ('A' for Active; 'I' for Inactive)
REMARK    1  A    between atoms: C_1  and  C_2
REMARK    2  A    between atoms: C_2  and  O_3
REMARK    3  A    between atoms: O_3  and  C_4
REMARK    4  A    between atoms: C_4  and  C_6
REMARK    5  A    between atoms: C_7  and  C_8
REMARK    6  A    between atoms: C_11  and  N_14
REMARK    7  A    between atoms: C_15  and  C_17
REMARK    8  A    between atoms: C_17  and  N_18
REMARK    9  A    between atoms: C_27  and  C_29
REMARK                            x       y       z     vdW  Elec       q    Type
REMARK                         _______ _______ _______ _____ _____    ______ ____
ROOT
ATOM      1  N   UNL     1      -7.997  -0.777  -1.557  0.00  0.00    -0.287 N 
ATOM      2  C   UNL     1      -7.440  -1.980  -1.313  0.00  0.00    +0.201 C 
ATOM      3  O   UNL     1      -6.233  -2.096  -1.294  0.00  0.00    -0.278 OA
ATOM      4  H   UNL     1      -9.089  -0.656  -1.505  0.00  0.00    +0.155 HD
ENDROOT
BRANCH   1   8
ATOM      5  C   UNL     1      -5.583   2.483  -2.510  0.00  0.00    -0.025 A 
ATOM      6  C   UNL     1      -6.836   2.336  -3.116  0.00  0.00    +0.010 A 
ATOM      7  C   UNL     1      -7.628   1.255  -2.803  0.00  0.00    +0.024 A 
ATOM      8  C   UNL     1      -7.189   0.314  -1.876  0.00  0.00    +0.033 A 
ATOM      9  C   UNL     1      -5.947   0.459  -1.266  0.00  0.00    +0.024 A 
ATOM     10  C   UNL     1      -5.146   1.534  -1.578  0.00  0.00    +0.010 A 
BRANCH   5  12
ATOM     11  C   UNL     1      -5.156   4.547  -3.745  0.00  0.00    +0.092 C 
ATOM     12  C   UNL     1      -4.732   3.633  -2.845  0.00  0.00    +0.015 C 
BRANCH  11  13
ATOM     13  C   UNL     1      -4.337   5.660  -4.064  0.00  0.00    +0.332 C 
ATOM     14  O   UNL     1      -3.250   5.788  -3.533  0.00  0.00    -0.246 OA
BRANCH  13  15
ATOM     15  O   UNL     1      -4.763   6.576  -4.959  0.00  0.00    -0.462 OA
BRANCH  15  17
ATOM     16  C   UNL     1      -4.535   8.598  -6.263  0.00  0.00    +0.048 C 
ATOM     17  C   UNL     1      -3.886   7.671  -5.233  0.00  0.00    +0.229 C 
ENDBRANCH  15  17
ENDBRANCH  13  15
ENDBRANCH  11  13
ENDBRANCH   5  12
ENDBRANCH   1   8
BRANCH   2  18
ATOM     18  C   UNL     1      -8.317  -3.180  -1.065  0.00  0.00    +0.020 C 
BRANCH  18  19
ATOM     19  N   UNL     1      -7.476  -4.360  -0.826  0.00  0.00    +0.396 N 
ATOM     20  C   UNL     1      -6.784  -4.769  -2.053  0.00  0.00    -0.041 C 
ATOM     21  C   UNL     1      -6.002  -6.035  -1.820  0.00  0.00    -0.061 A 
ATOM     22  C   UNL     1      -5.008  -6.373  -2.727  0.00  0.00    +0.002 A 
ATOM     23  C   UNL     1      -4.272  -7.528  -2.557  0.00  0.00    +0.000 A 
ATOM     24  C   UNL     1      -4.527  -8.354  -1.478  0.00  0.00    +0.000 A 
ATOM     25  C   UNL     1      -5.514  -8.019  -0.574  0.00  0.00    +0.004 A 
ATOM     26  C   UNL     1      -6.253  -6.857  -0.743  0.00  0.00    -0.047 A 
ATOM     27  C   UNL     1      -7.318  -6.529   0.272  0.00  0.00    +0.029 C 
ATOM     28  C   UNL     1      -8.273  -5.477  -0.295  0.00  0.00    +0.024 C 
ATOM     29  H   UNL     1      -6.718  -4.083  -0.079  0.00  0.00    -0.080 HD
BRANCH  28  30
ATOM     30  C   UNL     1      -9.181  -4.976   0.798  0.00  0.00    +0.197 C 
ATOM     31  O   UNL     1      -8.795  -4.117   1.561  0.00  0.00    -0.278 OA
ATOM     32  N   UNL     1     -10.423  -5.484   0.928  0.00  0.00    -0.331 N 
ATOM     33  H   UNL     1     -11.086  -5.118   1.726  0.00  0.00    +0.145 HD
ATOM     34  H   UNL     1     -10.773  -6.264   0.236  0.00  0.00    +0.145 HD
ENDBRANCH  28  30
ENDBRANCH  18  19
ENDBRANCH   2  18
TORSDOF 8
