REMARK  Name = ZINC39689600
REMARK  7 active torsions:
REMARK  status: ('A' for Active; 'I' for Inactive)
REMARK    1  A    between atoms: C_1  and  N_2
REMARK    2  A    between atoms: C_5  and  C_8
REMARK    3  A    between atoms: C_8  and  N_9
REMARK    4  A    between atoms: C_10  and  C_12
REMARK    5  A    between atoms: C_23  and  C_25
REMARK    6  A    between atoms: C_25  and  C_26
REMARK    7  A    between atoms: C_26  and  C_27
REMARK                            x       y       z     vdW  Elec       q    Type
REMARK                         _______ _______ _______ _____ _____    ______ ____
ROOT
ATOM      1  C   UNL     1       2.257  -6.592   1.302  0.00  0.00    +0.100 C 
ATOM      2  C   UNL     1       1.954  -6.976  -0.164  0.00  0.00    +0.121 C 
ATOM      3  N   UNL     1       1.954  -8.458  -0.171  0.00  0.00    -0.300 N 
ATOM      4  C   UNL     1       1.289  -8.832   1.100  0.00  0.00    +0.115 C 
ATOM      5  C   UNL     1       1.819  -7.813   2.128  0.00  0.00    -0.004 C 
ATOM      6  C   UNL     1       0.711  -7.422   3.102  0.00  0.00    -0.010 C 
ATOM      7  C   UNL     1       0.332  -8.638   3.952  0.00  0.00    -0.082 C 
ATOM      8  N   UNL     1       1.512  -9.110   4.687  0.00  0.00    +0.379 N 
ATOM      9  C   UNL     1       2.538  -9.571   3.743  0.00  0.00    -0.082 C 
ATOM     10  C   UNL     1       3.010  -8.395   2.884  0.00  0.00    -0.010 C 
ATOM     11  C   UNL     1       2.447  -9.279  -1.119  0.00  0.00    +0.216 C 
ATOM     12  O   UNL     1       2.371 -10.481  -0.979  0.00  0.00    -0.276 OA
ATOM     13  H   UNL     1       1.885  -8.355   5.244  0.00  0.00    -0.086 HD
ATOM     14  H   UNL     1       1.247  -9.872   5.292  0.00  0.00    -0.086 HD
ENDROOT
BRANCH   1  16
ATOM     15  N   UNL     1       1.939  -4.540   2.645  0.00  0.00    -0.315 N 
ATOM     16  C   UNL     1       1.462  -5.376   1.701  0.00  0.00    +0.218 C 
ATOM     17  O   UNL     1       0.394  -5.149   1.174  0.00  0.00    -0.275 OA
ATOM     18  H   UNL     1       2.793  -4.721   3.067  0.00  0.00    +0.149 HD
BRANCH  15  19
ATOM     19  C   UNL     1       1.167  -3.357   3.033  0.00  0.00    +0.105 C 
BRANCH  19  24
ATOM     20  C   UNL     1       1.714   0.865   5.283  0.00  0.00    -0.096 C 
ATOM     21  N   UNL     1       1.897  -0.160   4.247  0.00  0.00    +0.378 N 
ATOM     22  C   UNL     1       3.314  -0.603   4.209  0.00  0.00    -0.079 C 
ATOM     23  C   UNL     1       3.232  -1.995   3.534  0.00  0.00    -0.016 C 
ATOM     24  C   UNL     1       1.926  -2.584   4.114  0.00  0.00    -0.012 C 
ATOM     25  C   UNL     1       1.106  -1.365   4.577  0.00  0.00    -0.074 C 
ATOM     26  H   UNL     1       1.621   0.202   3.347  0.00  0.00    -0.082 HD
ENDBRANCH  19  24
ENDBRANCH  15  19
ENDBRANCH   1  16
BRANCH  11  27
ATOM     27  C   UNL     1       3.094  -8.704  -2.352  0.00  0.00    +0.096 C 
BRANCH  27  28
ATOM     28  C   UNL     1       3.565  -9.842  -3.259  0.00  0.00    +0.013 C 
BRANCH  28  29
ATOM     29  C   UNL     1       4.222  -9.258  -4.512  0.00  0.00    -0.011 C 
ATOM     30  C   UNL     1       3.163  -8.547  -5.381  0.00  0.00    +0.003 C 
ATOM     31  C   UNL     1       3.594  -8.861  -6.835  0.00  0.00    +0.000 C 
ATOM     32  C   UNL     1       4.091 -10.325  -6.736  0.00  0.00    +0.000 C 
ATOM     33  C   UNL     1       4.812 -10.388  -5.373  0.00  0.00    +0.003 C 
ENDBRANCH  28  29
ENDBRANCH  27  28
ENDBRANCH  11  27
TORSDOF 6
