REMARK  Name = ZINC22936759
REMARK  10 active torsions:
REMARK  status: ('A' for Active; 'I' for Inactive)
REMARK    1  A    between atoms: C_1  and  O_2
REMARK    2  A    between atoms: O_2  and  C_3
REMARK    3  A    between atoms: C_6  and  C_9
REMARK    4  A    between atoms: C_9  and  N_10
REMARK    5  A    between atoms: N_10  and  C_11
REMARK    6  A    between atoms: C_20  and  C_24
REMARK    7  A    between atoms: C_24  and  C_25
REMARK    8  A    between atoms: C_25  and  C_26
REMARK    9  A    between atoms: N_28  and  C_29
REMARK   10  A    between atoms: C_29  and  C_30
REMARK                            x       y       z     vdW  Elec       q    Type
REMARK                         _______ _______ _______ _____ _____    ______ ____
ROOT
ATOM      1  C   UNL     1      -6.665  -3.297  -1.501  0.00  0.00    +0.036 C 
ATOM      2  C   UNL     1      -7.875  -2.320  -1.453  0.00  0.00    +0.010 C 
ATOM      3  C   UNL     1      -8.889  -3.037  -2.356  0.00  0.00    +0.021 C 
ATOM      4  C   UNL     1      -9.945  -2.164  -2.951  0.00  0.00    +0.200 C 
ATOM      5  O   UNL     1     -10.389  -1.223  -2.329  0.00  0.00    -0.278 OA
ATOM      6  N   UNL     1     -10.397  -2.440  -4.191  0.00  0.00    -0.318 N 
ATOM      7  C   UNL     1      -9.841  -3.471  -5.059  0.00  0.00    +0.089 C 
ATOM      8  C   UNL     1      -8.834  -4.366  -4.322  0.00  0.00    -0.050 C 
ATOM      9  N   UNL     1      -8.023  -3.524  -3.464  0.00  0.00    +0.391 N 
ATOM     10  C   UNL     1      -6.859  -4.113  -2.805  0.00  0.00    -0.059 C 
ATOM     11  H   UNL     1     -11.142  -1.919  -4.527  0.00  0.00    +0.149 HD
ATOM     12  H   UNL     1      -7.711  -2.732  -4.006  0.00  0.00    -0.080 HD
ENDROOT
BRANCH   1  13
ATOM     13  N   UNL     1      -5.403  -2.546  -1.551  0.00  0.00    -0.311 NA
ATOM     14  H   UNL     1      -5.504  -1.707  -2.103  0.00  0.00    +0.122 HD
BRANCH  13  15
ATOM     15  C   UNL     1      -4.923  -2.232  -0.199  0.00  0.00    +0.116 C 
BRANCH  15  19
ATOM     16  C   UNL     1      -1.257  -0.051  -0.460  0.00  0.00    +0.120 A 
ATOM     17  C   UNL     1      -2.468   0.625  -0.438  0.00  0.00    +0.046 A 
ATOM     18  C   UNL     1      -3.652  -0.082  -0.353  0.00  0.00    +0.008 A 
ATOM     19  C   UNL     1      -3.630  -1.463  -0.291  0.00  0.00    -0.033 A 
ATOM     20  C   UNL     1      -2.424  -2.139  -0.312  0.00  0.00    +0.008 A 
ATOM     21  C   UNL     1      -1.238  -1.437  -0.403  0.00  0.00    +0.046 A 
BRANCH  16  23
ATOM     22  C   UNL     1      -0.187   2.067  -0.598  0.00  0.00    +0.277 C 
ATOM     23  O   UNL     1      -0.091   0.643  -0.543  0.00  0.00    -0.495 OA
ENDBRANCH  16  23
ENDBRANCH  15  19
ENDBRANCH  13  15
ENDBRANCH   1  13
BRANCH   8  24
ATOM     24  C   UNL     1      -7.941  -5.087  -5.334  0.00  0.00    -0.005 C 
BRANCH  24  25
ATOM     25  C   UNL     1      -8.789  -6.054  -6.163  0.00  0.00    +0.094 C 
BRANCH  25  26
ATOM     26  C   UNL     1      -7.893  -6.853  -7.074  0.00  0.00    +0.213 C 
ATOM     27  O   UNL     1      -6.694  -6.667  -7.061  0.00  0.00    -0.276 OA
ATOM     28  N   UNL     1      -8.423  -7.775  -7.902  0.00  0.00    -0.311 N 
ATOM     29  H   UNL     1      -9.381  -7.923  -7.912  0.00  0.00    +0.149 HD
BRANCH  28  30
ATOM     30  C   UNL     1      -7.551  -8.552  -8.787  0.00  0.00    +0.139 C 
BRANCH  30  31
ATOM     31  C   UNL     1      -8.386  -9.505  -9.604  0.00  0.00    -0.030 A 
ATOM     32  C   UNL     1      -8.653 -10.774  -9.124  0.00  0.00    +0.008 A 
ATOM     33  C   UNL     1      -9.418 -11.648  -9.872  0.00  0.00    +0.038 A 
ATOM     34  C   UNL     1      -9.918 -11.253 -11.101  0.00  0.00    +0.123 A 
ATOM     35  C   UNL     1      -9.650  -9.982 -11.580  0.00  0.00    +0.038 A 
ATOM     36  C   UNL     1      -8.889  -9.107 -10.829  0.00  0.00    +0.008 A 
ATOM     37  F   UNL     1     -10.666 -12.107 -11.833  0.00  0.00    -0.205 F 
ENDBRANCH  30  31
ENDBRANCH  28  30
ENDBRANCH  25  26
ENDBRANCH  24  25
ENDBRANCH   8  24
TORSDOF 9
