REMARK  Name = ZINC27236300
REMARK  12 active torsions:
REMARK  status: ('A' for Active; 'I' for Inactive)
REMARK    1  A    between atoms: C_1  and  C_2
REMARK    2  A    between atoms: C_2  and  O_3
REMARK    3  A    between atoms: O_3  and  C_4
REMARK    4  A    between atoms: C_7  and  C_10
REMARK    5  A    between atoms: C_10  and  C_11
REMARK    6  A    between atoms: C_10  and  C_18
REMARK    7  A    between atoms: C_10  and  O_35
REMARK    8  A    between atoms: C_15  and  C_17
REMARK    9  A    between atoms: C_18  and  C_20
REMARK   10  A    between atoms: C_18  and  O_26
REMARK   11  A    between atoms: C_20  and  N_21
REMARK   12  A    between atoms: O_26  and  C_27
REMARK                            x       y       z     vdW  Elec       q    Type
REMARK                         _______ _______ _______ _____ _____    ______ ____
ROOT
ATOM      1  C   UNL     1       0.612   5.352   0.670  0.00  0.00    +0.151 C 
ENDROOT
BRANCH   1   2
ATOM      2  C   UNL     1       1.335   4.048   0.892  0.00  0.00    -0.008 A 
ATOM      3  C   UNL     1       2.717   4.015   0.888  0.00  0.00    +0.007 A 
ATOM      4  C   UNL     1       3.380   2.819   1.091  0.00  0.00    +0.001 A 
ATOM      5  C   UNL     1       2.661   1.657   1.298  0.00  0.00    +0.003 A 
ATOM      6  C   UNL     1       1.280   1.689   1.296  0.00  0.00    -0.050 A 
ATOM      7  C   UNL     1       0.616   2.886   1.099  0.00  0.00    +0.010 A 
ATOM      8  C   UNL     1       0.496   0.420   1.515  0.00  0.00    +0.044 C 
ENDBRANCH   1   2
BRANCH   1  12
ATOM      9  C   UNL     1      -0.044   7.274   4.430  0.00  0.00    +0.121 A 
ATOM     10  C   UNL     1      -0.991   6.395   3.925  0.00  0.00    +0.046 A 
ATOM     11  C   UNL     1      -0.776   5.775   2.709  0.00  0.00    +0.010 A 
ATOM     12  C   UNL     1       0.381   6.029   1.996  0.00  0.00    -0.008 A 
ATOM     13  C   UNL     1       1.329   6.901   2.501  0.00  0.00    +0.010 A 
ATOM     14  C   UNL     1       1.116   7.528   3.713  0.00  0.00    +0.046 A 
BRANCH   9  15
ATOM     15  O   UNL     1      -0.253   7.886   5.626  0.00  0.00    -0.492 OA
BRANCH  15  17
ATOM     16  C   UNL     1       0.356   9.366   7.437  0.00  0.00    +0.048 C 
ATOM     17  C   UNL     1       0.765   8.778   6.085  0.00  0.00    +0.225 C 
ENDBRANCH  15  17
ENDBRANCH   9  15
ENDBRANCH   1  12
BRANCH   1  18
ATOM     18  O   UNL     1      -0.645   5.098   0.040  0.00  0.00    -0.376 OA
ATOM     19  H   UNL     1      -0.677   4.606  -0.944  0.00  0.00    +0.211 HD
ENDBRANCH   1  18
BRANCH   1  20
ATOM     20  C   UNL     1       1.458   6.258  -0.225  0.00  0.00    +0.198 C 
BRANCH  20  21
ATOM     21  C   UNL     1       0.725   7.582  -0.450  0.00  0.00    -0.030 C 
BRANCH  21  22
ATOM     22  N   UNL     1       1.579   8.490  -1.227  0.00  0.00    +0.382 N 
ATOM     23  C   UNL     1       1.607   8.099  -2.660  0.00  0.00    -0.079 C 
ATOM     24  C   UNL     1       2.073   9.394  -3.371  0.00  0.00    -0.020 C 
ATOM     25  C   UNL     1       1.367  10.507  -2.562  0.00  0.00    -0.020 C 
ATOM     26  C   UNL     1       1.051   9.871  -1.196  0.00  0.00    -0.079 C 
ATOM     27  H   UNL     1       2.576   8.429  -0.767  0.00  0.00    -0.082 HD
ENDBRANCH  21  22
ENDBRANCH  20  21
BRANCH  20  28
ATOM     28  O   UNL     1       1.678   5.616  -1.482  0.00  0.00    -0.486 OA
BRANCH  28  29
ATOM     29  C   UNL     1       2.969   5.442  -1.870  0.00  0.00    +0.139 A 
ATOM     30  C   UNL     1       3.998   6.001  -1.127  0.00  0.00    +0.048 A 
ATOM     31  C   UNL     1       5.311   5.821  -1.520  0.00  0.00    +0.023 A 
ATOM     32  C   UNL     1       5.598   5.090  -2.659  0.00  0.00    +0.043 A 
ATOM     33  C   UNL     1       4.574   4.536  -3.405  0.00  0.00    +0.043 A 
ATOM     34  C   UNL     1       3.260   4.711  -3.013  0.00  0.00    +0.084 A 
ATOM     35 CL   UNL     1       1.974   4.016  -3.950  0.00  0.00    -0.080 Cl
ATOM     36 CL   UNL     1       7.248   4.870  -3.154  0.00  0.00    -0.083 Cl
ENDBRANCH  28  29
ENDBRANCH  20  28
ENDBRANCH   1  20
TORSDOF 10
