REMARK  Name = ZINC20110792
REMARK  12 active torsions:
REMARK  status: ('A' for Active; 'I' for Inactive)
REMARK    1  A    between atoms: C_1  and  C_2
REMARK    2  A    between atoms: C_2  and  N_3
REMARK    3  A    between atoms: N_11  and  N_12
REMARK    4  A    between atoms: C_13  and  C_15
REMARK    5  A    between atoms: C_15  and  N_28
REMARK    6  A    between atoms: C_16  and  C_17
REMARK    7  A    between atoms: C_20  and  N_23
REMARK    8  A    between atoms: N_23  and  C_24
REMARK    9  A    between atoms: N_23  and  C_26
REMARK   10  A    between atoms: C_24  and  C_25
REMARK   11  A    between atoms: C_26  and  C_27
REMARK   12  A    between atoms: C_29  and  C_31
REMARK                            x       y       z     vdW  Elec       q    Type
REMARK                         _______ _______ _______ _____ _____    ______ ____
ROOT
ATOM      1  C   UNL     1       3.103  -2.844   7.336  0.00  0.00    +0.098 C 
ATOM      2  C   UNL     1       2.757  -3.570   8.428  0.00  0.00    +0.036 C 
ENDROOT
BRANCH   2   3
ATOM      3  C   UNL     1       1.401  -3.462   8.982  0.00  0.00    -0.023 A 
ATOM      4  C   UNL     1       0.289  -3.523   8.134  0.00  0.00    +0.010 A 
ATOM      5  C   UNL     1      -0.980  -3.421   8.657  0.00  0.00    +0.024 A 
ATOM      6  C   UNL     1      -1.158  -3.258  10.028  0.00  0.00    +0.030 A 
ATOM      7  C   UNL     1      -0.055  -3.197  10.876  0.00  0.00    +0.024 A 
ATOM      8  C   UNL     1       1.217  -3.304  10.362  0.00  0.00    +0.010 A 
BRANCH   6   9
ATOM      9  N   UNL     1      -2.443  -3.156  10.553  0.00  0.00    -0.330 N 
BRANCH   9  10
ATOM     10  C   UNL     1      -2.634  -2.984  11.996  0.00  0.00    +0.102 C 
ATOM     11  C   UNL     1      -2.653  -1.492  12.334  0.00  0.00    +0.024 C 
ENDBRANCH   9  10
BRANCH   9  12
ATOM     12  C   UNL     1      -3.606  -3.219   9.664  0.00  0.00    +0.102 C 
ATOM     13  C   UNL     1      -4.058  -4.674   9.518  0.00  0.00    +0.024 C 
ENDBRANCH   9  12
ENDBRANCH   6   9
ENDBRANCH   2   3
BRANCH   1  15
ATOM     14  N   UNL     1       2.482  -1.165   5.682  0.00  0.00    -0.201 N 
ATOM     15  C   UNL     1       2.214  -1.785   6.848  0.00  0.00    +0.277 C 
ATOM     16  O   UNL     1       1.235  -1.466   7.497  0.00  0.00    -0.267 OA
ATOM     17  H   UNL     1       3.263  -1.419   5.166  0.00  0.00    +0.178 HD
BRANCH  14  26
ATOM     18  N   UNL     1       1.565   1.643   2.155  0.00  0.00    -0.266 N 
ATOM     19  C   UNL     1       2.757   0.945   1.995  0.00  0.00    +0.046 A 
ATOM     20  C   UNL     1       3.684   0.924   0.959  0.00  0.00    +0.024 A 
ATOM     21  C   UNL     1       4.807   0.127   1.050  0.00  0.00    +0.002 A 
ATOM     22  C   UNL     1       5.026  -0.658   2.169  0.00  0.00    +0.001 A 
ATOM     23  C   UNL     1       4.117  -0.650   3.208  0.00  0.00    +0.012 A 
ATOM     24  C   UNL     1       2.982   0.149   3.126  0.00  0.00    +0.028 A 
ATOM     25  C   UNL     1       1.839   0.385   4.037  0.00  0.00    +0.153 C 
ATOM     26  N   UNL     1       1.633  -0.152   5.216  0.00  0.00    -0.174 NA
ATOM     27  C   UNL     1       0.984   1.361   3.333  0.00  0.00    +0.271 C 
ATOM     28  O   UNL     1      -0.062   1.826   3.745  0.00  0.00    -0.268 OA
BRANCH  18  30
ATOM     29  C   UNL     1       1.548   3.982   1.439  0.00  0.00    +0.025 C 
ATOM     30  C   UNL     1       1.015   2.574   1.166  0.00  0.00    +0.111 C 
ENDBRANCH  18  30
ENDBRANCH  14  26
ENDBRANCH   1  15
BRANCH   1  31
ATOM     31  N   UNL     1       4.308  -3.107   6.675  0.00  0.00    -0.277 N 
ATOM     32  C   UNL     1       5.234  -2.135   6.551  0.00  0.00    +0.248 C 
ATOM     33  O   UNL     1       5.063  -1.060   7.093  0.00  0.00    -0.270 OA
ATOM     34  H   UNL     1       4.476  -3.987   6.305  0.00  0.00    +0.155 HD
BRANCH  32  35
ATOM     35  C   UNL     1       6.457  -2.377   5.758  0.00  0.00    +0.037 A 
ATOM     36  C   UNL     1       6.653  -3.608   5.130  0.00  0.00    +0.013 A 
ATOM     37  C   UNL     1       7.797  -3.827   4.390  0.00  0.00    +0.001 A 
ATOM     38  C   UNL     1       8.749  -2.830   4.270  0.00  0.00    +0.000 A 
ATOM     39  C   UNL     1       8.560  -1.607   4.890  0.00  0.00    +0.001 A 
ATOM     40  C   UNL     1       7.418  -1.373   5.628  0.00  0.00    +0.013 A 
ENDBRANCH  32  35
ENDBRANCH   1  31
TORSDOF 9
