REMARK  Name = ZINC38966591
REMARK  9 active torsions:
REMARK  status: ('A' for Active; 'I' for Inactive)
REMARK    1  A    between atoms: C_1  and  N_2
REMARK    2  A    between atoms: N_2  and  C_3
REMARK    3  A    between atoms: N_2  and  C_4
REMARK    4  A    between atoms: C_4  and  C_5
REMARK    5  A    between atoms: C_5  and  N_6
REMARK    6  A    between atoms: N_6  and  C_7
REMARK    7  A    between atoms: N_13  and  C_15
REMARK    8  A    between atoms: C_15  and  C_16
REMARK    9  A    between atoms: C_23  and  N_28
REMARK                            x       y       z     vdW  Elec       q    Type
REMARK                         _______ _______ _______ _____ _____    ______ ____
ROOT
ATOM      1  C   UNL     1      -4.162  -0.250  -2.510  0.00  0.00    +0.203 C 
ATOM      2  C   UNL     1      -5.481   0.371  -2.105  0.00  0.00    -0.013 C 
ATOM      3  C   UNL     1      -6.615  -0.159  -2.562  0.00  0.00    -0.028 C 
ATOM      4  C   UNL     1      -7.964   0.409  -2.207  0.00  0.00    +0.051 C 
ATOM      5  C   UNL     1      -7.846   1.329  -0.991  0.00  0.00    +0.090 C 
ATOM      6  N   UNL     1      -6.744   2.274  -1.232  0.00  0.00    -0.294 NA
ATOM      7  C   UNL     1      -5.460   1.567  -1.192  0.00  0.00    +0.119 C 
ATOM      8  C   UNL     1      -6.551  -1.332  -3.439  0.00  0.00    +0.063 C 
ATOM      9  C   UNL     1      -7.492  -2.114  -4.071  0.00  0.00    +0.121 C 
ATOM     10  N   UNL     1      -6.840  -3.071  -4.761  0.00  0.00    -0.262 N 
ATOM     11  N   UNL     1      -5.564  -2.987  -4.637  0.00  0.00    -0.152 NA
ATOM     12  C   UNL     1      -5.246  -1.928  -3.825  0.00  0.00    +0.181 C 
ATOM     13  N   UNL     1      -4.141  -1.421  -3.389  0.00  0.00    -0.240 NA
ATOM     14  H   UNL     1      -7.285  -3.750  -5.293  0.00  0.00    +0.190 HD
ENDROOT
BRANCH   9  15
ATOM     15  N   UNL     1      -8.872  -1.945  -4.010  0.00  0.00    -0.343 N 
ATOM     16  H   UNL     1      -9.249  -1.222  -3.484  0.00  0.00    +0.144 HD
ATOM     17  H   UNL     1      -9.457  -2.550  -4.492  0.00  0.00    +0.144 HD
ENDBRANCH   9  15
BRANCH   1  18
ATOM     18  N   UNL     1      -3.456  -0.619  -1.276  0.00  0.00    -0.293 NA
ATOM     19  H   UNL     1      -3.472  -1.617  -1.134  0.00  0.00    +0.124 HD
BRANCH  18  20
ATOM     20  C   UNL     1      -2.078  -0.110  -1.286  0.00  0.00    +0.064 C 
BRANCH  20  21
ATOM     21  C   UNL     1      -1.376  -0.512   0.012  0.00  0.00    -0.064 C 
BRANCH  21  23
ATOM     22  C   UNL     1      -0.018   1.465   0.010  0.00  0.00    -0.097 C 
ATOM     23  N   UNL     1       0.002  -0.004   0.002  0.00  0.00    +0.377 N 
ATOM     24  C   UNL     1       0.713  -0.491   1.192  0.00  0.00    -0.097 C 
ATOM     25  H   UNL     1       0.474  -0.330  -0.828  0.00  0.00    -0.083 HD
ENDBRANCH  21  23
ENDBRANCH  20  21
ENDBRANCH  18  20
ENDBRANCH   1  18
BRANCH   6  26
ATOM     26  C   UNL     1      -6.770   3.373  -0.258  0.00  0.00    +0.120 C 
BRANCH  26  27
ATOM     27  C   UNL     1      -8.009   4.205  -0.472  0.00  0.00    -0.033 A 
ATOM     28  C   UNL     1      -7.978   5.278  -1.343  0.00  0.00    +0.005 A 
ATOM     29  C   UNL     1      -9.114   6.041  -1.540  0.00  0.00    +0.000 A 
ATOM     30  C   UNL     1     -10.280   5.730  -0.866  0.00  0.00    +0.000 A 
ATOM     31  C   UNL     1     -10.311   4.656   0.004  0.00  0.00    +0.000 A 
ATOM     32  C   UNL     1      -9.177   3.891   0.197  0.00  0.00    +0.005 A 
ENDBRANCH  26  27
ENDBRANCH   6  26
TORSDOF 7
