REMARK  Name = ZINC36108221
REMARK  5 active torsions:
REMARK  status: ('A' for Active; 'I' for Inactive)
REMARK    1  A    between atoms: C_1  and  C_2
REMARK    2  A    between atoms: C_5  and  C_26
REMARK    3  A    between atoms: N_8  and  C_10
REMARK    4  A    between atoms: C_10  and  C_12
REMARK    5  A    between atoms: C_10  and  C_18
REMARK                            x       y       z     vdW  Elec       q    Type
REMARK                         _______ _______ _______ _____ _____    ______ ____
ROOT
ATOM      1  C   UNL     1       1.515  -2.460   2.373  0.00  0.00    +0.067 C 
ENDROOT
BRANCH   1   7
ATOM      2  C   UNL     1      -0.388   1.537   0.282  0.00  0.00    +0.005 C 
ATOM      3  C   UNL     1      -0.192   0.026   0.140  0.00  0.00    -0.031 C 
ATOM      4  C   UNL     1      -1.558  -0.659   0.035  0.00  0.00    +0.003 C 
ATOM      5  C   UNL     1      -1.354  -2.175  -0.029  0.00  0.00    -0.031 C 
ATOM      6  C   UNL     1      -0.570  -2.631   1.204  0.00  0.00    -0.074 C 
ATOM      7  N   UNL     1       0.736  -1.961   1.232  0.00  0.00    +0.391 N 
ATOM      8  C   UNL     1       0.550  -0.511   1.365  0.00  0.00    -0.074 C 
ATOM      9  C   UNL     1      -2.716  -2.873  -0.056  0.00  0.00    +0.005 C 
ATOM     10  H   UNL     1       1.232  -2.158   0.377  0.00  0.00    -0.080 HD
ENDBRANCH   1   7
BRANCH   1  11
ATOM     11  C   UNL     1       2.897  -1.860   2.338  0.00  0.00    +0.208 C 
ATOM     12  O   UNL     1       3.314  -1.357   1.316  0.00  0.00    -0.277 OA
ATOM     13  N   UNL     1       3.670  -1.883   3.442  0.00  0.00    -0.300 N 
ATOM     14  C   UNL     1       3.149  -2.399   4.717  0.00  0.00    +0.123 C 
ATOM     15  C   UNL     1       3.418  -1.358   5.810  0.00  0.00    +0.100 C 
ATOM     16  N   UNL     1       4.846  -1.016   5.815  0.00  0.00    -0.313 NA
ATOM     17  C   UNL     1       5.249  -0.391   4.548  0.00  0.00    +0.100 C 
ATOM     18  C   UNL     1       5.058  -1.397   3.402  0.00  0.00    +0.123 C 
ATOM     19  H   UNL     1       5.073  -0.423   6.599  0.00  0.00    +0.122 HD
ENDBRANCH   1  11
BRANCH   1  20
ATOM     20  C   UNL     1       1.617  -3.962   2.294  0.00  0.00    +0.011 A 
ATOM     21  C   UNL     1       1.742  -4.687   1.164  0.00  0.00    +0.021 A 
ATOM     22  C   UNL     1       1.803  -6.044   1.539  0.00  0.00    +0.019 A 
ATOM     23  C   UNL     1       1.713  -6.096   2.883  0.00  0.00    +0.082 A 
ATOM     24  N   UNL     1       1.604  -4.820   3.353  0.00  0.00    -0.365 N 
ATOM     25  H   UNL     1       1.528  -4.566   4.286  0.00  0.00    +0.165 HD
ENDBRANCH   1  20
TORSDOF 3
