REMARK  Name = ZINC32796465
REMARK  14 active torsions:
REMARK  status: ('A' for Active; 'I' for Inactive)
REMARK    1  A    between atoms: C_1  and  C_2
REMARK    2  A    between atoms: C_2  and  O_3
REMARK    3  A    between atoms: O_3  and  C_4
REMARK    4  A    between atoms: C_7  and  C_12
REMARK    5  A    between atoms: C_9  and  O_10
REMARK    6  A    between atoms: O_10  and  C_11
REMARK    7  A    between atoms: N_16  and  C_20
REMARK    8  A    between atoms: C_20  and  C_21
REMARK    9  A    between atoms: C_21  and  N_22
REMARK   10  A    between atoms: C_23  and  C_25
REMARK   11  A    between atoms: C_25  and  C_26
REMARK   12  A    between atoms: C_26  and  C_28
REMARK   13  A    between atoms: C_26  and  N_35
REMARK   14  A    between atoms: C_32  and  C_34
REMARK                            x       y       z     vdW  Elec       q    Type
REMARK                         _______ _______ _______ _____ _____    ______ ____
ROOT
ATOM      1  C   UNL     1      -2.057  -0.051  -5.298  0.00  0.00    +0.123 C 
ENDROOT
BRANCH   1   2
ATOM      2  N   UNL     1      -1.762  -0.885  -4.130  0.00  0.00    -0.314 N 
ATOM      3  C   UNL     1      -1.987  -0.410  -2.889  0.00  0.00    +0.215 C 
ATOM      4  O   UNL     1      -2.433   0.707  -2.739  0.00  0.00    -0.276 OA
ATOM      5  H   UNL     1      -1.357  -1.899  -4.267  0.00  0.00    +0.149 HD
BRANCH   3   6
ATOM      6  C   UNL     1      -1.683  -1.268  -1.688  0.00  0.00    +0.122 C 
BRANCH   6   7
ATOM      7  C   UNL     1      -2.026  -0.498  -0.411  0.00  0.00    +0.113 C 
BRANCH   7   8
ATOM      8  C   UNL     1      -1.839  -1.398   0.783  0.00  0.00    -0.026 A 
ATOM      9  C   UNL     1      -0.571  -1.627   1.285  0.00  0.00    +0.005 A 
ATOM     10  C   UNL     1      -0.399  -2.451   2.381  0.00  0.00    +0.001 A 
ATOM     11  C   UNL     1      -1.496  -3.047   2.976  0.00  0.00    +0.003 A 
ATOM     12  C   UNL     1      -2.764  -2.818   2.475  0.00  0.00    -0.050 A 
ATOM     13  C   UNL     1      -2.935  -1.989   1.381  0.00  0.00    +0.008 A 
ATOM     14  C   UNL     1      -3.959  -3.467   3.123  0.00  0.00    +0.044 C 
ENDBRANCH   7   8
BRANCH   7  15
ATOM     15  N   UNL     1      -1.142   0.664  -0.290  0.00  0.00    -0.292 N 
ATOM     16  C   UNL     1      -1.530   1.733   0.433  0.00  0.00    +0.298 C 
ATOM     17  O   UNL     1      -2.648   1.770   0.911  0.00  0.00    -0.253 OA
ATOM     18  N   UNL     1      -0.678   2.758   0.631  0.00  0.00    -0.313 N 
ATOM     19  H   UNL     1      -0.162   0.664  -0.790  0.00  0.00    +0.151 HD
ATOM     20  H   UNL     1      -0.995   3.631   1.221  0.00  0.00    +0.146 HD
ATOM     21  H   UNL     1       0.334   2.723   0.202  0.00  0.00    +0.146 HD
ENDBRANCH   7  15
ENDBRANCH   6   7
ENDBRANCH   3   6
ENDBRANCH   1   2
BRANCH   1  22
ATOM     22  C   UNL     1      -1.715  -0.821  -6.575  0.00  0.00    +0.136 C 
BRANCH  22  27
ATOM     23  C   UNL     1      -0.677   2.509 -10.102  0.00  0.00    +0.028 C 
ATOM     24  C   UNL     1      -1.428   1.620  -9.403  0.00  0.00    +0.080 C 
ATOM     25  C   UNL     1      -1.068   0.805  -8.226  0.00  0.00    +0.260 C 
ATOM     26  O   UNL     1       0.040   0.860  -7.725  0.00  0.00    -0.269 OA
ATOM     27  N   UNL     1      -2.010   0.013  -7.742  0.00  0.00    -0.227 N 
ATOM     28  C   UNL     1      -3.235  -0.048  -8.303  0.00  0.00    +0.286 C 
ATOM     29  O   UNL     1      -4.186  -0.729  -7.969  0.00  0.00    -0.262 OA
ATOM     30  S   UNL     1      -3.124   1.114  -9.654  0.00  0.00    -0.026 S 
BRANCH  23  34
ATOM     31  C   UNL     1      -2.174   4.192 -13.698  0.00  0.00    +0.162 A 
ATOM     32  C   UNL     1      -1.001   4.681 -13.139  0.00  0.00    +0.050 A 
ATOM     33  C   UNL     1      -0.511   4.138 -11.972  0.00  0.00    +0.012 A 
ATOM     34  C   UNL     1      -1.197   3.090 -11.346  0.00  0.00    -0.020 A 
ATOM     35  C   UNL     1      -2.377   2.594 -11.914  0.00  0.00    +0.057 A 
ATOM     36  C   UNL     1      -2.863   3.148 -13.082  0.00  0.00    +0.162 A 
BRANCH  36  37
ATOM     37  O   UNL     1      -4.011   2.672 -13.633  0.00  0.00    -0.491 OA
ATOM     38  C   UNL     1      -4.665   1.602 -12.948  0.00  0.00    +0.277 C 
ENDBRANCH  36  37
BRANCH  31  39
ATOM     39  O   UNL     1      -2.652   4.731 -14.850  0.00  0.00    -0.489 OA
BRANCH  39  41
ATOM     40  C   UNL     1      -2.585   6.272 -16.711  0.00  0.00    +0.048 C 
ATOM     41  C   UNL     1      -1.897   5.797 -15.429  0.00  0.00    +0.226 C 
ENDBRANCH  39  41
ENDBRANCH  31  39
ENDBRANCH  23  34
ENDBRANCH  22  27
ENDBRANCH   1  22
TORSDOF 11
