REMARK  Name = ZINC65301350
REMARK  12 active torsions:
REMARK  status: ('A' for Active; 'I' for Inactive)
REMARK    1  A    between atoms: C_1  and  C_2
REMARK    2  A    between atoms: C_2  and  N_3
REMARK    3  A    between atoms: N_3  and  C_4
REMARK    4  A    between atoms: C_4  and  C_5
REMARK    5  A    between atoms: C_6  and  C_8
REMARK    6  A    between atoms: C_13  and  N_14
REMARK    7  A    between atoms: C_17  and  C_20
REMARK    8  A    between atoms: N_22  and  C_23
REMARK    9  A    between atoms: C_24  and  C_31
REMARK   10  A    between atoms: C_26  and  C_30
REMARK   11  A    between atoms: C_28  and  C_29
REMARK   12  A    between atoms: C_32  and  C_35
REMARK                            x       y       z     vdW  Elec       q    Type
REMARK                         _______ _______ _______ _____ _____    ______ ____
ROOT
ATOM      1  N   UNL     1      -2.175  -2.240   4.298  0.00  0.00    -0.329 N 
ATOM      2  C   UNL     1      -1.012  -2.516   5.153  0.00  0.00    +0.106 C 
ATOM      3  C   UNL     1      -1.508  -2.885   6.555  0.00  0.00    +0.031 C 
ATOM      4  C   UNL     1      -2.423  -1.774   7.077  0.00  0.00    +0.078 C 
ATOM      5  C   UNL     1      -3.637  -1.637   6.156  0.00  0.00    +0.031 C 
ATOM      6  C   UNL     1      -3.163  -1.250   4.747  0.00  0.00    +0.106 C 
ENDROOT
BRANCH   1  12
ATOM      7  C   UNL     1      -3.126  -4.047   3.002  0.00  0.00    +0.074 A 
ATOM      8  C   UNL     1      -3.279  -4.694   1.768  0.00  0.00    +0.098 A 
ATOM      9  N   UNL     1      -2.677  -4.232   0.693  0.00  0.00    -0.353 N 
ATOM     10  C   UNL     1      -1.918  -3.157   0.733  0.00  0.00    +0.107 A 
ATOM     11  C   UNL     1      -1.691  -2.421   1.919  0.00  0.00    +0.050 A 
ATOM     12  C   UNL     1      -2.333  -2.895   3.094  0.00  0.00    +0.055 A 
ATOM     13  C   UNL     1      -0.849  -1.313   1.722  0.00  0.00    +0.058 A 
ATOM     14  N   UNL     1      -0.364  -1.050   0.547  0.00  0.00    -0.213 NA
ATOM     15  S   UNL     1      -0.967  -2.247  -0.458  0.00  0.00    +0.030 S 
ATOM     16  C   UNL     1      -0.506  -0.421   2.887  0.00  0.00    +0.067 C 
ATOM     17  H   UNL     1      -2.796  -4.696  -0.151  0.00  0.00    +0.166 HD
BRANCH   7  19
ATOM     18  N   UNL     1      -5.148  -4.652   4.231  0.00  0.00    -0.298 N 
ATOM     19  C   UNL     1      -3.803  -4.573   4.198  0.00  0.00    +0.250 C 
ATOM     20  O   UNL     1      -3.149  -4.936   5.157  0.00  0.00    -0.270 OA
BRANCH  18  22
ATOM     21  C   UNL     1      -5.994  -6.583   5.471  0.00  0.00    +0.024 C 
ATOM     22  C   UNL     1      -5.827  -5.062   5.463  0.00  0.00    +0.104 C 
ENDBRANCH  18  22
BRANCH  18  23
ATOM     23  C   UNL     1      -5.931  -4.327   3.036  0.00  0.00    +0.104 C 
ATOM     24  C   UNL     1      -6.363  -2.861   3.092  0.00  0.00    +0.024 C 
ENDBRANCH  18  23
ENDBRANCH   7  19
ENDBRANCH   1  12
BRANCH   4  25
ATOM     25  C   UNL     1      -2.885  -2.118   8.469  0.00  0.00    +0.220 C 
ATOM     26  O   UNL     1      -2.519  -3.148   8.993  0.00  0.00    -0.275 OA
ATOM     27  N   UNL     1      -3.705  -1.279   9.133  0.00  0.00    -0.285 N 
ATOM     28  H   UNL     1      -4.027  -0.473   8.701  0.00  0.00    +0.155 HD
BRANCH  27  29
ATOM     29  C   UNL     1      -4.092  -1.572  10.445  0.00  0.00    +0.039 A 
ATOM     30  C   UNL     1      -4.736  -2.769  10.730  0.00  0.00    -0.029 A 
ATOM     31  C   UNL     1      -5.117  -3.055  12.027  0.00  0.00    +0.008 A 
ATOM     32  C   UNL     1      -4.858  -2.151  13.040  0.00  0.00    -0.050 A 
ATOM     33  C   UNL     1      -4.217  -0.958  12.760  0.00  0.00    +0.008 A 
ATOM     34  C   UNL     1      -3.828  -0.669  11.467  0.00  0.00    -0.029 A 
ATOM     35  C   UNL     1      -3.123   0.628  11.163  0.00  0.00    +0.045 C 
ATOM     36  C   UNL     1      -5.274  -2.466  14.454  0.00  0.00    +0.044 C 
ATOM     37  C   UNL     1      -5.020  -3.754   9.626  0.00  0.00    +0.045 C 
ENDBRANCH  27  29
ENDBRANCH   4  25
TORSDOF 6
