REMARK  Name = ZINC08636007
REMARK  9 active torsions:
REMARK  status: ('A' for Active; 'I' for Inactive)
REMARK    1  A    between atoms: C_1  and  O_2
REMARK    2  A    between atoms: O_2  and  C_3
REMARK    3  A    between atoms: C_3  and  C_4
REMARK    4  A    between atoms: C_4  and  N_61
REMARK    5  A    between atoms: C_5  and  N_61
REMARK    6  A    between atoms: C_8  and  C_30
REMARK    7  A    between atoms: C_10  and  C_26
REMARK    8  A    between atoms: C_26  and  O_28
REMARK    9  A    between atoms: O_28  and  C_29
REMARK                            x       y       z     vdW  Elec       q    Type
REMARK                         _______ _______ _______ _____ _____    ______ ____
ROOT
ATOM      1  C   UNL     1       3.657  -0.989   2.005  0.00  0.00    -0.074 C 
ATOM      2  C   UNL     1       2.336  -1.591   2.491  0.00  0.00    -0.027 C 
ATOM      3  C   UNL     1       1.304  -1.530   1.372  0.00  0.00    -0.037 C 
ATOM      4  C   UNL     1       0.002  -0.004   0.002  0.00  0.00    +0.049 C 
ATOM      5  C   UNL     1      -0.415   1.470  -0.097  0.00  0.00    +0.033 C 
ATOM      6  C   UNL     1       0.830   2.299  -0.289  0.00  0.00    -0.022 A 
ATOM      7  C   UNL     1       0.960   3.668  -0.735  0.00  0.00    +0.003 A 
ATOM      8  C   UNL     1       0.025   4.635  -1.119  0.00  0.00    +0.010 A 
ATOM      9  C   UNL     1       0.517   5.860  -1.494  0.00  0.00    +0.001 A 
ATOM     10  C   UNL     1       1.874   6.140  -1.496  0.00  0.00    +0.002 A 
ATOM     11  C   UNL     1       2.821   5.203  -1.121  0.00  0.00    +0.026 A 
ATOM     12  C   UNL     1       2.351   3.949  -0.735  0.00  0.00    +0.047 A 
ATOM     13  N   UNL     1       2.995   2.819  -0.317  0.00  0.00    -0.359 N 
ATOM     14  H   UNL     1       3.956   2.728  -0.221  0.00  0.00    +0.166 HD
ATOM     15  C   UNL     1       2.080   1.836  -0.056  0.00  0.00    +0.007 A 
ATOM     16  C   UNL     1       2.356   0.432   0.422  0.00  0.00    -0.020 C 
ATOM     17  C   UNL     1       3.414   0.446   1.526  0.00  0.00    -0.025 C 
ATOM     18  N   UNL     1       1.105  -0.117   0.987  0.00  0.00    +0.399 N 
ATOM     19  H   UNL     1       0.855   0.422   1.825  0.00  0.00    -0.079 HD
ENDROOT
BRANCH   3  20
ATOM     20  C   UNL     1      -0.004  -2.097   1.860  0.00  0.00    -0.061 A 
ATOM     21  C   UNL     1      -0.849  -1.320   2.631  0.00  0.00    +0.005 A 
ATOM     22  C   UNL     1      -2.051  -1.837   3.074  0.00  0.00    +0.038 A 
ATOM     23  C   UNL     1      -2.405  -3.137   2.756  0.00  0.00    +0.123 A 
ATOM     24  C   UNL     1      -1.555  -3.916   1.989  0.00  0.00    +0.038 A 
ATOM     25  C   UNL     1      -0.356  -3.395   1.542  0.00  0.00    +0.005 A 
ATOM     26  F   UNL     1      -3.577  -3.646   3.194  0.00  0.00    -0.205 F 
ENDBRANCH   3  20
BRANCH   1  27
ATOM     27  N   UNL     1       4.182  -1.791   0.884  0.00  0.00    +0.382 N 
ATOM     28  H   UNL     1       3.397  -2.142   0.322  0.00  0.00    -0.085 HD
ATOM     29  H   UNL     1       4.785  -1.202   0.299  0.00  0.00    -0.085 HD
BRANCH  27  30
ATOM     30  C   UNL     1       4.964  -2.933   1.393  0.00  0.00    -0.054 C 
BRANCH  30  31
ATOM     31  C   UNL     1       5.494  -3.746   0.210  0.00  0.00    +0.140 C 
BRANCH  31  33
ATOM     32  C   UNL     1       6.977  -3.621  -1.669  0.00  0.00    +0.193 C 
ATOM     33  O   UNL     1       6.419  -2.952  -0.536  0.00  0.00    -0.385 OA
ENDBRANCH  31  33
ENDBRANCH  30  31
ENDBRANCH  27  30
ENDBRANCH   1  27
BRANCH   4  34
ATOM     34  C   UNL     1       0.444  -0.493  -1.353  0.00  0.00    +0.294 C 
ATOM     35  O   UNL     1       1.485  -1.097  -1.468  0.00  0.00    -0.253 OA
BRANCH  34  36
ATOM     36  O   UNL     1      -0.318  -0.258  -2.433  0.00  0.00    -0.469 OA
ATOM     37  C   UNL     1       0.171  -0.758  -3.706  0.00  0.00    +0.280 C 
ENDBRANCH  34  36
ENDBRANCH   4  34
TORSDOF 7
