REMARK  Name = ZINC03011765
REMARK  6 active torsions:
REMARK  status: ('A' for Active; 'I' for Inactive)
REMARK    1  A    between atoms: C_1  and  C_2
REMARK    2  A    between atoms: C_5  and  C_8
REMARK    3  A    between atoms: C_11  and  C_33
REMARK    4  A    between atoms: C_16  and  C_18
REMARK    5  A    between atoms: N_20  and  C_21
REMARK    6  A    between atoms: C_25  and  C_27
REMARK                            x       y       z     vdW  Elec       q    Type
REMARK                         _______ _______ _______ _____ _____    ______ ____
ROOT
ATOM      1  C   UNL     1       0.044  -4.284  -0.044  0.00  0.00    +0.104 C 
ATOM      2  C   UNL     1       1.473  -4.782   0.198  0.00  0.00    +0.063 C 
ATOM      3  C   UNL     1       1.512  -6.313   0.127  0.00  0.00    +0.215 C 
ATOM      4  N   UNL     1       0.452  -6.854   0.982  0.00  0.00    -0.238 N 
ATOM      5  C   UNL     1      -0.628  -6.130   1.401  0.00  0.00    +0.119 A 
ATOM      6  C   UNL     1      -1.396  -6.928   2.169  0.00  0.00    +0.078 A 
ATOM      7  C   UNL     1      -0.771  -8.194   2.227  0.00  0.00    +0.149 A 
ATOM      8  N   UNL     1       0.338  -8.139   1.511  0.00  0.00    -0.164 NA
ATOM      9  N   UNL     1      -0.824  -4.794   1.036  0.00  0.00    -0.322 N 
ATOM     10  H   UNL     1      -1.487  -4.234   1.470  0.00  0.00    +0.148 HD
ENDROOT
BRANCH   1  15
ATOM     11  C   UNL     1      -0.031   1.494  -0.028  0.00  0.00    +0.044 C 
ATOM     12  C   UNL     1      -0.011  -0.013  -0.032  0.00  0.00    -0.050 A 
ATOM     13  C   UNL     1      -0.015  -0.701  -1.231  0.00  0.00    +0.004 A 
ATOM     14  C   UNL     1       0.003  -2.083  -1.235  0.00  0.00    +0.006 A 
ATOM     15  C   UNL     1       0.025  -2.777  -0.040  0.00  0.00    -0.027 A 
ATOM     16  C   UNL     1       0.031  -2.089   1.159  0.00  0.00    +0.006 A 
ATOM     17  C   UNL     1       0.017  -0.707   1.163  0.00  0.00    +0.004 A 
ENDBRANCH   1  15
BRANCH   7  18
ATOM     18  C   UNL     1      -1.271  -9.374   2.962  0.00  0.00    +0.268 C 
ATOM     19  O   UNL     1      -2.310  -9.304   3.589  0.00  0.00    -0.268 OA
ATOM     20  N   UNL     1      -0.576 -10.528   2.936  0.00  0.00    -0.280 N 
ATOM     21  H   UNL     1       0.217 -10.605   2.382  0.00  0.00    +0.155 HD
BRANCH  20  22
ATOM     22  C   UNL     1      -0.997 -11.616   3.709  0.00  0.00    +0.034 A 
ATOM     23  C   UNL     1      -2.352 -11.852   3.898  0.00  0.00    +0.025 A 
ATOM     24  C   UNL     1      -2.765 -12.926   4.661  0.00  0.00    +0.022 A 
ATOM     25  C   UNL     1      -1.829 -13.767   5.238  0.00  0.00    +0.053 A 
ATOM     26  C   UNL     1      -0.478 -13.534   5.051  0.00  0.00    +0.075 A 
ATOM     27  C   UNL     1      -0.060 -12.465   4.284  0.00  0.00    +0.037 A 
ATOM     28 CL   UNL     1      -2.352 -15.116   6.198  0.00  0.00    -0.083 Cl
BRANCH  26  29
ATOM     29  C   UNL     1       0.538 -14.453   5.680  0.00  0.00    +0.419 C 
ATOM     30  F   UNL     1       1.826 -14.017   5.352  0.00  0.00    -0.166 F 
ATOM     31  F   UNL     1       0.381 -14.438   7.070  0.00  0.00    -0.166 F 
ATOM     32  F   UNL     1       0.349 -15.754   5.203  0.00  0.00    -0.166 F 
ENDBRANCH  26  29
ENDBRANCH  20  22
ENDBRANCH   7  18
BRANCH   3  33
ATOM     33  C   UNL     1       2.873  -6.814   0.614  0.00  0.00    +0.412 C 
ATOM     34  F   UNL     1       3.075  -6.405   1.936  0.00  0.00    -0.168 F 
ATOM     35  F   UNL     1       2.906  -8.211   0.548  0.00  0.00    -0.168 F 
ATOM     36  F   UNL     1       3.882  -6.285  -0.198  0.00  0.00    -0.168 F 
ENDBRANCH   3  33
TORSDOF 5
