REMARK  Name = ZINC20832880
REMARK  10 active torsions:
REMARK  status: ('A' for Active; 'I' for Inactive)
REMARK    1  A    between atoms: C_1  and  C_2
REMARK    2  A    between atoms: C_2  and  C_28
REMARK    3  A    between atoms: C_4  and  N_10
REMARK    4  A    between atoms: C_6  and  C_8
REMARK    5  A    between atoms: C_6  and  C_9
REMARK    6  A    between atoms: C_11  and  C_13
REMARK    7  A    between atoms: C_13  and  S_14
REMARK    8  A    between atoms: S_14  and  C_15
REMARK    9  A    between atoms: N_20  and  N_21
REMARK   10  A    between atoms: C_22  and  C_23
REMARK                            x       y       z     vdW  Elec       q    Type
REMARK                         _______ _______ _______ _____ _____    ______ ____
ROOT
ATOM      1  C   UNL     1       0.105   7.210  -2.379  0.00  0.00    +0.173 C 
ENDROOT
BRANCH   1   3
ATOM      2  N   UNL     1       0.389   5.051  -1.207  0.00  0.00    -0.312 N 
ATOM      3  C   UNL     1       0.113   5.703  -2.353  0.00  0.00    +0.224 C 
ATOM      4  O   UNL     1      -0.129   5.078  -3.364  0.00  0.00    -0.275 OA
ATOM      5  H   UNL     1       0.608   5.617  -0.290  0.00  0.00    +0.149 HD
BRANCH   2   9
ATOM      6  C   UNL     1      -0.944   0.975  -2.269  0.00  0.00    -0.010 C 
ATOM      7  C   UNL     1      -1.042   1.551  -0.852  0.00  0.00    -0.072 C 
ATOM      8  C   UNL     1      -1.022   3.076  -0.918  0.00  0.00    +0.009 C 
ATOM      9  C   UNL     1       0.396   3.583  -1.181  0.00  0.00    +0.070 C 
ATOM     10  C   UNL     1       1.298   3.104  -0.042  0.00  0.00    +0.009 C 
ATOM     11  C   UNL     1       1.320   1.577  -0.002  0.00  0.00    -0.072 C 
ATOM     12  N   UNL     1      -0.012   1.005   0.008  0.00  0.00    +0.386 N 
ATOM     13  C   UNL     1       2.035   1.156   1.301  0.00  0.00    -0.010 C 
ATOM     14  C   UNL     1       2.151   1.041  -1.172  0.00  0.00    -0.010 C 
ATOM     15  C   UNL     1      -2.415   1.129  -0.282  0.00  0.00    -0.010 C 
ATOM     16  H   UNL     1      -0.328   1.088   1.058  0.00  0.00    -0.084 HD
ATOM     17  H   UNL     1       0.152  -0.053  -0.244  0.00  0.00    -0.084 HD
ENDBRANCH   2   9
ENDBRANCH   1   3
BRANCH   1  18
ATOM     18  S   UNL     1      -0.297   7.784  -4.052  0.00  0.00    -0.075 S 
BRANCH  18  19
ATOM     19  C   UNL     1      -0.267   9.541  -3.919  0.00  0.00    +0.211 A 
ATOM     20  N   UNL     1      -0.510  10.427  -4.930  0.00  0.00    -0.186 NA
ATOM     21  C   UNL     1      -0.390  11.691  -4.422  0.00  0.00    +0.232 A 
ATOM     22  N   UNL     1      -0.086  11.589  -3.151  0.00  0.00    -0.245 N 
ATOM     23  N   UNL     1      -0.012  10.227  -2.831  0.00  0.00    -0.144 NA
ATOM     24  N   UNL     1      -0.561  12.873  -5.127  0.00  0.00    -0.205 N 
ATOM     25  H   UNL     1      -0.818  12.842  -6.197  0.00  0.00    +0.177 HD
ATOM     26  H   UNL     1       0.062  12.496  -2.546  0.00  0.00    +0.192 HD
BRANCH  24  27
ATOM     27  N   UNL     1      -0.408  14.104  -4.478  0.00  0.00    -0.184 NA
ATOM     28  C   UNL     1      -0.568  15.213  -5.140  0.00  0.00    +0.176 C 
BRANCH  28  29
ATOM     29  C   UNL     1      -0.407  16.503  -4.460  0.00  0.00    +0.147 A 
ATOM     30  C   UNL     1      -0.547  17.733  -5.033  0.00  0.00    +0.051 A 
ATOM     31  C   UNL     1      -0.305  18.681  -4.020  0.00  0.00    +0.042 A 
ATOM     32  C   UNL     1      -0.033  17.994  -2.892  0.00  0.00    +0.196 A 
ATOM     33  O   UNL     1      -0.101  16.679  -3.159  0.00  0.00    -0.462 OA
ENDBRANCH  28  29
ENDBRANCH  24  27
ENDBRANCH  18  19
ENDBRANCH   1  18
TORSDOF 6
