REMARK  Name = ZINC43677189
REMARK  6 active torsions:
REMARK  status: ('A' for Active; 'I' for Inactive)
REMARK    1  A    between atoms: C_3  and  C_16
REMARK    2  A    between atoms: C_4  and  O_8
REMARK    3  A    between atoms: O_8  and  C_9
REMARK    4  A    between atoms: C_9  and  C_10
REMARK    5  A    between atoms: C_16  and  C_17
REMARK    6  A    between atoms: C_17  and  N_18
REMARK                            x       y       z     vdW  Elec       q    Type
REMARK                         _______ _______ _______ _____ _____    ______ ____
ROOT
ATOM      1  C   UNL     1      -0.017   1.378   0.010  0.00  0.00    +0.002 A 
ATOM      2  C   UNL     1       1.170   2.088   0.002  0.00  0.00    +0.007 A 
ATOM      3  C   UNL     1       2.378   1.418  -0.013  0.00  0.00    -0.006 A 
ATOM      4  C   UNL     1       2.400   0.031  -0.021  0.00  0.00    +0.138 A 
ATOM      5  C   UNL     1       1.208  -0.680  -0.013  0.00  0.00    +0.060 A 
ATOM      6  C   UNL     1       0.002  -0.004   0.002  0.00  0.00    +0.019 A 
ATOM      7 BR   UNL     1       1.233  -2.571  -0.024  0.00  0.00    -0.047 Br
ENDROOT
BRANCH   4   8
ATOM      8  O   UNL     1       3.587  -0.631  -0.037  0.00  0.00    -0.485 OA
BRANCH   8   9
ATOM      9  C   UNL     1       4.167  -0.953   1.229  0.00  0.00    +0.272 C 
BRANCH   9  10
ATOM     10  C   UNL     1       5.470  -1.680   1.014  0.00  0.00    +0.041 A 
ATOM     11  C   UNL     1       6.721  -1.172   0.898  0.00  0.00    +0.031 A 
ATOM     12  C   UNL     1       7.781  -2.038   0.703  0.00  0.00    +0.023 A 
ATOM     13  C   UNL     1       7.537  -3.370   0.634  0.00  0.00    +0.046 A 
ATOM     14  S   UNL     1       5.766  -3.433   0.855  0.00  0.00    -0.097 S 
ATOM     15 BR   UNL     1       7.013   0.694   0.999  0.00  0.00    -0.049 Br
ENDBRANCH   9  10
ENDBRANCH   8   9
ENDBRANCH   4   8
BRANCH   3  16
ATOM     16  C   UNL     1       3.670   2.193  -0.023  0.00  0.00    +0.019 C 
BRANCH  16  17
ATOM     17  C   UNL     1       4.158   2.354  -1.464  0.00  0.00    -0.082 C 
BRANCH  17  18
ATOM     18  N   UNL     1       5.418   3.110  -1.473  0.00  0.00    +0.378 N 
ATOM     19  H   UNL     1       5.739   3.216  -2.423  0.00  0.00    -0.090 HD
ATOM     20  H   UNL     1       5.267   4.020  -1.065  0.00  0.00    -0.090 HD
ATOM     21  H   UNL     1       6.112   2.612  -0.937  0.00  0.00    -0.090 HD
ENDBRANCH  17  18
ENDBRANCH  16  17
ENDBRANCH   3  16
TORSDOF 6
