REMARK  Name = ZINC37767022
REMARK  10 active torsions:
REMARK  status: ('A' for Active; 'I' for Inactive)
REMARK    1  A    between atoms: C_1  and  C_2
REMARK    2  A    between atoms: C_2  and  C_3
REMARK    3  A    between atoms: C_3  and  C_4
REMARK    4  A    between atoms: C_4  and  C_5
REMARK    5  A    between atoms: C_4  and  C_6
REMARK    6  A    between atoms: C_4  and  N_19
REMARK    7  A    between atoms: N_8  and  C_9
REMARK    8  A    between atoms: C_10  and  C_18
REMARK    9  A    between atoms: C_14  and  O_15
REMARK   10  A    between atoms: O_15  and  C_16
REMARK                            x       y       z     vdW  Elec       q    Type
REMARK                         _______ _______ _______ _____ _____    ______ ____
ROOT
ATOM      1  C   UNL     1       2.705  -2.765  -1.649  0.00  0.00    +0.206 C 
ATOM      2  O   UNL     1       3.832  -2.392  -1.896  0.00  0.00    -0.277 OA
ATOM      3  N   UNL     1       2.133  -3.727  -2.400  0.00  0.00    -0.284 N 
ATOM      4  H   UNL     1       1.261  -4.076  -2.159  0.00  0.00    +0.155 HD
ENDROOT
BRANCH   3   5
ATOM      5  C   UNL     1       2.798  -4.221  -3.530  0.00  0.00    +0.079 A 
ATOM      6  C   UNL     1       3.567  -5.372  -3.436  0.00  0.00    -0.025 A 
ATOM      7  C   UNL     1       4.222  -5.858  -4.551  0.00  0.00    +0.020 A 
ATOM      8  C   UNL     1       4.113  -5.200  -5.764  0.00  0.00    +0.022 A 
ATOM      9  C   UNL     1       3.347  -4.053  -5.865  0.00  0.00    +0.062 A 
ATOM     10  C   UNL     1       2.683  -3.562  -4.752  0.00  0.00    +0.142 A 
ATOM     11 BR   UNL     1       5.013  -5.871  -7.286  0.00  0.00    -0.050 Br
ATOM     12  C   UNL     1       3.690  -6.091  -2.117  0.00  0.00    +0.046 C 
BRANCH  10  13
ATOM     13  O   UNL     1       1.926  -2.437  -4.851  0.00  0.00    -0.493 OA
ATOM     14  C   UNL     1       1.855  -1.815  -6.135  0.00  0.00    +0.277 C 
ENDBRANCH  10  13
ENDBRANCH   3   5
BRANCH   1  15
ATOM     15  C   UNL     1       1.944  -2.153  -0.501  0.00  0.00    +0.005 C 
ATOM     16  C   UNL     1       1.062  -1.017  -1.022  0.00  0.00    -0.001 C 
BRANCH  15  17
ATOM     17  N   UNL     1       1.100  -3.178   0.129  0.00  0.00    +0.387 N 
ATOM     18  H   UNL     1       0.591  -2.768   0.897  0.00  0.00    -0.089 HD
ATOM     19  H   UNL     1       0.449  -3.542  -0.550  0.00  0.00    -0.089 HD
ATOM     20  H   UNL     1       1.682  -3.927   0.473  0.00  0.00    -0.089 HD
ENDBRANCH  15  17
BRANCH  15  21
ATOM     21  C   UNL     1       2.931  -1.601   0.529  0.00  0.00    -0.004 C 
BRANCH  21  23
ATOM     22  C   UNL     1       3.150  -0.541   2.781  0.00  0.00    +0.004 C 
ATOM     23  C   UNL     1       2.163  -1.093   1.751  0.00  0.00    -0.004 C 
ENDBRANCH  21  23
ENDBRANCH  15  21
ENDBRANCH   1  15
TORSDOF 6
