REMARK  Name = ZINC09935228
REMARK  5 active torsions:
REMARK  status: ('A' for Active; 'I' for Inactive)
REMARK    1  A    between atoms: C_1  and  C_2
REMARK    2  A    between atoms: C_5  and  N_8
REMARK    3  A    between atoms: C_17  and  C_19
REMARK    4  A    between atoms: C_19  and  S_20
REMARK    5  A    between atoms: S_20  and  C_21
REMARK                            x       y       z     vdW  Elec       q    Type
REMARK                         _______ _______ _______ _____ _____    ______ ____
ROOT
ATOM      1  N   UNL     1       3.508  -1.348  -0.159  0.00  0.00    -0.328 N 
ATOM      2  C   UNL     1       2.608  -2.374   0.016  0.00  0.00    +0.180 C 
ATOM      3  N   UNL     1       3.056  -3.675   0.124  0.00  0.00    -0.298 N 
ATOM      4  C   UNL     1       4.404  -3.933   0.196  0.00  0.00    +0.211 A 
ATOM      5  N   UNL     1       4.839  -5.221   0.169  0.00  0.00    -0.293 N 
ATOM      6  H   UNL     1       4.202  -5.949   0.100  0.00  0.00    +0.172 HD
ATOM      7  C   UNL     1       6.162  -5.483   0.235  0.00  0.00    +0.253 A 
ATOM      8  O   UNL     1       6.571  -6.633   0.208  0.00  0.00    -0.268 OA
ATOM      9  C   UNL     1       7.060  -4.405   0.340  0.00  0.00    +0.094 A 
ATOM     10  C   UNL     1       6.564  -3.135   0.367  0.00  0.00    +0.060 A 
ATOM     11  N   UNL     1       5.250  -2.929   0.295  0.00  0.00    -0.218 NA
ATOM     12  H   UNL     1       4.448  -1.546  -0.295  0.00  0.00    +0.169 HD
ATOM     13  H   UNL     1       0.616  -2.777   0.132  0.00  0.00    +0.159 HD
ATOM     14  H   UNL     1       2.420  -4.407   0.149  0.00  0.00    +0.172 HD
ATOM     15  N   UNL     1       1.326  -2.047   0.078  0.00  0.00    -0.371 N 
ATOM     16  H   UNL     1       1.048  -1.059   0.072  0.00  0.00    +0.159 HD
ENDROOT
BRANCH   1  21
ATOM     17  C   UNL     1       1.723   4.036  -0.084  0.00  0.00    +0.044 C 
ATOM     18  C   UNL     1       2.198   2.605  -0.104  0.00  0.00    -0.050 A 
ATOM     19  C   UNL     1       3.437   2.282   0.417  0.00  0.00    +0.005 A 
ATOM     20  C   UNL     1       3.875   0.972   0.400  0.00  0.00    +0.026 A 
ATOM     21  C   UNL     1       3.068  -0.021  -0.140  0.00  0.00    +0.042 A 
ATOM     22  C   UNL     1       1.823   0.307  -0.662  0.00  0.00    +0.026 A 
ATOM     23  C   UNL     1       1.392   1.619  -0.643  0.00  0.00    +0.005 A 
ENDBRANCH   1  21
BRANCH  10  24
ATOM     24  C   UNL     1       7.504  -1.962   0.479  0.00  0.00    +0.130 C 
BRANCH  24  25
ATOM     25  S   UNL     1       7.639  -1.140  -1.131  0.00  0.00    -0.119 S 
BRANCH  25  26
ATOM     26  C   UNL     1       8.757   0.191  -0.839  0.00  0.00    +0.008 A 
ATOM     27  C   UNL     1       9.292   0.384   0.429  0.00  0.00    +0.016 A 
ATOM     28  C   UNL     1      10.172   1.424   0.655  0.00  0.00    +0.021 A 
ATOM     29  C   UNL     1      10.512   2.280  -0.378  0.00  0.00    +0.041 A 
ATOM     30  C   UNL     1       9.977   2.094  -1.641  0.00  0.00    +0.021 A 
ATOM     31  C   UNL     1       9.101   1.052  -1.873  0.00  0.00    +0.016 A 
ATOM     32 CL   UNL     1      11.614   3.590  -0.090  0.00  0.00    -0.084 Cl
ENDBRANCH  25  26
ENDBRANCH  24  25
ENDBRANCH  10  24
TORSDOF 4
