REMARK  Name = ZINC66092150
REMARK  13 active torsions:
REMARK  status: ('A' for Active; 'I' for Inactive)
REMARK    1  A    between atoms: C_1  and  C_2
REMARK    2  A    between atoms: C_2  and  N_3
REMARK    3  A    between atoms: N_3  and  C_4
REMARK    4  A    between atoms: C_10  and  C_12
REMARK    5  A    between atoms: C_15  and  N_18
REMARK    6  A    between atoms: N_18  and  C_19
REMARK    7  A    between atoms: C_19  and  C_20
REMARK    8  A    between atoms: N_22  and  C_23
REMARK    9  A    between atoms: C_26  and  C_29
REMARK   10  A    between atoms: N_31  and  C_32
REMARK   11  A    between atoms: C_32  and  C_33
REMARK   12  A    between atoms: C_32  and  C_34
REMARK   13  A    between atoms: C_32  and  C_35
REMARK                            x       y       z     vdW  Elec       q    Type
REMARK                         _______ _______ _______ _____ _____    ______ ____
ROOT
ATOM      1  N   UNL     1      -5.661   0.088  -1.943  0.00  0.00    -0.335 N 
ATOM      2  H   UNL     1      -6.039   0.460  -1.130  0.00  0.00    +0.147 HD
ENDROOT
BRANCH   1   6
ATOM      3  C   UNL     1      -1.555  -0.526  -2.235  0.00  0.00    +0.037 A 
ATOM      4  C   UNL     1      -2.102   0.009  -1.065  0.00  0.00    +0.015 A 
ATOM      5  C   UNL     1      -3.460   0.211  -0.971  0.00  0.00    +0.023 A 
ATOM      6  C   UNL     1      -4.289  -0.117  -2.041  0.00  0.00    +0.028 A 
ATOM      7  C   UNL     1      -3.748  -0.650  -3.207  0.00  0.00    +0.023 A 
ATOM      8  C   UNL     1      -2.390  -0.849  -3.309  0.00  0.00    +0.015 A 
BRANCH   3  10
ATOM      9  N   UNL     1       0.623  -1.001  -1.231  0.00  0.00    -0.268 N 
ATOM     10  C   UNL     1      -0.100  -0.743  -2.338  0.00  0.00    +0.251 C 
ATOM     11  O   UNL     1       0.447  -0.691  -3.423  0.00  0.00    -0.270 OA
BRANCH   9  12
ATOM     12  C   UNL     1       2.015  -1.108  -1.314  0.00  0.00    +0.037 A 
ATOM     13  C   UNL     1       2.746  -1.547  -0.217  0.00  0.00    +0.023 A 
ATOM     14  C   UNL     1       4.120  -1.652  -0.303  0.00  0.00    +0.002 A 
ATOM     15  C   UNL     1       4.769  -1.321  -1.479  0.00  0.00    +0.000 A 
ATOM     16  C   UNL     1       4.044  -0.885  -2.572  0.00  0.00    +0.002 A 
ATOM     17  C   UNL     1       2.669  -0.782  -2.495  0.00  0.00    +0.023 A 
ENDBRANCH   9  12
BRANCH   9  19
ATOM     18  C   UNL     1       0.295   0.012   0.971  0.00  0.00    +0.025 C 
ATOM     19  C   UNL     1      -0.049  -1.168   0.060  0.00  0.00    +0.110 C 
ENDBRANCH   9  19
ENDBRANCH   3  10
ENDBRANCH   1   6
BRANCH   1  20
ATOM     20  C   UNL     1      -6.535  -0.256  -3.067  0.00  0.00    +0.198 C 
BRANCH  20  21
ATOM     21  C   UNL     1      -7.964   0.061  -2.708  0.00  0.00    +0.234 C 
ATOM     22  O   UNL     1      -8.226   0.528  -1.620  0.00  0.00    -0.274 OA
ATOM     23  N   UNL     1      -8.950  -0.175  -3.596  0.00  0.00    -0.284 N 
ATOM     24  H   UNL     1      -8.751  -0.619  -4.435  0.00  0.00    +0.155 HD
BRANCH  23  25
ATOM     25  C   UNL     1     -10.257   0.217  -3.307  0.00  0.00    +0.033 A 
ATOM     26  C   UNL     1     -10.487   1.381  -2.580  0.00  0.00    +0.024 A 
ATOM     27  C   UNL     1     -11.776   1.771  -2.293  0.00  0.00    +0.015 A 
ATOM     28  C   UNL     1     -12.853   0.999  -2.735  0.00  0.00    +0.037 A 
ATOM     29  C   UNL     1     -12.618  -0.169  -3.466  0.00  0.00    +0.015 A 
ATOM     30  C   UNL     1     -11.327  -0.552  -3.753  0.00  0.00    +0.024 A 
BRANCH  28  31
ATOM     31  C   UNL     1     -14.236   1.414  -2.429  0.00  0.00    +0.244 C 
ATOM     32  O   UNL     1     -14.439   2.430  -1.792  0.00  0.00    -0.270 OA
ATOM     33  N   UNL     1     -15.274   0.668  -2.855  0.00  0.00    -0.307 N 
ATOM     34  H   UNL     1     -15.112  -0.143  -3.363  0.00  0.00    +0.150 HD
BRANCH  33  35
ATOM     35  C   UNL     1     -16.646   1.080  -2.552  0.00  0.00    +0.026 C 
ATOM     36  C   UNL     1     -16.910   2.460  -3.158  0.00  0.00    +0.031 C 
ATOM     37  C   UNL     1     -17.627   0.067  -3.146  0.00  0.00    +0.031 C 
ATOM     38  C   UNL     1     -16.836   1.145  -1.035  0.00  0.00    +0.031 C 
ENDBRANCH  33  35
ENDBRANCH  28  31
ENDBRANCH  23  25
ENDBRANCH  20  21
ENDBRANCH   1  20
TORSDOF 9
