REMARK  Name = ZINC08747515
REMARK  5 active torsions:
REMARK  status: ('A' for Active; 'I' for Inactive)
REMARK    1  A    between atoms: C_1  and  C_2
REMARK    2  A    between atoms: C_6  and  N_8
REMARK    3  A    between atoms: C_9  and  C_11
REMARK    4  A    between atoms: C_11  and  N_12
REMARK    5  A    between atoms: C_13  and  C_18
REMARK                            x       y       z     vdW  Elec       q    Type
REMARK                         _______ _______ _______ _____ _____    ______ ____
ROOT
ATOM      1  C   UNL     1      -0.133  -4.681   3.800  0.00  0.00    +0.221 C 
ENDROOT
BRANCH   1   2
ATOM      2  N   UNL     1      -0.212  -6.128   3.587  0.00  0.00    -0.292 N 
ATOM      3  C   UNL     1      -1.351  -6.883   3.414  0.00  0.00    +0.172 A 
ATOM      4  N   UNL     1      -0.965  -8.130   3.256  0.00  0.00    -0.128 NA
ATOM      5  N   UNL     1       0.317  -8.204   3.317  0.00  0.00    -0.121 NA
ATOM      6  C   UNL     1       0.830  -7.011   3.511  0.00  0.00    +0.203 A 
ATOM      7  S   UNL     1       2.542  -6.620   3.654  0.00  0.00    -0.009 SA
BRANCH   3   8
ATOM      8  C   UNL     1      -2.737  -6.389   3.408  0.00  0.00    +0.056 A 
ATOM      9  C   UNL     1      -3.878  -7.019   2.980  0.00  0.00    +0.019 A 
ATOM     10  C   UNL     1      -5.077  -6.349   3.074  0.00  0.00    +0.008 A 
ATOM     11  C   UNL     1      -5.095  -5.091   3.585  0.00  0.00    +0.046 A 
ATOM     12  S   UNL     1      -3.372  -4.816   3.964  0.00  0.00    -0.094 S 
ENDBRANCH   3   8
ENDBRANCH   1   2
BRANCH   1  14
ATOM     13  N   UNL     1       0.049  -2.638   2.417  0.00  0.00    -0.269 N 
ATOM     14  C   UNL     1      -0.035  -3.982   2.468  0.00  0.00    +0.238 C 
ATOM     15  O   UNL     1      -0.031  -4.629   1.442  0.00  0.00    -0.273 OA
ATOM     16  H   UNL     1       0.120  -2.125   3.238  0.00  0.00    +0.156 HD
BRANCH  13  22
ATOM     17  C   UNL     1       0.029  -2.966  -2.361  0.00  0.00    +0.065 C 
ATOM     18  C   UNL     1       0.023  -2.114  -1.118  0.00  0.00    +0.040 A 
ATOM     19  C   UNL     1       0.003  -0.738  -1.234  0.00  0.00    +0.023 A 
ATOM     20  C   UNL     1      -0.003   0.041  -0.085  0.00  0.00    +0.005 A 
ATOM     21  C   UNL     1       0.013  -0.595   1.144  0.00  0.00    +0.044 A 
ATOM     22  C   UNL     1       0.033  -1.984   1.186  0.00  0.00    +0.125 A 
ATOM     23  N   UNL     1       0.032  -2.693   0.068  0.00  0.00    -0.237 NA
ENDBRANCH  13  22
ENDBRANCH   1  14
TORSDOF 4
