REMARK  Name = ZINC09323340
REMARK  10 active torsions:
REMARK  status: ('A' for Active; 'I' for Inactive)
REMARK    1  A    between atoms: C_1  and  C_2
REMARK    2  A    between atoms: C_7  and  C_8
REMARK    3  A    between atoms: N_12  and  C_13
REMARK    4  A    between atoms: C_13  and  C_14
REMARK    5  A    between atoms: C_14  and  C_15
REMARK    6  A    between atoms: C_15  and  N_56
REMARK    7  A    between atoms: C_16  and  N_56
REMARK    8  A    between atoms: C_17  and  N_56
REMARK    9  A    between atoms: C_18  and  C_20
REMARK   10  A    between atoms: C_24  and  N_29
REMARK                            x       y       z     vdW  Elec       q    Type
REMARK                         _______ _______ _______ _____ _____    ______ ____
ROOT
ATOM      1  C   UNL     1       1.607   1.482   2.967  0.00  0.00    +0.044 C 
ATOM      2  C   UNL     1       0.137   1.791   2.845  0.00  0.00    -0.045 A 
ATOM      3  C   UNL     1      -0.553   2.213   3.951  0.00  0.00    +0.032 A 
ATOM      4  C   UNL     1      -1.933   2.511   3.872  0.00  0.00    +0.081 A 
ATOM      5  C   UNL     1      -2.535   2.346   2.603  0.00  0.00    +0.041 A 
ATOM      6  C   UNL     1      -1.835   1.927   1.500  0.00  0.00    +0.021 A 
ATOM      7  C   UNL     1      -0.487   1.640   1.615  0.00  0.00    -0.046 A 
ATOM      8  C   UNL     1       0.297   1.173   0.416  0.00  0.00    +0.044 C 
ATOM      9  S   UNL     1      -4.221   2.808   2.922  0.00  0.00    -0.052 S 
ATOM     10  C   UNL     1      -4.028   3.178   4.660  0.00  0.00    +0.168 A 
ATOM     11  N   UNL     1      -2.753   2.934   4.858  0.00  0.00    -0.224 NA
ATOM     12  N   UNL     1      -4.980   3.612   5.566  0.00  0.00    -0.246 N 
ATOM     13  C   UNL     1      -4.635   3.838   6.849  0.00  0.00    +0.259 C 
ATOM     14  O   UNL     1      -3.502   3.602   7.225  0.00  0.00    -0.269 OA
ENDROOT
BRANCH  13  15
ATOM     15  C   UNL     1      -5.627   4.371   7.793  0.00  0.00    +0.076 A 
ATOM     16  C   UNL     1      -5.440   4.780   9.076  0.00  0.00    +0.029 A 
ATOM     17  C   UNL     1      -6.529   5.268   9.822  0.00  0.00    -0.008 A 
ATOM     18  C   UNL     1      -6.535   5.741  11.160  0.00  0.00    +0.041 A 
ATOM     19  C   UNL     1      -7.684   6.175  11.738  0.00  0.00    +0.127 A 
ATOM     20  C   UNL     1      -8.891   6.175  11.049  0.00  0.00    +0.034 A 
ATOM     21  C   UNL     1      -8.930   5.723   9.746  0.00  0.00    +0.018 A 
ATOM     22  C   UNL     1      -7.771   5.278   9.146  0.00  0.00    +0.020 A 
ATOM     23  S   UNL     1      -7.374   4.633   7.541  0.00  0.00    -0.084 S 
BRANCH  19  24
ATOM     24  N   UNL     1      -7.651   6.661  13.136  0.00  0.00    +0.056 N 
ATOM     25  O   UNL     1      -6.601   6.668  13.753  0.00  0.00    -0.126 OA
ATOM     26  O   UNL     1      -8.673   7.054  13.668  0.00  0.00    -0.126 OA
ENDBRANCH  19  24
ENDBRANCH  13  15
BRANCH  12  27
ATOM     27  C   UNL     1      -6.362   3.824   5.130  0.00  0.00    +0.114 C 
BRANCH  27  28
ATOM     28  C   UNL     1      -7.198   2.587   5.465  0.00  0.00    +0.001 C 
BRANCH  28  29
ATOM     29  C   UNL     1      -8.642   2.809   5.010  0.00  0.00    -0.078 C 
BRANCH  29  32
ATOM     30  C   UNL     1      -9.560   1.440   6.784  0.00  0.00    -0.097 C 
ATOM     31  C   UNL     1     -10.771   1.696   4.703  0.00  0.00    -0.097 C 
ATOM     32  N   UNL     1      -9.431   1.598   5.320  0.00  0.00    +0.376 N 
ATOM     33  H   UNL     1      -8.947   0.778   4.937  0.00  0.00    -0.083 HD
ENDBRANCH  29  32
ENDBRANCH  28  29
ENDBRANCH  27  28
ENDBRANCH  12  27
TORSDOF 6
