REMARK  Name = ZINC30961261
REMARK  13 active torsions:
REMARK  status: ('A' for Active; 'I' for Inactive)
REMARK    1  A    between atoms: C_1  and  C_2
REMARK    2  A    between atoms: C_2  and  C_3
REMARK    3  A    between atoms: C_3  and  C_4
REMARK    4  A    between atoms: C_4  and  O_5
REMARK    5  A    between atoms: O_5  and  C_6
REMARK    6  A    between atoms: C_11  and  C_12
REMARK    7  A    between atoms: N_13  and  N_14
REMARK    8  A    between atoms: C_15  and  C_17
REMARK    9  A    between atoms: C_17  and  C_19
REMARK   10  A    between atoms: C_17  and  N_22
REMARK   11  A    between atoms: C_19  and  C_20
REMARK   12  A    between atoms: C_19  and  C_21
REMARK   13  A    between atoms: C_23  and  C_25
REMARK                            x       y       z     vdW  Elec       q    Type
REMARK                         _______ _______ _______ _____ _____    ______ ____
ROOT
ATOM      1  N   UNL     1       3.736  -1.985   0.408  0.00  0.00    -0.205 N 
ATOM      2  C   UNL     1       4.811  -2.638  -0.075  0.00  0.00    +0.253 C 
ATOM      3  O   UNL     1       4.739  -3.823  -0.326  0.00  0.00    -0.272 OA
ATOM      4  H   UNL     1       3.775  -0.896   0.560  0.00  0.00    +0.177 HD
ENDROOT
BRANCH   1   6
ATOM      5  C   UNL     1       1.488  -2.053   1.048  0.00  0.00    +0.142 C 
ATOM      6  N   UNL     1       2.567  -2.694   0.718  0.00  0.00    -0.188 NA
BRANCH   5  12
ATOM      7  C   UNL     1       0.386   0.169   1.298  0.00  0.00    +0.129 A 
ATOM      8  C   UNL     1       0.223   1.485   0.897  0.00  0.00    +0.047 A 
ATOM      9  C   UNL     1       0.964   1.987  -0.156  0.00  0.00    +0.019 A 
ATOM     10  C   UNL     1       1.875   1.180  -0.818  0.00  0.00    +0.019 A 
ATOM     11  C   UNL     1       2.050  -0.133  -0.432  0.00  0.00    +0.028 A 
ATOM     12  C   UNL     1       1.306  -0.651   0.631  0.00  0.00    +0.037 A 
ATOM     13 BR   UNL     1       2.887   1.883  -2.252  0.00  0.00    -0.050 Br
BRANCH   7  14
ATOM     14  O   UNL     1      -0.342  -0.324   2.332  0.00  0.00    -0.491 OA
BRANCH  14  15
ATOM     15  C   UNL     1      -1.338   0.534   2.893  0.00  0.00    +0.229 C 
BRANCH  15  16
ATOM     16  C   UNL     1      -1.971  -0.145   4.109  0.00  0.00    +0.041 C 
BRANCH  16  18
ATOM     17  C   UNL     1      -3.488   0.190   6.066  0.00  0.00    +0.004 C 
ATOM     18  C   UNL     1      -2.947   0.822   4.782  0.00  0.00    -0.000 C 
ENDBRANCH  16  18
ENDBRANCH  15  16
ENDBRANCH  14  15
ENDBRANCH   7  14
ENDBRANCH   5  12
ENDBRANCH   1   6
BRANCH   2  19
ATOM     19  C   UNL     1       6.103  -1.896  -0.304  0.00  0.00    +0.163 C 
BRANCH  19  20
ATOM     20  N   UNL     1       7.110  -2.820  -0.830  0.00  0.00    -0.300 N 
ATOM     21  C   UNL     1       8.414  -2.627  -0.549  0.00  0.00    +0.245 C 
ATOM     22  O   UNL     1       8.764  -1.635   0.061  0.00  0.00    -0.270 OA
ATOM     23  H   UNL     1       6.803  -3.672  -1.454  0.00  0.00    +0.150 HD
BRANCH  21  24
ATOM     24  C   UNL     1       9.419  -3.622  -0.981  0.00  0.00    +0.038 A 
ATOM     25  C   UNL     1      10.770  -3.424  -0.691  0.00  0.00    +0.013 A 
ATOM     26  C   UNL     1      11.703  -4.356  -1.097  0.00  0.00    +0.002 A 
ATOM     27  C   UNL     1      11.303  -5.485  -1.790  0.00  0.00    +0.020 A 
ATOM     28  C   UNL     1       9.964  -5.687  -2.080  0.00  0.00    +0.042 A 
ATOM     29  C   UNL     1       9.020  -4.764  -1.675  0.00  0.00    +0.033 A 
ATOM     30 CL   UNL     1       9.471  -7.107  -2.948  0.00  0.00    -0.084 Cl
ENDBRANCH  21  24
ENDBRANCH  19  20
BRANCH  19  31
ATOM     31  C   UNL     1       5.871  -0.767  -1.310  0.00  0.00    +0.012 C 
ATOM     32  C   UNL     1       7.178  -0.003  -1.529  0.00  0.00    +0.009 C 
ATOM     33  C   UNL     1       5.397  -1.358  -2.639  0.00  0.00    +0.009 C 
ENDBRANCH  19  31
ENDBRANCH   2  19
TORSDOF 10
