REMARK  Name = ZINC58065728
REMARK  4 active torsions:
REMARK  status: ('A' for Active; 'I' for Inactive)
REMARK    1  A    between atoms: C_1  and  C_2
REMARK    2  A    between atoms: N_5  and  S_11
REMARK    3  A    between atoms: C_7  and  C_10
REMARK    4  A    between atoms: S_11  and  N_14
REMARK                            x       y       z     vdW  Elec       q    Type
REMARK                         _______ _______ _______ _____ _____    ______ ____
ROOT
ATOM      1  N   UNL     1      -1.216  -3.384  -2.073  0.00  0.00    -0.166 NA
ATOM      2  C   UNL     1      -1.187  -2.551  -3.283  0.00  0.00    +0.113 C 
ATOM      3  C   UNL     1      -1.429  -3.447  -4.503  0.00  0.00    +0.052 C 
ATOM      4  C   UNL     1      -0.429  -4.598  -4.492  0.00  0.00    +0.115 C 
ATOM      5  C   UNL     1      -0.584  -5.438  -3.228  0.00  0.00    +0.052 C 
ATOM      6  C   UNL     1      -0.331  -4.554  -1.996  0.00  0.00    +0.113 C 
ATOM      7  C   UNL     1      -0.603  -5.459  -5.722  0.00  0.00    +0.244 C 
ATOM      8  O   UNL     1      -1.589  -6.085  -6.047  0.00  0.00    -0.273 OA
ATOM      9  N   UNL     1       0.571  -5.384  -6.383  0.00  0.00    -0.238 N 
ATOM     10  C   UNL     1       1.448  -4.602  -5.742  0.00  0.00    +0.307 C 
ATOM     11  O   UNL     1       2.574  -4.380  -6.142  0.00  0.00    -0.252 OA
ATOM     12  N   UNL     1       0.943  -4.088  -4.604  0.00  0.00    -0.285 N 
ATOM     13  H   UNL     1       0.757  -5.841  -7.218  0.00  0.00    +0.159 HD
ATOM     14  H   UNL     1       1.396  -3.498  -3.982  0.00  0.00    +0.151 HD
ENDROOT
BRANCH   1  15
ATOM     15  S   UNL     1      -2.225  -3.006  -0.815  0.00  0.00    +0.100 S 
ATOM     16  O   UNL     1      -2.443  -4.211  -0.094  0.00  0.00    -0.141 OA
ATOM     17  O   UNL     1      -3.290  -2.243  -1.363  0.00  0.00    -0.141 OA
BRANCH  15  21
ATOM     18  C   UNL     1      -0.019   1.526   0.010  0.00  0.00    +0.039 C 
ATOM     19  C   UNL     1       0.002  -0.004   0.002  0.00  0.00    +0.131 C 
ATOM     20  C   UNL     1      -1.436  -0.536   0.015  0.00  0.00    +0.142 C 
ATOM     21  N   UNL     1      -1.389  -1.995   0.196  0.00  0.00    -0.161 NA
ATOM     22  C   UNL     1      -0.578  -2.530   1.302  0.00  0.00    +0.142 C 
ATOM     23  C   UNL     1       0.818  -1.901   1.226  0.00  0.00    +0.131 C 
ATOM     24  O   UNL     1       0.691  -0.479   1.161  0.00  0.00    -0.371 OA
ATOM     25  C   UNL     1       1.621  -2.288   2.469  0.00  0.00    +0.039 C 
ENDBRANCH  15  21
ENDBRANCH   1  15
TORSDOF 2
