REMARK  Name = ZINC36019105
REMARK  13 active torsions:
REMARK  status: ('A' for Active; 'I' for Inactive)
REMARK    1  A    between atoms: C_1  and  C_2
REMARK    2  A    between atoms: C_2  and  O_3
REMARK    3  A    between atoms: O_3  and  C_4
REMARK    4  A    between atoms: C_4  and  C_6
REMARK    5  A    between atoms: C_7  and  C_24
REMARK    6  A    between atoms: N_8  and  C_21
REMARK    7  A    between atoms: C_12  and  C_14
REMARK    8  A    between atoms: C_21  and  C_22
REMARK    9  A    between atoms: C_24  and  N_25
REMARK   10  A    between atoms: N_34  and  C_35
REMARK   11  A    between atoms: C_35  and  C_36
REMARK   12  A    between atoms: C_35  and  C_37
REMARK   13  A    between atoms: C_35  and  C_38
REMARK                            x       y       z     vdW  Elec       q    Type
REMARK                         _______ _______ _______ _____ _____    ______ ____
ROOT
ATOM      1  C   UNL     1      -3.822  -4.542  -0.774  0.00  0.00    +0.076 C 
ATOM      2  C   UNL     1      -2.850  -4.037   0.016  0.00  0.00    +0.011 C 
ATOM      3  N   UNL     1      -3.000  -2.827   0.631  0.00  0.00    -0.257 N 
ATOM      4  C   UNL     1      -4.092  -2.061   0.508  0.00  0.00    +0.307 C 
ATOM      5  O   UNL     1      -4.134  -0.998   1.095  0.00  0.00    -0.252 OA
ATOM      6  N   UNL     1      -5.146  -2.431  -0.246  0.00  0.00    -0.288 N 
ATOM      7  C   UNL     1      -5.081  -3.719  -0.958  0.00  0.00    +0.144 C 
ATOM      8  H   UNL     1      -5.927  -1.862  -0.322  0.00  0.00    +0.151 HD
ENDROOT
BRANCH   7   9
ATOM      9  C   UNL     1      -5.249  -3.450  -2.431  0.00  0.00    -0.020 A 
ATOM     10  C   UNL     1      -4.516  -2.448  -3.039  0.00  0.00    +0.006 A 
ATOM     11  C   UNL     1      -4.669  -2.200  -4.390  0.00  0.00    +0.003 A 
ATOM     12  C   UNL     1      -5.555  -2.954  -5.135  0.00  0.00    +0.038 A 
ATOM     13  C   UNL     1      -6.290  -3.959  -4.528  0.00  0.00    +0.124 A 
ATOM     14  C   UNL     1      -6.131  -4.210  -3.175  0.00  0.00    +0.044 A 
ATOM     15  F   UNL     1      -7.156  -4.697  -5.256  0.00  0.00    -0.205 F 
ENDBRANCH   7   9
BRANCH   1  16
ATOM     16  C   UNL     1      -3.667  -5.795  -1.412  0.00  0.00    +0.339 C 
ATOM     17  O   UNL     1      -2.606  -6.386  -1.345  0.00  0.00    -0.245 OA
BRANCH  16  18
ATOM     18  O   UNL     1      -4.698  -6.336  -2.095  0.00  0.00    -0.462 OA
BRANCH  18  20
ATOM     19  C   UNL     1      -5.743  -8.052  -3.437  0.00  0.00    +0.048 C 
ATOM     20  C   UNL     1      -4.471  -7.603  -2.715  0.00  0.00    +0.229 C 
ENDBRANCH  18  20
ENDBRANCH  16  18
ENDBRANCH   1  16
BRANCH   3  21
ATOM     21  C   UNL     1      -1.905  -2.339   1.474  0.00  0.00    +0.141 C 
BRANCH  21  22
ATOM     22  C   UNL     1      -1.008  -1.441   0.661  0.00  0.00    -0.015 C 
ATOM     23  C   UNL     1      -0.763  -0.220   1.066  0.00  0.00    +0.005 C 
ENDBRANCH  21  22
ENDBRANCH   3  21
BRANCH   2  24
ATOM     24  C   UNL     1      -1.579  -4.820   0.222  0.00  0.00    -0.026 C 
BRANCH  24  25
ATOM     25  N   UNL     1      -1.696  -5.630   1.442  0.00  0.00    +0.384 N 
ATOM     26  C   UNL     1      -0.378  -6.173   1.762  0.00  0.00    -0.077 C 
ATOM     27  C   UNL     1      -0.267  -6.363   3.259  0.00  0.00    +0.000 C 
ATOM     28  C   UNL     1      -0.669  -7.804   3.623  0.00  0.00    +0.107 C 
ATOM     29  N   UNL     1      -1.827  -8.251   2.822  0.00  0.00    -0.287 N 
ATOM     30  C   UNL     1      -2.957  -7.388   2.545  0.00  0.00    +0.091 C 
ATOM     31  C   UNL     1      -2.705  -6.598   1.240  0.00  0.00    -0.059 C 
ATOM     32  C   UNL     1      -1.831  -9.506   2.332  0.00  0.00    +0.303 C 
ATOM     33  O   UNL     1      -0.938 -10.277   2.625  0.00  0.00    -0.253 OA
ATOM     34  N   UNL     1      -2.826  -9.907   1.515  0.00  0.00    -0.294 N 
ATOM     35  H   UNL     1      -3.499  -9.272   1.222  0.00  0.00    +0.151 HD
ATOM     36  H   UNL     1      -1.981  -5.025   2.197  0.00  0.00    -0.081 HD
BRANCH  34  37
ATOM     37  C   UNL     1      -2.892 -11.301   1.070  0.00  0.00    +0.028 C 
ATOM     38  C   UNL     1      -3.019 -12.219   2.287  0.00  0.00    +0.031 C 
ATOM     39  C   UNL     1      -4.106 -11.489   0.159  0.00  0.00    +0.031 C 
ATOM     40  C   UNL     1      -1.617 -11.650   0.299  0.00  0.00    +0.031 C 
ENDBRANCH  34  37
ENDBRANCH  24  25
ENDBRANCH   2  24
TORSDOF 9
