REMARK  Name = ZINC64428201
REMARK  9 active torsions:
REMARK  status: ('A' for Active; 'I' for Inactive)
REMARK    1  A    between atoms: C_1  and  C_2
REMARK    2  A    between atoms: C_4  and  C_33
REMARK    3  A    between atoms: N_5  and  C_7
REMARK    4  A    between atoms: C_7  and  C_8
REMARK    5  A    between atoms: C_10  and  C_16
REMARK    6  A    between atoms: C_13  and  O_14
REMARK    7  A    between atoms: O_14  and  C_15
REMARK    8  A    between atoms: C_23  and  O_28
REMARK    9  A    between atoms: O_28  and  C_29
REMARK                            x       y       z     vdW  Elec       q    Type
REMARK                         _______ _______ _______ _____ _____    ______ ____
ROOT
ATOM      1  C   UNL     1       1.480  -3.685   1.776  0.00  0.00    +0.016 A 
ATOM      2  C   UNL     1       2.061  -3.335   2.979  0.00  0.00    +0.014 A 
ATOM      3  C   UNL     1       3.372  -3.686   3.243  0.00  0.00    -0.028 A 
ATOM      4  C   UNL     1       4.104  -4.389   2.304  0.00  0.00    +0.009 A 
ATOM      5  C   UNL     1       3.528  -4.742   1.099  0.00  0.00    +0.046 A 
ATOM      6  C   UNL     1       2.211  -4.395   0.834  0.00  0.00    +0.125 A 
ENDROOT
BRANCH   3   7
ATOM      7  C   UNL     1       4.004  -3.302   4.556  0.00  0.00    +0.111 C 
ATOM      8  C   UNL     1       5.309  -2.545   4.298  0.00  0.00    +0.128 C 
ATOM      9  C   UNL     1       6.264  -3.547   3.658  0.00  0.00    -0.035 C 
ATOM     10  C   UNL     1       6.684  -2.996   2.529  0.00  0.00    +0.003 A 
ATOM     11  C   UNL     1       7.670  -3.432   1.527  0.00  0.00    +0.055 A 
ATOM     12  C   UNL     1       7.854  -2.614   0.455  0.00  0.00    +0.121 A 
ATOM     13  C   UNL     1       7.167  -1.406   0.263  0.00  0.00    +0.047 A 
ATOM     14  C   UNL     1       6.245  -0.907   1.125  0.00  0.00    +0.029 A 
ATOM     15  C   UNL     1       5.962  -1.701   2.328  0.00  0.00    +0.043 A 
ATOM     16  N   UNL     1       5.148  -1.457   3.335  0.00  0.00    -0.376 N 
ATOM     17  C   UNL     1       6.503  -4.910   4.262  0.00  0.00    +0.048 C 
ATOM     18  C   UNL     1       5.113  -5.490   4.578  0.00  0.00    +0.086 C 
ATOM     19  N   UNL     1       4.316  -4.514   5.329  0.00  0.00    -0.307 NA
ATOM     20  H   UNL     1       4.762  -4.281   6.204  0.00  0.00    +0.123 HD
ATOM     21  H   UNL     1       4.546  -0.702   3.426  0.00  0.00    +0.160 HD
BRANCH  12  22
ATOM     22  O   UNL     1       8.758  -2.990  -0.487  0.00  0.00    -0.495 OA
ATOM     23  C   UNL     1       8.935  -2.116  -1.603  0.00  0.00    +0.277 C 
ENDBRANCH  12  22
ENDBRANCH   3   7
BRANCH   6  24
ATOM     24  O   UNL     1       1.639  -4.745  -0.348  0.00  0.00    -0.495 OA
ATOM     25  C   UNL     1       2.451  -5.476  -1.270  0.00  0.00    +0.277 C 
ENDBRANCH   6  24
BRANCH   1  26
ATOM     26  C   UNL     1       0.051  -3.301   1.489  0.00  0.00    +0.182 C 
BRANCH  26  31
ATOM     27  C   UNL     1      -0.034   1.498   0.019  0.00  0.00    +0.068 C 
ATOM     28  C   UNL     1      -0.010  -0.009   0.009  0.00  0.00    +0.074 A 
ATOM     29  C   UNL     1      -0.003  -0.821  -1.130  0.00  0.00    +0.061 A 
ATOM     30  C   UNL     1       0.020  -2.111  -0.721  0.00  0.00    +0.051 A 
ATOM     31  N   UNL     1       0.028  -2.115   0.629  0.00  0.00    -0.263 N 
ATOM     32  N   UNL     1       0.014  -0.783   1.064  0.00  0.00    -0.175 NA
ATOM     33  C   UNL     1       0.035  -3.326  -1.612  0.00  0.00    +0.066 C 
ATOM     34 BR   UNL     1      -0.022  -0.223  -2.924  0.00  0.00    -0.047 Br
ENDBRANCH  26  31
ENDBRANCH   1  26
TORSDOF 5
