REMARK  Name = ZINC35402222
REMARK  9 active torsions:
REMARK  status: ('A' for Active; 'I' for Inactive)
REMARK    1  A    between atoms: C_1  and  C_2
REMARK    2  A    between atoms: C_2  and  N_3
REMARK    3  A    between atoms: C_6  and  C_18
REMARK    4  A    between atoms: N_8  and  C_11
REMARK    5  A    between atoms: C_14  and  C_17
REMARK    6  A    between atoms: C_20  and  C_23
REMARK    7  A    between atoms: C_23  and  C_24
REMARK    8  A    between atoms: C_24  and  C_25
REMARK    9  A    between atoms: N_27  and  C_28
REMARK                            x       y       z     vdW  Elec       q    Type
REMARK                         _______ _______ _______ _____ _____    ______ ____
ROOT
ATOM      1  C   UNL     1       3.111  -2.576   2.316  0.00  0.00    +0.228 A 
ATOM      2  N   UNL     1       3.622  -3.509   3.140  0.00  0.00    -0.190 NA
ATOM      3  C   UNL     1       4.868  -3.735   2.840  0.00  0.00    +0.228 A 
ATOM      4  O   UNL     1       5.206  -2.953   1.807  0.00  0.00    -0.338 OA
ATOM      5  N   UNL     1       4.045  -2.206   1.473  0.00  0.00    -0.054 NA
ENDROOT
BRANCH   1   9
ATOM      6  N   UNL     1       0.010  -0.587   1.443  0.00  0.00    -0.258 N 
ATOM      7  C   UNL     1       1.281  -1.037   1.385  0.00  0.00    +0.286 A 
ATOM      8  O   UNL     1       2.051  -0.605   0.549  0.00  0.00    -0.265 OA
ATOM      9  C   UNL     1       1.723  -2.058   2.350  0.00  0.00    +0.196 A 
ATOM     10  N   UNL     1       0.866  -2.503   3.240  0.00  0.00    -0.153 NA
ATOM     11  N   UNL     1      -0.441  -2.002   3.257  0.00  0.00    -0.181 N 
ATOM     12  C   UNL     1      -0.834  -1.065   2.376  0.00  0.00    +0.353 A 
ATOM     13  O   UNL     1      -1.975  -0.647   2.419  0.00  0.00    -0.244 OA
BRANCH  11  14
ATOM     14  C   UNL     1      -1.351  -2.479   4.207  0.00  0.00    +0.071 A 
ATOM     15  C   UNL     1      -0.990  -2.540   5.547  0.00  0.00    +0.028 A 
ATOM     16  C   UNL     1      -1.890  -3.011   6.482  0.00  0.00    +0.005 A 
ATOM     17  C   UNL     1      -3.149  -3.422   6.086  0.00  0.00    -0.050 A 
ATOM     18  C   UNL     1      -3.512  -3.363   4.753  0.00  0.00    +0.005 A 
ATOM     19  C   UNL     1      -2.619  -2.888   3.813  0.00  0.00    +0.028 A 
ATOM     20  C   UNL     1      -4.129  -3.937   7.110  0.00  0.00    +0.044 C 
ENDBRANCH  11  14
BRANCH   6  22
ATOM     21  C   UNL     1      -0.194   1.822   1.072  0.00  0.00    +0.027 C 
ATOM     22  C   UNL     1      -0.450   0.429   0.493  0.00  0.00    +0.127 C 
ENDBRANCH   6  22
ENDBRANCH   1   9
BRANCH   3  23
ATOM     23  C   UNL     1       5.778  -4.714   3.537  0.00  0.00    +0.108 C 
BRANCH  23  24
ATOM     24  C   UNL     1       5.677  -6.080   2.855  0.00  0.00    +0.105 C 
BRANCH  24  25
ATOM     25  C   UNL     1       6.587  -7.058   3.552  0.00  0.00    +0.218 C 
ATOM     26  O   UNL     1       7.251  -6.698   4.502  0.00  0.00    -0.275 OA
ATOM     27  N   UNL     1       6.663  -8.332   3.122  0.00  0.00    -0.283 N 
ATOM     28  H   UNL     1       6.196  -8.600   2.315  0.00  0.00    +0.155 HD
BRANCH  27  29
ATOM     29  C   UNL     1       7.417  -9.270   3.838  0.00  0.00    +0.072 A 
ATOM     30  C   UNL     1       7.742  -9.032   5.166  0.00  0.00    +0.064 A 
ATOM     31  C   UNL     1       8.486  -9.960   5.872  0.00  0.00    +0.125 A 
ATOM     32  C   UNL     1       8.907 -11.127   5.254  0.00  0.00    +0.041 A 
ATOM     33  C   UNL     1       8.584 -11.366   3.932  0.00  0.00    +0.043 A 
ATOM     34  C   UNL     1       7.835 -10.444   3.223  0.00  0.00    +0.145 A 
ATOM     35  F   UNL     1       7.516 -10.682   1.932  0.00  0.00    -0.204 F 
ATOM     36  F   UNL     1       8.804  -9.729   7.164  0.00  0.00    -0.205 F 
ENDBRANCH  27  29
ENDBRANCH  24  25
ENDBRANCH  23  24
ENDBRANCH   3  23
TORSDOF 7
