REMARK  Name = ZINC08473859
REMARK  8 active torsions:
REMARK  status: ('A' for Active; 'I' for Inactive)
REMARK    1  A    between atoms: C_1  and  C_2
REMARK    2  A    between atoms: C_2  and  C_4
REMARK    3  A    between atoms: C_2  and  N_45
REMARK    4  A    between atoms: N_6  and  C_7
REMARK    5  A    between atoms: C_8  and  C_15
REMARK    6  A    between atoms: C_18  and  N_45
REMARK    7  A    between atoms: C_19  and  C_20
REMARK    8  A    between atoms: C_19  and  N_45
REMARK                            x       y       z     vdW  Elec       q    Type
REMARK                         _______ _______ _______ _____ _____    ______ ____
ROOT
ATOM      1  C   UNL     1       6.115   2.604   2.854  0.00  0.00    +0.204 C 
ATOM      2  O   UNL     1       5.287   2.485   3.732  0.00  0.00    -0.277 OA
ATOM      3  N   UNL     1       7.367   3.000   3.159  0.00  0.00    -0.281 N 
ATOM      4  H   UNL     1       8.030   3.096   2.457  0.00  0.00    +0.155 HD
ENDROOT
BRANCH   3   5
ATOM      5  C   UNL     1       7.708   3.271   4.475  0.00  0.00    +0.084 A 
ATOM      6  C   UNL     1       8.931   3.679   4.981  0.00  0.00    +0.068 A 
ATOM      7  C   UNL     1       9.026   3.902   6.423  0.00  0.00    -0.023 A 
ATOM      8  C   UNL     1       7.895   3.672   7.113  0.00  0.00    -0.004 A 
ATOM      9  S   UNL     1       6.711   3.173   5.886  0.00  0.00    -0.077 S 
ATOM     10  C   UNL     1       8.072   3.920   8.586  0.00  0.00    +0.043 C 
ATOM     11  C   UNL     1       9.365   4.760   8.687  0.00  0.00    +0.010 C 
ATOM     12  C   UNL     1      10.113   4.339   7.406  0.00  0.00    +0.037 C 
BRANCH   6  13
ATOM     13  C   UNL     1      10.086   3.884   4.102  0.00  0.00    +0.244 C 
ATOM     14  O   UNL     1      10.285   4.976   3.603  0.00  0.00    -0.270 OA
ATOM     15  N   UNL     1      10.928   2.863   3.846  0.00  0.00    -0.325 N 
ATOM     16  H   UNL     1      10.769   1.992   4.243  0.00  0.00    +0.145 HD
ATOM     17  H   UNL     1      11.692   2.998   3.264  0.00  0.00    +0.145 HD
ENDBRANCH   6  13
ENDBRANCH   3   5
BRANCH   1  19
ATOM     18  C   UNL     1       6.366   0.978   1.000  0.00  0.00    -0.004 C 
ATOM     19  C   UNL     1       5.745   2.310   1.424  0.00  0.00    +0.016 C 
BRANCH  19  21
ATOM     20  C   UNL     1       3.865   2.319  -0.102  0.00  0.00    -0.095 C 
ATOM     21  N   UNL     1       4.271   2.252   1.317  0.00  0.00    +0.388 N 
ATOM     22  H   UNL     1       3.869   3.052   1.818  0.00  0.00    -0.081 HD
BRANCH  21  23
ATOM     23  C   UNL     1       3.770   1.002   1.927  0.00  0.00    -0.035 C 
BRANCH  23  24
ATOM     24  C   UNL     1       2.267   1.068   2.004  0.00  0.00    -0.025 A 
ATOM     25  C   UNL     1       1.347   0.652   1.100  0.00  0.00    +0.011 A 
ATOM     26  C   UNL     1       0.004   0.815   1.385  0.00  0.00    +0.028 A 
ATOM     27  C   UNL     1      -0.353   1.387   2.563  0.00  0.00    +0.078 A 
ATOM     28  S   UNL     1       1.235   1.715   3.310  0.00  0.00    -0.084 S 
ATOM     29 CL   UNL     1      -1.941   1.715   3.182  0.00  0.00    -0.076 Cl
ENDBRANCH  23  24
ENDBRANCH  21  23
ENDBRANCH  19  21
ENDBRANCH   1  19
TORSDOF 6
