REMARK  Name = ZINC17308030
REMARK  12 active torsions:
REMARK  status: ('A' for Active; 'I' for Inactive)
REMARK    1  A    between atoms: C_1  and  C_2
REMARK    2  A    between atoms: C_2  and  N_3
REMARK    3  A    between atoms: N_3  and  C_4
REMARK    4  A    between atoms: C_5  and  N_20
REMARK    5  A    between atoms: N_6  and  C_13
REMARK    6  A    between atoms: C_13  and  C_14
REMARK    7  A    between atoms: C_21  and  C_23
REMARK    8  A    between atoms: C_23  and  N_66
REMARK    9  A    between atoms: C_24  and  C_25
REMARK   10  A    between atoms: C_24  and  N_66
REMARK   11  A    between atoms: C_30  and  C_31
REMARK   12  A    between atoms: C_30  and  N_66
REMARK                            x       y       z     vdW  Elec       q    Type
REMARK                         _______ _______ _______ _____ _____    ______ ____
ROOT
ATOM      1  N   UNL     1       4.725   2.871  -3.797  0.00  0.00    -0.266 N 
ATOM      2  C   UNL     1       5.229   1.683  -3.403  0.00  0.00    +0.203 C 
ATOM      3  O   UNL     1       5.050   1.294  -2.268  0.00  0.00    -0.277 OA
ENDROOT
BRANCH   1   4
ATOM      4  C   UNL     1       4.083   3.710  -2.862  0.00  0.00    +0.140 A 
ATOM      5  C   UNL     1       2.733   3.977  -2.969  0.00  0.00    +0.128 A 
ATOM      6  N   UNL     1       2.137   4.803  -2.045  0.00  0.00    -0.276 N 
ATOM      7  C   UNL     1       2.858   5.335  -1.042  0.00  0.00    +0.331 A 
ATOM      8  O   UNL     1       2.311   6.059  -0.233  0.00  0.00    -0.246 OA
ATOM      9  N   UNL     1       4.173   5.081  -0.918  0.00  0.00    -0.273 N 
ATOM     10  H   UNL     1       4.686   5.489  -0.163  0.00  0.00    +0.173 HD
ATOM     11  C   UNL     1       4.807   4.283  -1.800  0.00  0.00    +0.277 A 
ATOM     12  O   UNL     1       5.999   4.060  -1.679  0.00  0.00    -0.266 OA
BRANCH   5  13
ATOM     13  N   UNL     1       1.995   3.428  -3.990  0.00  0.00    -0.343 N 
ATOM     14  H   UNL     1       1.069   3.690  -4.115  0.00  0.00    +0.144 HD
ATOM     15  H   UNL     1       2.399   2.779  -4.587  0.00  0.00    +0.144 HD
ENDBRANCH   5  13
BRANCH   6  16
ATOM     16  C   UNL     1       0.706   5.100  -2.151  0.00  0.00    +0.163 C 
BRANCH  16  17
ATOM     17  C   UNL     1       0.510   6.331  -2.998  0.00  0.00    -0.028 A 
ATOM     18  C   UNL     1       0.349   6.210  -4.365  0.00  0.00    +0.005 A 
ATOM     19  C   UNL     1       0.168   7.339  -5.142  0.00  0.00    +0.000 A 
ATOM     20  C   UNL     1       0.153   8.589  -4.552  0.00  0.00    +0.000 A 
ATOM     21  C   UNL     1       0.310   8.710  -3.184  0.00  0.00    +0.000 A 
ATOM     22  C   UNL     1       0.489   7.580  -2.407  0.00  0.00    +0.005 A 
ENDBRANCH  16  17
ENDBRANCH   6  16
ENDBRANCH   1   4
BRANCH   1  24
ATOM     23  C   UNL     1       6.184   3.996  -5.405  0.00  0.00    +0.025 C 
ATOM     24  C   UNL     1       4.843   3.289  -5.196  0.00  0.00    +0.110 C 
ENDBRANCH   1  24
BRANCH   2  25
ATOM     25  C   UNL     1       6.015   0.839  -4.373  0.00  0.00    +0.020 C 
BRANCH  25  26
ATOM     26  N   UNL     1       6.429  -0.408  -3.695  0.00  0.00    +0.390 N 
ATOM     27  H   UNL     1       5.601  -0.851  -3.279  0.00  0.00    -0.081 HD
BRANCH  26  28
ATOM     28  C   UNL     1       7.031  -1.339  -4.673  0.00  0.00    -0.035 C 
BRANCH  28  29
ATOM     29  C   UNL     1       7.101  -2.711  -4.054  0.00  0.00    -0.027 A 
ATOM     30  C   UNL     1       6.206  -3.727  -4.128  0.00  0.00    +0.009 A 
ATOM     31  C   UNL     1       6.482  -4.912  -3.474  0.00  0.00    +0.008 A 
ATOM     32  C   UNL     1       7.640  -5.024  -2.777  0.00  0.00    +0.045 A 
ATOM     33  S   UNL     1       8.386  -3.424  -3.041  0.00  0.00    -0.103 S 
ENDBRANCH  28  29
ENDBRANCH  26  28
BRANCH  26  34
ATOM     34  C   UNL     1       7.400  -0.102  -2.624  0.00  0.00    -0.046 C 
BRANCH  34  35
ATOM     35  C   UNL     1       8.620   0.622  -3.196  0.00  0.00    +0.102 C 
ATOM     36  C   UNL     1       9.716   0.766  -2.117  0.00  0.00    +0.032 C 
ATOM     37  C   UNL     1      10.330   2.158  -2.389  0.00  0.00    +0.030 C 
ATOM     38  C   UNL     1       9.533   2.690  -3.600  0.00  0.00    +0.160 C 
ATOM     39  O   UNL     1       8.277   1.978  -3.557  0.00  0.00    -0.378 OA
ENDBRANCH  34  35
ENDBRANCH  26  34
ENDBRANCH  25  26
ENDBRANCH   2  25
TORSDOF 11
