REMARK  Name = ZINC09360029
REMARK  8 active torsions:
REMARK  status: ('A' for Active; 'I' for Inactive)
REMARK    1  A    between atoms: C_1  and  C_2
REMARK    2  A    between atoms: C_5  and  C_8
REMARK    3  A    between atoms: C_8  and  S_9
REMARK    4  A    between atoms: S_9  and  C_10
REMARK    5  A    between atoms: C_16  and  C_30
REMARK    6  A    between atoms: C_18  and  C_23
REMARK    7  A    between atoms: C_23  and  C_25
REMARK    8  A    between atoms: C_33  and  O_36
REMARK                            x       y       z     vdW  Elec       q    Type
REMARK                         _______ _______ _______ _____ _____    ______ ____
ROOT
ATOM      1  C   UNL     1      -0.484  -6.662  -0.259  0.00  0.00    +0.160 A 
ATOM      2  N   UNL     1       0.433  -7.599  -0.453  0.00  0.00    -0.133 NA
ATOM      3  N   UNL     1       0.151  -8.828  -0.410  0.00  0.00    -0.125 NA
ATOM      4  C   UNL     1      -1.080  -9.257  -0.181  0.00  0.00    +0.192 A 
ATOM      5  S   UNL     1      -1.927  -7.690   0.001  0.00  0.00    -0.024 S 
ATOM      6  N   UNL     1      -1.574 -10.554  -0.105  0.00  0.00    -0.230 N 
ATOM      7  C   UNL     1      -0.796 -11.787  -0.276  0.00  0.00    +0.152 C 
ATOM      8  C   UNL     1      -1.771 -12.927  -0.100  0.00  0.00    +0.080 C 
ATOM      9  C   UNL     1      -2.982 -12.371   0.138  0.00  0.00    +0.250 C 
ATOM     10  C   UNL     1      -2.852 -10.902   0.134  0.00  0.00    +0.293 C 
ATOM     11  O   UNL     1      -3.764 -10.120   0.319  0.00  0.00    -0.266 OA
ATOM     12  O   UNL     1      -4.131 -13.056   0.348  0.00  0.00    -0.282 OA
ENDROOT
BRANCH   7  13
ATOM     13  C   UNL     1      -0.188 -11.829  -1.655  0.00  0.00    -0.022 A 
ATOM     14  C   UNL     1      -0.957 -11.507  -2.758  0.00  0.00    +0.009 A 
ATOM     15  C   UNL     1      -0.400 -11.539  -4.022  0.00  0.00    +0.046 A 
ATOM     16  C   UNL     1       0.928 -11.906  -4.185  0.00  0.00    +0.117 A 
ATOM     17  C   UNL     1       1.695 -12.233  -3.077  0.00  0.00    +0.046 A 
ATOM     18  C   UNL     1       1.136 -12.194  -1.814  0.00  0.00    +0.009 A 
BRANCH  16  19
ATOM     19  O   UNL     1       1.476 -11.943  -5.428  0.00  0.00    -0.507 OA
ATOM     20  H   UNL     1       2.529 -12.234  -5.556  0.00  0.00    +0.292 HD
ENDBRANCH  16  19
ENDBRANCH   7  13
BRANCH   8  21
ATOM     21  C   UNL     1      -1.466 -14.360  -0.178  0.00  0.00    +0.230 C 
ATOM     22  O   UNL     1      -1.941 -15.036  -1.073  0.00  0.00    -0.283 OA
BRANCH  21  23
ATOM     23  C   UNL     1      -0.588 -14.977   0.821  0.00  0.00    +0.175 A 
ATOM     24  C   UNL     1      -0.148 -16.283   0.818  0.00  0.00    +0.053 A 
ATOM     25  C   UNL     1       0.665 -16.433   1.950  0.00  0.00    +0.042 A 
ATOM     26  C   UNL     1       0.682 -15.242   2.591  0.00  0.00    +0.196 A 
ATOM     27  O   UNL     1      -0.072 -14.370   1.909  0.00  0.00    -0.460 OA
ENDBRANCH  21  23
ENDBRANCH   8  21
BRANCH   1  28
ATOM     28  S   UNL     1      -0.330  -4.907  -0.265  0.00  0.00    -0.092 S 
BRANCH  28  29
ATOM     29  C   UNL     1       1.431  -4.623  -0.596  0.00  0.00    +0.111 C 
BRANCH  29  34
ATOM     30  C   UNL     1       2.473   1.060  -0.716  0.00  0.00    +0.044 C 
ATOM     31  C   UNL     1       2.201  -0.422  -0.685  0.00  0.00    -0.050 A 
ATOM     32  C   UNL     1       1.848  -1.085  -1.845  0.00  0.00    +0.003 A 
ATOM     33  C   UNL     1       1.604  -2.445  -1.818  0.00  0.00    +0.005 A 
ATOM     34  C   UNL     1       1.703  -3.141  -0.627  0.00  0.00    -0.037 A 
ATOM     35  C   UNL     1       2.052  -2.477   0.534  0.00  0.00    +0.005 A 
ATOM     36  C   UNL     1       2.301  -1.118   0.505  0.00  0.00    +0.003 A 
ENDBRANCH  29  34
ENDBRANCH  28  29
ENDBRANCH   1  28
TORSDOF 7
