REMARK  Name = ZINC67620127
REMARK  11 active torsions:
REMARK  status: ('A' for Active; 'I' for Inactive)
REMARK    1  A    between atoms: C_1  and  C_2
REMARK    2  A    between atoms: N_5  and  C_8
REMARK    3  A    between atoms: C_8  and  C_9
REMARK    4  A    between atoms: C_9  and  C_11
REMARK    5  A    between atoms: C_9  and  O_29
REMARK    6  A    between atoms: C_11  and  N_12
REMARK    7  A    between atoms: N_15  and  C_16
REMARK    8  A    between atoms: C_16  and  C_18
REMARK    9  A    between atoms: C_16  and  C_19
REMARK   10  A    between atoms: C_22  and  O_25
REMARK   11  A    between atoms: O_25  and  C_26
REMARK                            x       y       z     vdW  Elec       q    Type
REMARK                         _______ _______ _______ _____ _____    ______ ____
ROOT
ATOM      1  N   UNL     1       0.526  -6.331   4.079  0.00  0.00    -0.297 N 
ATOM      2  C   UNL     1       0.687  -7.641   4.351  0.00  0.00    +0.300 C 
ATOM      3  O   UNL     1       0.343  -8.477   3.538  0.00  0.00    -0.253 OA
ATOM      4  N   UNL     1       1.230  -8.024   5.523  0.00  0.00    -0.293 N 
ATOM      5  H   UNL     1       0.800  -5.664   4.727  0.00  0.00    +0.150 HD
ATOM      6  H   UNL     1       1.505  -7.357   6.171  0.00  0.00    +0.151 HD
ENDROOT
BRANCH   4   7
ATOM      7  C   UNL     1       1.405  -9.449   5.818  0.00  0.00    +0.102 C 
ATOM      8  C   UNL     1       0.108 -10.012   6.403  0.00  0.00    +0.033 C 
BRANCH   7   9
ATOM      9  C   UNL     1       2.522  -9.621   6.815  0.00  0.00    -0.027 A 
ATOM     10  C   UNL     1       2.648  -8.737   7.871  0.00  0.00    +0.009 A 
ATOM     11  C   UNL     1       3.671  -8.893   8.786  0.00  0.00    +0.046 A 
ATOM     12  C   UNL     1       4.573  -9.938   8.645  0.00  0.00    +0.127 A 
ATOM     13  C   UNL     1       4.444 -10.824   7.585  0.00  0.00    +0.046 A 
ATOM     14  C   UNL     1       3.416 -10.667   6.676  0.00  0.00    +0.009 A 
BRANCH  12  15
ATOM     15  O   UNL     1       5.580 -10.093   9.544  0.00  0.00    -0.434 OA
BRANCH  15  16
ATOM     16  C   UNL     1       6.471 -11.191   9.336  0.00  0.00    +0.541 C 
ATOM     17  F   UNL     1       5.750 -12.389   9.370  0.00  0.00    -0.166 F 
ATOM     18  F   UNL     1       7.095 -11.056   8.091  0.00  0.00    -0.166 F 
ENDBRANCH  15  16
ENDBRANCH  12  15
ENDBRANCH   7   9
ENDBRANCH   4   7
BRANCH   1  19
ATOM     19  C   UNL     1      -0.065  -5.914   2.804  0.00  0.00    +0.135 C 
BRANCH  19  20
ATOM     20  C   UNL     1      -0.134  -4.387   2.750  0.00  0.00    +0.115 C 
BRANCH  20  21
ATOM     21  O   UNL     1      -0.941  -3.908   3.828  0.00  0.00    -0.392 OA
ATOM     22  H   UNL     1      -1.850  -4.235   3.814  0.00  0.00    +0.210 HD
ENDBRANCH  20  21
BRANCH  20  23
ATOM     23  C   UNL     1      -0.750  -3.952   1.419  0.00  0.00    -0.046 C 
BRANCH  23  28
ATOM     24  C   UNL     1      -0.019   1.526   0.010  0.00  0.00    +0.007 C 
ATOM     25  C   UNL     1       0.002  -0.004   0.002  0.00  0.00    -0.018 C 
ATOM     26  C   UNL     1      -1.434  -0.536   0.023  0.00  0.00    -0.016 C 
ATOM     27  C   UNL     1      -1.405  -2.064   0.095  0.00  0.00    -0.078 C 
ATOM     28  N   UNL     1      -0.707  -2.487   1.315  0.00  0.00    +0.381 N 
ATOM     29  C   UNL     1       0.691  -2.042   1.269  0.00  0.00    -0.078 C 
ATOM     30  C   UNL     1       0.743  -0.513   1.242  0.00  0.00    -0.016 C 
ATOM     31  H   UNL     1      -1.162  -2.082   2.119  0.00  0.00    -0.082 HD
ENDBRANCH  23  28
ENDBRANCH  20  23
ENDBRANCH  19  20
ENDBRANCH   1  19
TORSDOF 9
