REMARK  Name = ZINC42562485
REMARK  10 active torsions:
REMARK  status: ('A' for Active; 'I' for Inactive)
REMARK    1  A    between atoms: C_1  and  C_2
REMARK    2  A    between atoms: C_2  and  C_4
REMARK    3  A    between atoms: C_2  and  N_15
REMARK    4  A    between atoms: N_6  and  C_7
REMARK    5  A    between atoms: C_10  and  N_14
REMARK    6  A    between atoms: N_15  and  C_16
REMARK    7  A    between atoms: N_15  and  C_20
REMARK    8  A    between atoms: C_16  and  C_17
REMARK    9  A    between atoms: C_20  and  C_21
REMARK   10  A    between atoms: C_20  and  C_22
REMARK                            x       y       z     vdW  Elec       q    Type
REMARK                         _______ _______ _______ _____ _____    ______ ____
ROOT
ATOM      1  C   UNL     1       0.747  -0.853   0.001  0.00  0.00    +0.203 C 
ATOM      2  O   UNL     1       0.526  -1.834  -0.677  0.00  0.00    -0.277 OA
ATOM      3  N   UNL     1       2.010  -0.554   0.363  0.00  0.00    -0.286 N 
ATOM      4  H   UNL     1       2.196   0.268   0.844  0.00  0.00    +0.155 HD
ENDROOT
BRANCH   3   5
ATOM      5  C   UNL     1       3.056  -1.431   0.044  0.00  0.00    +0.052 A 
ATOM      6  C   UNL     1       2.793  -2.778  -0.169  0.00  0.00    +0.026 A 
ATOM      7  C   UNL     1       3.823  -3.642  -0.483  0.00  0.00    +0.024 A 
ATOM      8  C   UNL     1       5.123  -3.164  -0.586  0.00  0.00    +0.026 A 
ATOM      9  C   UNL     1       5.388  -1.818  -0.374  0.00  0.00    +0.044 A 
ATOM     10  C   UNL     1       4.356  -0.952  -0.065  0.00  0.00    +0.064 A 
ATOM     11 CL   UNL     1       4.684   0.733   0.194  0.00  0.00    -0.082 Cl
BRANCH   8  12
ATOM     12  N   UNL     1       6.167  -4.040  -0.903  0.00  0.00    -0.358 N 
ATOM     13  H   UNL     1       5.982  -4.981  -1.051  0.00  0.00    +0.142 HD
ATOM     14  H   UNL     1       7.075  -3.707  -0.976  0.00  0.00    +0.142 HD
ENDBRANCH   8  12
ENDBRANCH   3   5
BRANCH   1  16
ATOM     15  C   UNL     1      -0.585  -0.095   1.951  0.00  0.00    -0.004 C 
ATOM     16  C   UNL     1      -0.392   0.033   0.438  0.00  0.00    +0.017 C 
BRANCH  16  17
ATOM     17  N   UNL     1      -1.623  -0.378  -0.249  0.00  0.00    +0.389 N 
ATOM     18  H   UNL     1      -2.420   0.032   0.215  0.00  0.00    -0.080 HD
BRANCH  17  19
ATOM     19  C   UNL     1      -1.581   0.079  -1.644  0.00  0.00    -0.074 C 
ATOM     20  C   UNL     1      -1.332   1.588  -1.680  0.00  0.00    -0.013 C 
ATOM     21  C   UNL     1      -0.452  -0.642  -2.383  0.00  0.00    -0.013 C 
ENDBRANCH  17  19
BRANCH  17  22
ATOM     22  C   UNL     1      -1.738  -1.842  -0.216  0.00  0.00    -0.074 C 
BRANCH  22  23
ATOM     23  C   UNL     1      -3.190  -2.246  -0.477  0.00  0.00    -0.028 C 
ATOM     24  C   UNL     1      -3.962  -2.893   0.675  0.00  0.00    +0.002 C 
ATOM     25  C   UNL     1      -3.511  -3.742  -0.515  0.00  0.00    +0.002 C 
ENDBRANCH  22  23
ENDBRANCH  17  22
ENDBRANCH  16  17
ENDBRANCH   1  16
TORSDOF 7
