REMARK  Name = ZINC01712430
REMARK  6 active torsions:
REMARK  status: ('A' for Active; 'I' for Inactive)
REMARK    1  A    between atoms: C_4  and  C_7
REMARK    2  A    between atoms: C_7  and  C_8
REMARK    3  A    between atoms: C_7  and  C_19
REMARK    4  A    between atoms: C_7  and  C_25
REMARK    5  A    between atoms: C_8  and  C_9
REMARK    6  A    between atoms: C_9  and  N_60
REMARK                            x       y       z     vdW  Elec       q    Type
REMARK                         _______ _______ _______ _____ _____    ______ ____
ROOT
ATOM      1  C   UNL     1      -3.733  -1.775  -2.673  0.00  0.00    +0.095 C 
ENDROOT
BRANCH   1   5
ATOM      2  C   UNL     1      -7.224  -4.136  -3.377  0.00  0.00    +0.000 A 
ATOM      3  C   UNL     1      -6.395  -3.796  -4.430  0.00  0.00    +0.000 A 
ATOM      4  C   UNL     1      -5.266  -3.032  -4.202  0.00  0.00    +0.005 A 
ATOM      5  C   UNL     1      -4.965  -2.608  -2.921  0.00  0.00    -0.028 A 
ATOM      6  C   UNL     1      -5.790  -2.952  -1.867  0.00  0.00    +0.005 A 
ATOM      7  C   UNL     1      -6.923  -3.712  -2.096  0.00  0.00    +0.000 A 
ENDBRANCH   1   5
BRANCH   1   8
ATOM      8  C   UNL     1      -3.891  -0.434  -3.342  0.00  0.00    -0.028 A 
ATOM      9  C   UNL     1      -5.120  -0.053  -3.847  0.00  0.00    +0.005 A 
ATOM     10  C   UNL     1      -5.266   1.179  -4.456  0.00  0.00    +0.000 A 
ATOM     11  C   UNL     1      -4.180   2.027  -4.569  0.00  0.00    +0.000 A 
ATOM     12  C   UNL     1      -2.949   1.644  -4.069  0.00  0.00    +0.000 A 
ATOM     13  C   UNL     1      -2.805   0.414  -3.455  0.00  0.00    +0.005 A 
ENDBRANCH   1   8
BRANCH   1  14
ATOM     14  C   UNL     1      -2.528  -2.480  -3.239  0.00  0.00    +0.225 C 
ATOM     15  O   UNL     1      -1.862  -1.946  -4.101  0.00  0.00    -0.275 OA
ATOM     16  N   UNL     1      -2.190  -3.704  -2.788  0.00  0.00    -0.328 N 
ATOM     17  H   UNL     1      -2.722  -4.131  -2.099  0.00  0.00    +0.145 HD
ATOM     18  H   UNL     1      -1.414  -4.158  -3.152  0.00  0.00    +0.145 HD
ENDBRANCH   1  14
BRANCH   1  19
ATOM     19  C   UNL     1      -3.547  -1.576  -1.168  0.00  0.00    +0.007 C 
BRANCH  19  20
ATOM     20  C   UNL     1      -2.228  -0.846  -0.909  0.00  0.00    -0.076 C 
BRANCH  20  30
ATOM     21  C   UNL     1      -2.068  -2.131   1.153  0.00  0.00    -0.078 C 
ATOM     22  C   UNL     1      -1.283  -1.969   2.480  0.00  0.00    -0.020 C 
ATOM     23  C   UNL     1      -0.121  -1.029   2.082  0.00  0.00    -0.014 C 
ATOM     24  C   UNL     1      -0.612  -0.302   0.818  0.00  0.00    -0.066 C 
ATOM     25  C   UNL     1      -0.631   1.206   1.065  0.00  0.00    -0.012 C 
ATOM     26  C   UNL     1       0.788   1.692   1.366  0.00  0.00    -0.001 C 
ATOM     27  C   UNL     1       1.699   1.371   0.180  0.00  0.00    -0.000 C 
ATOM     28  C   UNL     1       1.723  -0.141  -0.052  0.00  0.00    -0.001 C 
ATOM     29  C   UNL     1       0.306  -0.632  -0.357  0.00  0.00    -0.012 C 
ATOM     30  N   UNL     1      -1.965  -0.789   0.561  0.00  0.00    +0.383 N 
ATOM     31  H   UNL     1      -2.649  -0.163   1.001  0.00  0.00    -0.081 HD
ENDBRANCH  20  30
ENDBRANCH  19  20
ENDBRANCH   1  19
TORSDOF 6
