REMARK  Name = ZINC09259151
REMARK  9 active torsions:
REMARK  status: ('A' for Active; 'I' for Inactive)
REMARK    1  A    between atoms: C_1  and  C_2
REMARK    2  A    between atoms: C_4  and  C_17
REMARK    3  A    between atoms: C_5  and  C_16
REMARK    4  A    between atoms: N_6  and  C_7
REMARK    5  A    between atoms: C_11  and  N_13
REMARK    6  A    between atoms: N_18  and  N_19
REMARK    7  A    between atoms: C_20  and  C_22
REMARK    8  A    between atoms: C_22  and  O_23
REMARK    9  A    between atoms: O_23  and  C_24
REMARK                            x       y       z     vdW  Elec       q    Type
REMARK                         _______ _______ _______ _____ _____    ______ ____
ROOT
ATOM      1  C   UNL     1       0.979   5.554  -2.278  0.00  0.00    +0.064 C 
ATOM      2  C   UNL     1       0.383   6.039  -0.981  0.00  0.00    +0.022 A 
ATOM      3  C   UNL     1       0.211   7.328  -0.633  0.00  0.00    +0.032 A 
ATOM      4  C   UNL     1      -0.396   7.323   0.701  0.00  0.00    +0.016 A 
ATOM      5  C   UNL     1      -0.546   6.011   1.049  0.00  0.00    +0.030 A 
ATOM      6  N   UNL     1      -0.069   5.244   0.032  0.00  0.00    -0.317 N 
ATOM      7  C   UNL     1      -1.136   5.502   2.339  0.00  0.00    +0.064 C 
ENDROOT
BRANCH   6   8
ATOM      8  C   UNL     1      -0.050   3.842   0.024  0.00  0.00    +0.049 A 
ATOM      9  C   UNL     1      -1.242   3.130   0.031  0.00  0.00    +0.026 A 
ATOM     10  C   UNL     1      -1.220   1.750   0.017  0.00  0.00    +0.004 A 
ATOM     11  C   UNL     1      -0.013   1.076   0.008  0.00  0.00    +0.033 A 
ATOM     12  C   UNL     1       1.176   1.782   0.000  0.00  0.00    +0.128 A 
ATOM     13  C   UNL     1       1.161   3.163   0.008  0.00  0.00    +0.058 A 
BRANCH  12  14
ATOM     14  N   UNL     1       2.466   1.057  -0.016  0.00  0.00    +0.056 N 
ATOM     15  O   UNL     1       2.481  -0.161  -0.022  0.00  0.00    -0.126 OA
ATOM     16  O   UNL     1       3.514   1.679  -0.022  0.00  0.00    -0.126 OA
ENDBRANCH  12  14
ENDBRANCH   6   8
BRANCH   4  17
ATOM     17  C   UNL     1      -0.774   8.500   1.505  0.00  0.00    +0.140 C 
ATOM     18  N   UNL     1      -1.306   8.341   2.678  0.00  0.00    -0.188 NA
BRANCH  18  19
ATOM     19  N   UNL     1      -1.666   9.460   3.441  0.00  0.00    -0.204 N 
ATOM     20  C   UNL     1      -2.219   9.295   4.659  0.00  0.00    +0.270 C 
ATOM     21  O   UNL     1      -2.405   8.178   5.095  0.00  0.00    -0.270 OA
ATOM     22  H   UNL     1      -1.517  10.353   3.093  0.00  0.00    +0.177 HD
BRANCH  20  23
ATOM     23  C   UNL     1      -2.606  10.498   5.480  0.00  0.00    +0.326 C 
BRANCH  23  24
ATOM     24  O   UNL     1      -3.166  10.066   6.722  0.00  0.00    -0.482 OA
BRANCH  24  25
ATOM     25  C   UNL     1      -3.570  11.035   7.586  0.00  0.00    +0.134 A 
ATOM     26  C   UNL     1      -3.424  12.372   7.248  0.00  0.00    +0.047 A 
ATOM     27  C   UNL     1      -3.840  13.355   8.126  0.00  0.00    +0.004 A 
ATOM     28  C   UNL     1      -4.391  13.006   9.345  0.00  0.00    +0.001 A 
ATOM     29  C   UNL     1      -4.533  11.674   9.687  0.00  0.00    +0.018 A 
ATOM     30  C   UNL     1      -4.123  10.687   8.810  0.00  0.00    +0.055 A 
ATOM     31  I   UNL     1      -4.338   8.669   9.329  0.00  0.00    -0.040 I 
ENDBRANCH  24  25
ENDBRANCH  23  24
ENDBRANCH  20  23
ENDBRANCH  18  19
ENDBRANCH   4  17
TORSDOF 7
