REMARK  Name = ZINC16938478
REMARK  8 active torsions:
REMARK  status: ('A' for Active; 'I' for Inactive)
REMARK    1  A    between atoms: C_1  and  C_2
REMARK    2  A    between atoms: C_2  and  C_4
REMARK    3  A    between atoms: C_2  and  S_15
REMARK    4  A    between atoms: N_6  and  C_7
REMARK    5  A    between atoms: S_15  and  C_16
REMARK    6  A    between atoms: C_19  and  C_28
REMARK    7  A    between atoms: N_20  and  C_21
REMARK    8  A    between atoms: C_28  and  N_57
REMARK                            x       y       z     vdW  Elec       q    Type
REMARK                         _______ _______ _______ _____ _____    ______ ____
ROOT
ATOM      1  C   UNL     1       0.006  -0.018   0.041  0.00  0.00    +0.197 A 
ATOM      2  N   UNL     1      -0.008   1.295   0.051  0.00  0.00    -0.122 NA
ATOM      3  N   UNL     1       1.196   1.745   0.052  0.00  0.00    -0.135 NA
ATOM      4  C   UNL     1       2.045   0.757   0.043  0.00  0.00    +0.122 A 
ATOM      5  N   UNL     1       1.318  -0.404   0.036  0.00  0.00    -0.276 N 
ENDROOT
BRANCH   5   6
ATOM      6  C   UNL     1       1.816  -1.716   0.026  0.00  0.00    +0.050 A 
ATOM      7  C   UNL     1       2.544  -2.191   1.108  0.00  0.00    +0.029 A 
ATOM      8  C   UNL     1       3.030  -3.484   1.098  0.00  0.00    +0.040 A 
ATOM      9  C   UNL     1       2.800  -4.303   0.005  0.00  0.00    +0.124 A 
ATOM     10  C   UNL     1       2.078  -3.829  -1.077  0.00  0.00    +0.040 A 
ATOM     11  C   UNL     1       1.586  -2.538  -1.069  0.00  0.00    +0.029 A 
ATOM     12  F   UNL     1       3.280  -5.566  -0.005  0.00  0.00    -0.205 F 
ENDBRANCH   5   6
BRANCH   1  13
ATOM     13  S   UNL     1      -1.399  -1.081   0.035  0.00  0.00    -0.073 S 
BRANCH  13  15
ATOM     14  C   UNL     1      -2.686   0.954  -1.255  0.00  0.00    +0.029 C 
ATOM     15  C   UNL     1      -2.725   0.151   0.046  0.00  0.00    +0.137 C 
BRANCH  15  16
ATOM     16  C   UNL     1      -4.056  -0.545   0.167  0.00  0.00    +0.230 C 
ATOM     17  O   UNL     1      -4.155  -1.720  -0.121  0.00  0.00    -0.274 OA
ATOM     18  N   UNL     1      -5.137   0.137   0.595  0.00  0.00    -0.282 N 
ATOM     19  H   UNL     1      -5.045   1.057   0.887  0.00  0.00    +0.155 HD
BRANCH  18  20
ATOM     20  C   UNL     1      -6.393  -0.484   0.619  0.00  0.00    +0.069 A 
ATOM     21  C   UNL     1      -6.495  -1.836   0.915  0.00  0.00    +0.027 A 
ATOM     22  C   UNL     1      -7.734  -2.446   0.938  0.00  0.00    +0.022 A 
ATOM     23  C   UNL     1      -8.875  -1.711   0.666  0.00  0.00    +0.044 A 
ATOM     24  C   UNL     1      -8.778  -0.362   0.370  0.00  0.00    +0.060 A 
ATOM     25  C   UNL     1      -7.540   0.255   0.351  0.00  0.00    +0.146 A 
ATOM     26  F   UNL     1      -7.445   1.572   0.067  0.00  0.00    -0.203 F 
ATOM     27 CL   UNL     1     -10.430  -2.481   0.696  0.00  0.00    -0.083 Cl
ENDBRANCH  18  20
ENDBRANCH  15  16
ENDBRANCH  13  15
ENDBRANCH   1  13
BRANCH   4  28
ATOM     28  C   UNL     1       3.547   0.870   0.041  0.00  0.00    -0.001 C 
BRANCH  28  34
ATOM     29  C   UNL     1       3.772  -0.351  -2.037  0.00  0.00    -0.078 C 
ATOM     30  C   UNL     1       4.157  -0.217  -3.512  0.00  0.00    -0.019 C 
ATOM     31  C   UNL     1       5.641   0.147  -3.617  0.00  0.00    -0.004 C 
ATOM     32  C   UNL     1       5.894   1.446  -2.847  0.00  0.00    -0.019 C 
ATOM     33  C   UNL     1       5.459   1.264  -1.391  0.00  0.00    -0.078 C 
ATOM     34  N   UNL     1       4.018   0.939  -1.358  0.00  0.00    +0.384 N 
ATOM     35  H   UNL     1       3.499   1.677  -1.848  0.00  0.00    -0.081 HD
ENDBRANCH  28  34
ENDBRANCH   4  28
TORSDOF 7
