REMARK  Name = ZINC09047822
REMARK  14 active torsions:
REMARK  status: ('A' for Active; 'I' for Inactive)
REMARK    1  A    between atoms: C_1  and  C_2
REMARK    2  A    between atoms: C_2  and  C_3
REMARK    3  A    between atoms: C_3  and  C_4
REMARK    4  A    between atoms: C_4  and  N_61
REMARK    5  A    between atoms: C_5  and  C_6
REMARK    6  A    between atoms: C_5  and  N_61
REMARK    7  A    between atoms: C_6  and  C_7
REMARK    8  A    between atoms: C_7  and  C_8
REMARK    9  A    between atoms: C_9  and  C_10
REMARK   10  A    between atoms: C_9  and  N_61
REMARK   11  A    between atoms: C_11  and  O_30
REMARK   12  A    between atoms: C_18  and  C_19
REMARK   13  A    between atoms: C_24  and  O_25
REMARK   14  A    between atoms: O_25  and  C_26
REMARK                            x       y       z     vdW  Elec       q    Type
REMARK                         _______ _______ _______ _____ _____    ______ ____
ROOT
ATOM      1  C   UNL     1       5.658   1.196   0.429  0.00  0.00    +0.020 A 
ATOM      2  C   UNL     1       6.997   1.204   0.784  0.00  0.00    +0.122 A 
ATOM      3  C   UNL     1       7.689   2.405   0.909  0.00  0.00    +0.046 A 
ATOM      4  C   UNL     1       7.052   3.592   0.682  0.00  0.00    +0.019 A 
ATOM      5  C   UNL     1       5.704   3.599   0.324  0.00  0.00    +0.068 A 
ATOM      6  C   UNL     1       4.994   2.394   0.194  0.00  0.00    +0.144 A 
ATOM      7  O   UNL     1       3.715   2.653  -0.152  0.00  0.00    -0.451 OA
ATOM      8  C   UNL     1       3.488   3.982  -0.283  0.00  0.00    +0.176 C 
ATOM      9  C   UNL     1       2.311   4.565  -0.624  0.00  0.00    +0.061 C 
ATOM     10  C   UNL     1       4.747   4.678   0.017  0.00  0.00    +0.231 C 
ATOM     11  O   UNL     1       4.954   5.880   0.014  0.00  0.00    -0.283 OA
ENDROOT
BRANCH   9  12
ATOM     12  C   UNL     1       1.107   3.743  -0.795  0.00  0.00    +0.021 A 
ATOM     13  C   UNL     1       1.219   2.357  -0.967  0.00  0.00    +0.027 A 
ATOM     14  C   UNL     1       0.084   1.592  -1.127  0.00  0.00    +0.019 A 
ATOM     15  C   UNL     1      -1.168   2.188  -1.123  0.00  0.00    +0.019 A 
ATOM     16  C   UNL     1      -1.293   3.553  -0.949  0.00  0.00    +0.047 A 
ATOM     17  C   UNL     1      -0.164   4.340  -0.787  0.00  0.00    +0.127 A 
ATOM     18 BR   UNL     1       0.235  -0.278  -1.359  0.00  0.00    -0.050 Br
BRANCH  17  19
ATOM     19  O   UNL     1      -0.286   5.681  -0.621  0.00  0.00    -0.495 OA
ATOM     20  C   UNL     1      -1.611   6.217  -0.624  0.00  0.00    +0.277 C 
ENDBRANCH  17  19
ENDBRANCH   9  12
BRANCH   2  21
ATOM     21  O   UNL     1       7.640   0.030   1.012  0.00  0.00    -0.506 OA
ATOM     22  H   UNL     1       8.130  -0.305   0.248  0.00  0.00    +0.292 HD
ENDBRANCH   2  21
BRANCH   1  23
ATOM     23  C   UNL     1       4.921  -0.112   0.297  0.00  0.00    -0.036 C 
BRANCH  23  24
ATOM     24  N   UNL     1       4.846  -0.473  -1.134  0.00  0.00    +0.383 N 
ATOM     25  H   UNL     1       4.530   0.345  -1.668  0.00  0.00    -0.081 HD
BRANCH  24  26
ATOM     26  C   UNL     1       6.180  -0.880  -1.624  0.00  0.00    -0.078 C 
BRANCH  26  27
ATOM     27  C   UNL     1       6.130  -1.001  -3.148  0.00  0.00    -0.019 C 
BRANCH  27  29
ATOM     28  C   UNL     1       7.461  -1.523  -5.197  0.00  0.00    +0.004 C 
ATOM     29  C   UNL     1       7.510  -1.402  -3.673  0.00  0.00    -0.005 C 
ENDBRANCH  27  29
ENDBRANCH  26  27
ENDBRANCH  24  26
BRANCH  24  30
ATOM     30  C   UNL     1       3.879  -1.574  -1.328  0.00  0.00    -0.078 C 
BRANCH  30  31
ATOM     31  C   UNL     1       4.223  -2.756  -0.419  0.00  0.00    -0.019 C 
BRANCH  31  32
ATOM     32  C   UNL     1       3.280  -3.922  -0.720  0.00  0.00    -0.005 C 
ATOM     33  C   UNL     1       3.625  -5.104   0.189  0.00  0.00    +0.004 C 
ENDBRANCH  31  32
ENDBRANCH  30  31
ENDBRANCH  24  30
ENDBRANCH  23  24
ENDBRANCH   1  23
TORSDOF 11
