REMARK  Name = ZINC10815970
REMARK  12 active torsions:
REMARK  status: ('A' for Active; 'I' for Inactive)
REMARK    1  A    between atoms: C_1  and  C_2
REMARK    2  A    between atoms: C_2  and  C_30
REMARK    3  A    between atoms: C_4  and  N_9
REMARK    4  A    between atoms: C_6  and  C_7
REMARK    5  A    between atoms: C_6  and  C_8
REMARK    6  A    between atoms: C_10  and  C_12
REMARK    7  A    between atoms: C_12  and  O_13
REMARK    8  A    between atoms: O_13  and  C_14
REMARK    9  A    between atoms: C_17  and  N_20
REMARK   10  A    between atoms: N_20  and  C_21
REMARK   11  A    between atoms: N_20  and  S_22
REMARK   12  A    between atoms: S_22  and  C_25
REMARK                            x       y       z     vdW  Elec       q    Type
REMARK                         _______ _______ _______ _____ _____    ______ ____
ROOT
ATOM      1  C   UNL     1       0.398   7.910  -2.655  0.00  0.00    +0.324 C 
ENDROOT
BRANCH   1   3
ATOM      2  N   UNL     1       1.014  10.301  -2.811  0.00  0.00    -0.310 N 
ATOM      3  C   UNL     1       0.543   9.197  -3.425  0.00  0.00    +0.251 C 
ATOM      4  O   UNL     1       0.236   9.240  -4.598  0.00  0.00    -0.272 OA
ATOM      5  H   UNL     1       1.260  10.266  -1.873  0.00  0.00    +0.149 HD
BRANCH   2   9
ATOM      6  C   UNL     1      -0.039  14.379  -4.093  0.00  0.00    -0.010 C 
ATOM      7  C   UNL     1       1.257  14.051  -3.341  0.00  0.00    -0.072 C 
ATOM      8  C   UNL     1       1.091  12.733  -2.590  0.00  0.00    +0.009 C 
ATOM      9  C   UNL     1       1.156  11.555  -3.561  0.00  0.00    +0.070 C 
ATOM     10  C   UNL     1       2.517  11.574  -4.257  0.00  0.00    +0.009 C 
ATOM     11  C   UNL     1       2.701  12.879  -5.028  0.00  0.00    -0.072 C 
ATOM     12  C   UNL     1       1.861  12.840  -6.310  0.00  0.00    -0.010 C 
ATOM     13  C   UNL     1       4.184  12.959  -5.457  0.00  0.00    -0.010 C 
ATOM     14  C   UNL     1       1.470  15.163  -2.290  0.00  0.00    -0.010 C 
ATOM     15  N   UNL     1       2.439  14.114  -4.242  0.00  0.00    +0.386 N 
ATOM     16  H   UNL     1       3.268  14.306  -3.666  0.00  0.00    -0.084 HD
ATOM     17  H   UNL     1       2.295  14.886  -4.903  0.00  0.00    -0.084 HD
ENDBRANCH   2   9
ENDBRANCH   1   3
BRANCH   1  18
ATOM     18  O   UNL     1      -0.117   6.894  -3.518  0.00  0.00    -0.483 OA
BRANCH  18  19
ATOM     19  C   UNL     1      -0.309   5.662  -2.975  0.00  0.00    +0.121 A 
ATOM     20  C   UNL     1      -0.807   4.630  -3.757  0.00  0.00    +0.047 A 
ATOM     21  C   UNL     1      -1.002   3.378  -3.207  0.00  0.00    +0.028 A 
ATOM     22  C   UNL     1      -0.700   3.153  -1.871  0.00  0.00    +0.051 A 
ATOM     23  C   UNL     1      -0.208   4.189  -1.087  0.00  0.00    +0.028 A 
ATOM     24  C   UNL     1      -0.008   5.438  -1.640  0.00  0.00    +0.047 A 
BRANCH  22  25
ATOM     25  N   UNL     1      -0.897   1.885  -1.312  0.00  0.00    -0.206 N 
ATOM     26  C   UNL     1      -1.883   0.973  -1.897  0.00  0.00    +0.157 C 
BRANCH  25  27
ATOM     27  S   UNL     1      -0.017   1.417   0.010  0.00  0.00    +0.081 S 
ATOM     28  O   UNL     1       0.002  -0.004   0.002  0.00  0.00    -0.149 OA
ATOM     29  O   UNL     1       1.172   2.195   0.003  0.00  0.00    -0.149 OA
BRANCH  27  30
ATOM     30  C   UNL     1      -0.927   1.900   1.439  0.00  0.00    +0.146 A 
ATOM     31  C   UNL     1      -1.862   1.205   2.132  0.00  0.00    +0.036 A 
ATOM     32  C   UNL     1      -2.451   1.790   3.236  0.00  0.00    +0.010 A 
ATOM     33  C   UNL     1      -2.076   3.043   3.595  0.00  0.00    +0.047 A 
ATOM     34  S   UNL     1      -0.850   3.430   2.357  0.00  0.00    -0.077 S 
ENDBRANCH  27  30
ENDBRANCH  25  27
ENDBRANCH  22  25
ENDBRANCH  18  19
ENDBRANCH   1  18
TORSDOF 7
