REMARK  Name = ZINC32052931
REMARK  8 active torsions:
REMARK  status: ('A' for Active; 'I' for Inactive)
REMARK    1  A    between atoms: C_3  and  C_10
REMARK    2  A    between atoms: C_5  and  N_7
REMARK    3  A    between atoms: C_10  and  C_12
REMARK    4  A    between atoms: C_10  and  N_14
REMARK    5  A    between atoms: C_12  and  N_13
REMARK    6  A    between atoms: N_17  and  C_20
REMARK    7  A    between atoms: C_20  and  C_21
REMARK    8  A    between atoms: C_21  and  O_22
REMARK                            x       y       z     vdW  Elec       q    Type
REMARK                         _______ _______ _______ _____ _____    ______ ____
ROOT
ATOM      1  C   UNL     1       0.147   5.218  -1.078  0.00  0.00    +0.070 C 
ENDROOT
BRANCH   1   4
ATOM      2  C   UNL     1      -1.383   4.523   2.303  0.00  0.00    +0.003 A 
ATOM      3  C   UNL     1      -1.173   5.050   1.042  0.00  0.00    +0.005 A 
ATOM      4  C   UNL     1      -0.080   4.648   0.299  0.00  0.00    -0.030 A 
ATOM      5  C   UNL     1       0.806   3.722   0.818  0.00  0.00    +0.037 A 
ATOM      6  C   UNL     1       0.599   3.199   2.080  0.00  0.00    +0.127 A 
ATOM      7  C   UNL     1      -0.494   3.602   2.824  0.00  0.00    +0.033 A 
BRANCH   6   8
ATOM      8  N   UNL     1       1.548   2.208   2.636  0.00  0.00    +0.056 N 
ATOM      9  O   UNL     1       1.365   1.747   3.748  0.00  0.00    -0.126 OA
ATOM     10  O   UNL     1       2.511   1.853   1.980  0.00  0.00    -0.126 OA
ENDBRANCH   6   8
ENDBRANCH   1   4
BRANCH   1  11
ATOM     11  N   UNL     1      -1.148   5.517  -1.703  0.00  0.00    -0.295 NA
ATOM     12  C   UNL     1      -1.096   5.293  -3.155  0.00  0.00    +0.100 C 
ATOM     13  C   UNL     1      -2.482   5.537  -3.756  0.00  0.00    +0.100 C 
ATOM     14  N   UNL     1      -2.909   6.910  -3.453  0.00  0.00    -0.298 NA
ATOM     15  C   UNL     1      -2.962   7.134  -2.002  0.00  0.00    +0.100 C 
ATOM     16  C   UNL     1      -1.576   6.890  -1.401  0.00  0.00    +0.100 C 
BRANCH  14  17
ATOM     17  C   UNL     1      -4.205   7.208  -4.079  0.00  0.00    +0.112 C 
BRANCH  17  18
ATOM     18  C   UNL     1      -4.367   8.723  -4.217  0.00  0.00    +0.171 C 
BRANCH  18  19
ATOM     19  O   UNL     1      -3.351   9.235  -5.081  0.00  0.00    -0.394 OA
ATOM     20  H   UNL     1      -3.307  10.312  -5.301  0.00  0.00    +0.209 HD
ENDBRANCH  18  19
ENDBRANCH  17  18
ENDBRANCH  14  17
ENDBRANCH   1  11
BRANCH   1  21
ATOM     21  C   UNL     1       0.969   6.505  -0.968  0.00  0.00    -0.063 C 
BRANCH  21  22
ATOM     22  N   UNL     1       1.202   7.053  -2.310  0.00  0.00    +0.379 N 
ATOM     23  H   UNL     1       1.792   7.978  -2.231  0.00  0.00    -0.090 HD
ATOM     24  H   UNL     1       0.236   7.274  -2.789  0.00  0.00    -0.090 HD
ATOM     25  H   UNL     1       1.751   6.318  -2.916  0.00  0.00    -0.090 HD
ENDBRANCH  21  22
ENDBRANCH   1  21
TORSDOF 8
