REMARK  Name = ZINC40468015
REMARK  12 active torsions:
REMARK  status: ('A' for Active; 'I' for Inactive)
REMARK    1  A    between atoms: C_1  and  C_2
REMARK    2  A    between atoms: C_2  and  C_3
REMARK    3  A    between atoms: C_3  and  N_4
REMARK    4  A    between atoms: N_4  and  C_5
REMARK    5  A    between atoms: C_5  and  C_7
REMARK    6  A    between atoms: C_5  and  C_8
REMARK    7  A    between atoms: C_15  and  C_17
REMARK    8  A    between atoms: C_17  and  C_19
REMARK    9  A    between atoms: C_17  and  N_23
REMARK   10  A    between atoms: C_19  and  C_20
REMARK   11  A    between atoms: C_20  and  S_21
REMARK   12  A    between atoms: S_21  and  C_22
REMARK                            x       y       z     vdW  Elec       q    Type
REMARK                         _______ _______ _______ _____ _____    ______ ____
ROOT
ATOM      1  N   UNL     1      -1.456  -2.090  -0.179  0.00  0.00    -0.296 N 
ATOM      2  C   UNL     1      -1.346  -2.749  -1.349  0.00  0.00    +0.202 C 
ATOM      3  O   UNL     1      -1.257  -3.959  -1.358  0.00  0.00    -0.277 OA
ENDROOT
BRANCH   1   4
ATOM      4  C   UNL     1      -1.468  -2.834   1.083  0.00  0.00    +0.104 C 
ATOM      5  C   UNL     1      -1.726  -1.869   2.242  0.00  0.00    +0.033 C 
BRANCH   4   6
ATOM      6  C   UNL     1      -0.136  -3.511   1.280  0.00  0.00    -0.013 A 
ATOM      7  C   UNL     1       0.997  -2.995   0.678  0.00  0.00    +0.006 A 
ATOM      8  C   UNL     1       2.219  -3.615   0.859  0.00  0.00    +0.000 A 
ATOM      9  C   UNL     1       2.309  -4.752   1.641  0.00  0.00    +0.001 A 
ATOM     10  C   UNL     1       1.177  -5.268   2.243  0.00  0.00    +0.015 A 
ATOM     11  C   UNL     1      -0.046  -4.644   2.067  0.00  0.00    +0.023 A 
ATOM     12 BR   UNL     1      -1.594  -5.346   2.896  0.00  0.00    -0.050 Br
ENDBRANCH   4   6
ENDBRANCH   1   4
BRANCH   1  13
ATOM     13  C   UNL     1      -1.564  -0.629  -0.169  0.00  0.00    +0.108 C 
BRANCH  13  15
ATOM     14  C   UNL     1      -0.270   1.508  -0.140  0.00  0.00    +0.005 C 
ATOM     15  C   UNL     1      -0.168  -0.015  -0.044  0.00  0.00    +0.016 C 
ENDBRANCH  13  15
ENDBRANCH   1  13
BRANCH   2  16
ATOM     16  C   UNL     1      -1.334  -1.984  -2.647  0.00  0.00    +0.014 C 
BRANCH  16  17
ATOM     17  N   UNL     1      -0.741  -2.817  -3.702  0.00  0.00    +0.386 N 
ATOM     18  H   UNL     1      -1.288  -3.658  -3.813  0.00  0.00    -0.089 HD
ATOM     19  H   UNL     1      -0.733  -2.304  -4.571  0.00  0.00    -0.089 HD
ATOM     20  H   UNL     1       0.204  -3.061  -3.446  0.00  0.00    -0.089 HD
ENDBRANCH  16  17
BRANCH  16  21
ATOM     21  C   UNL     1      -2.767  -1.613  -3.035  0.00  0.00    +0.003 C 
BRANCH  21  22
ATOM     22  C   UNL     1      -2.746  -0.731  -4.284  0.00  0.00    +0.068 C 
BRANCH  22  23
ATOM     23  S   UNL     1      -4.445  -0.292  -4.744  0.00  0.00    -0.164 S 
ATOM     24  C   UNL     1      -4.247   0.741  -6.222  0.00  0.00    +0.084 C 
ENDBRANCH  22  23
ENDBRANCH  21  22
ENDBRANCH  16  21
ENDBRANCH   2  16
TORSDOF 9
