REMARK  Name = ZINC39747848
REMARK  5 active torsions:
REMARK  status: ('A' for Active; 'I' for Inactive)
REMARK    1  A    between atoms: C_7  and  C_10
REMARK    2  A    between atoms: C_13  and  S_16
REMARK    3  A    between atoms: S_16  and  C_17
REMARK    4  A    between atoms: C_17  and  C_19
REMARK    5  A    between atoms: C_17  and  C_26
REMARK                            x       y       z     vdW  Elec       q    Type
REMARK                         _______ _______ _______ _____ _____    ______ ____
ROOT
ATOM      1  C   UNL     1      -0.340  -2.708  -0.302  0.00  0.00    +0.238 C 
ATOM      2  N   UNL     1      -1.557  -3.179  -0.247  0.00  0.00    -0.145 NA
ATOM      3  N   UNL     1      -1.529  -4.570  -0.077  0.00  0.00    -0.219 N 
ATOM      4  C   UNL     1      -0.103  -4.934  -0.031  0.00  0.00    +0.340 C 
ATOM      5  O   UNL     1       0.590  -3.687  -0.187  0.00  0.00    -0.443 OA
ATOM      6  H   UNL     1      -2.290  -5.168  -0.005  0.00  0.00    +0.173 HD
ENDROOT
BRANCH   1  13
ATOM      7  C   UNL     1      -2.963   0.967  -0.738  0.00  0.00    +0.001 A 
ATOM      8  C   UNL     1      -2.243   2.154  -0.884  0.00  0.00    +0.002 A 
ATOM      9  C   UNL     1      -0.887   2.171  -0.891  0.00  0.00    +0.026 A 
ATOM     10  C   UNL     1      -0.165   0.958  -0.747  0.00  0.00    +0.043 A 
ATOM     11  N   UNL     1       1.130   0.711  -0.723  0.00  0.00    -0.380 N 
ATOM     12  C   UNL     1       1.345  -0.729  -0.549  0.00  0.00    +0.154 C 
ATOM     13  C   UNL     1      -0.031  -1.350  -0.468  0.00  0.00    +0.043 C 
ATOM     14  C   UNL     1      -0.930  -0.290  -0.593  0.00  0.00    +0.008 A 
ATOM     15  C   UNL     1      -2.340  -0.231  -0.595  0.00  0.00    +0.010 A 
ATOM     16  H   UNL     1       1.830   1.377  -0.807  0.00  0.00    +0.160 HD
ENDBRANCH   1  13
BRANCH   4  17
ATOM     17  S   UNL     1       0.308  -6.059  -1.393  0.00  0.00    -0.079 S 
BRANCH  17  18
ATOM     18  C   UNL     1      -0.095  -5.109  -2.885  0.00  0.00    +0.167 C 
BRANCH  18  19
ATOM     19  C   UNL     1       0.318  -5.890  -4.105  0.00  0.00    -0.025 A 
ATOM     20  C   UNL     1       1.119  -5.300  -5.065  0.00  0.00    +0.008 A 
ATOM     21  C   UNL     1       1.499  -6.016  -6.184  0.00  0.00    +0.038 A 
ATOM     22  C   UNL     1       1.077  -7.325  -6.344  0.00  0.00    +0.123 A 
ATOM     23  C   UNL     1       0.274  -7.915  -5.383  0.00  0.00    +0.038 A 
ATOM     24  C   UNL     1      -0.100  -7.199  -4.261  0.00  0.00    +0.008 A 
ATOM     25  F   UNL     1       1.447  -8.026  -7.439  0.00  0.00    -0.205 F 
ENDBRANCH  18  19
BRANCH  18  26
ATOM     26  C   UNL     1      -1.579  -4.852  -2.931  0.00  0.00    +0.228 C 
ATOM     27  O   UNL     1      -1.998  -3.714  -2.908  0.00  0.00    -0.274 OA
ATOM     28  N   UNL     1      -2.440  -5.886  -2.997  0.00  0.00    -0.328 N 
ATOM     29  H   UNL     1      -2.110  -6.797  -2.940  0.00  0.00    +0.145 HD
ATOM     30  H   UNL     1      -3.390  -5.721  -3.103  0.00  0.00    +0.145 HD
ENDBRANCH  18  26
ENDBRANCH  17  18
ENDBRANCH   4  17
TORSDOF 5
