REMARK  Name = ZINC54898405
REMARK  5 active torsions:
REMARK  status: ('A' for Active; 'I' for Inactive)
REMARK    1  A    between atoms: C_1  and  C_2
REMARK    2  A    between atoms: C_2  and  C_21
REMARK    3  A    between atoms: C_14  and  C_15
REMARK    4  A    between atoms: C_14  and  C_16
REMARK    5  A    between atoms: C_17  and  N_20
REMARK                            x       y       z     vdW  Elec       q    Type
REMARK                         _______ _______ _______ _____ _____    ______ ____
ROOT
ATOM      1  C   UNL     1      -0.019   1.526   0.010  0.00  0.00    +0.011 C 
ATOM      2  C   UNL     1       0.002  -0.004   0.002  0.00  0.00    -0.031 C 
ATOM      3  C   UNL     1      -1.435  -0.531  -0.004  0.00  0.00    +0.062 C 
ATOM      4  C   UNL     1      -1.401  -2.042   0.173  0.00  0.00    +0.053 A 
ATOM      5  C   UNL     1      -0.296  -2.655   0.668  0.00  0.00    -0.000 A 
ATOM      6  S   UNL     1      -0.767  -4.362   0.668  0.00  0.00    -0.059 S 
ATOM      7  C   UNL     1      -2.320  -4.161   0.045  0.00  0.00    +0.162 A 
ATOM      8  N   UNL     1      -2.407  -2.861  -0.129  0.00  0.00    -0.229 NA
ATOM      9  N   UNL     1      -3.274  -5.131  -0.219  0.00  0.00    -0.300 N 
ATOM     10  C   UNL     1      -3.003  -6.553   0.046  0.00  0.00    +0.135 C 
ATOM     11  C   UNL     1      -3.352  -7.355  -1.213  0.00  0.00    +0.179 C 
ATOM     12  O   UNL     1      -4.681  -7.029  -1.625  0.00  0.00    -0.376 OA
ATOM     13  C   UNL     1      -4.860  -5.659  -1.993  0.00  0.00    +0.185 C 
ATOM     14  C   UNL     1      -4.591  -4.769  -0.768  0.00  0.00    +0.054 C 
ATOM     15  C   UNL     1      -5.671  -5.001   0.290  0.00  0.00    +0.034 C 
ATOM     16  C   UNL     1      -4.587  -3.298  -1.189  0.00  0.00    +0.034 C 
ATOM     17  C   UNL     1       0.983  -2.020   1.097  0.00  0.00    -0.035 C 
ATOM     18  C   UNL     1       0.743  -0.509   1.243  0.00  0.00    -0.005 C 
ATOM     19  C   UNL     1       0.725  -0.495  -1.254  0.00  0.00    +0.011 C 
ENDROOT
BRANCH  17  20
ATOM     20  N   UNL     1       1.407  -2.582   2.387  0.00  0.00    +0.383 N 
ATOM     21  H   UNL     1       1.543  -3.577   2.291  0.00  0.00    -0.089 HD
ATOM     22  H   UNL     1       2.272  -2.150   2.674  0.00  0.00    -0.089 HD
ATOM     23  H   UNL     1       0.696  -2.405   3.081  0.00  0.00    -0.089 HD
ENDBRANCH  17  20
TORSDOF 1
