REMARK  Name = ZINC22219485
REMARK  6 active torsions:
REMARK  status: ('A' for Active; 'I' for Inactive)
REMARK    1  A    between atoms: C_1  and  C_2
REMARK    2  A    between atoms: C_6  and  N_19
REMARK    3  A    between atoms: C_7  and  C_8
REMARK    4  A    between atoms: N_10  and  C_11
REMARK    5  A    between atoms: N_10  and  C_12
REMARK    6  A    between atoms: N_15  and  C_18
REMARK                            x       y       z     vdW  Elec       q    Type
REMARK                         _______ _______ _______ _____ _____    ______ ____
ROOT
ATOM      1  C   UNL     1       0.015   3.810   0.034  0.00  0.00    +0.249 C 
ATOM      2  O   UNL     1       0.533   4.135  -1.017  0.00  0.00    -0.270 OA
ATOM      3  N   UNL     1       0.595   4.148   1.203  0.00  0.00    -0.298 N 
ATOM      4  C   UNL     1      -0.028   3.756   2.470  0.00  0.00    +0.132 C 
ENDROOT
BRANCH   3   5
ATOM      5  C   UNL     1       1.849   4.906   1.207  0.00  0.00    +0.073 C 
ATOM      6  C   UNL     1       2.933   4.097   1.925  0.00  0.00    +0.004 C 
ATOM      7  C   UNL     1       4.223   4.919   1.979  0.00  0.00    -0.077 C 
ATOM      8  N   UNL     1       3.973   6.178   2.692  0.00  0.00    +0.378 N 
ATOM      9  C   UNL     1       2.969   6.993   1.996  0.00  0.00    -0.077 C 
ATOM     10  C   UNL     1       1.642   6.233   1.942  0.00  0.00    +0.004 C 
ATOM     11  C   UNL     1       5.220   6.931   2.885  0.00  0.00    -0.096 C 
ATOM     12  H   UNL     1       3.571   5.927   3.685  0.00  0.00    -0.082 HD
ENDBRANCH   3   5
BRANCH   1  19
ATOM     13  C   UNL     1      -2.509   5.223   0.045  0.00  0.00    +0.044 C 
ATOM     14  C   UNL     1      -2.473   3.717   0.035  0.00  0.00    -0.037 A 
ATOM     15  C   UNL     1      -3.648   2.998   0.037  0.00  0.00    +0.004 A 
ATOM     16  C   UNL     1      -3.622   1.613   0.029  0.00  0.00    +0.002 A 
ATOM     17  C   UNL     1      -2.419   0.937   0.019  0.00  0.00    +0.023 A 
ATOM     18  C   UNL     1      -1.223   1.644   0.017  0.00  0.00    +0.037 A 
ATOM     19  C   UNL     1      -1.246   3.047   0.030  0.00  0.00    +0.060 A 
BRANCH  18  20
ATOM     20  N   UNL     1      -0.011   0.966   0.007  0.00  0.00    -0.357 N 
ATOM     21  H   UNL     1       0.934   1.529   0.006  0.00  0.00    +0.142 HD
ATOM     22  H   UNL     1       0.004  -0.134   0.001  0.00  0.00    +0.142 HD
ENDBRANCH  18  20
ENDBRANCH   1  19
TORSDOF 3
