REMARK  Name = ZINC26918613
REMARK  3 active torsions:
REMARK  status: ('A' for Active; 'I' for Inactive)
REMARK    1  A    between atoms: C_1  and  C_2
REMARK    2  A    between atoms: C_4  and  C_14
REMARK    3  A    between atoms: N_16  and  C_17
REMARK                            x       y       z     vdW  Elec       q    Type
REMARK                         _______ _______ _______ _____ _____    ______ ____
ROOT
ATOM      1  C   UNL     1      -0.980   2.862   1.278  0.00  0.00    +0.262 C 
ATOM      2  O   UNL     1      -2.099   3.326   1.216  0.00  0.00    -0.271 OA
ATOM      3  N   UNL     1       0.082   3.680   1.419  0.00  0.00    -0.281 N 
ATOM      4  H   UNL     1       1.101   3.266   1.401  0.00  0.00    +0.155 HD
ENDROOT
BRANCH   1   7
ATOM      5  C   UNL     1       1.222   1.715  -0.274  0.00  0.00    +0.056 C 
ATOM      6  C   UNL     1      -0.129   1.009  -0.146  0.00  0.00    +0.220 C 
ATOM      7  C   UNL     1      -0.777   1.371   1.197  0.00  0.00    +0.299 C 
ATOM      8  O   UNL     1      -2.042   0.705   1.279  0.00  0.00    -0.472 OA
ATOM      9  C   UNL     1      -2.842   0.775   0.180  0.00  0.00    +0.163 A 
ATOM     10  C   UNL     1      -4.191   0.478   0.300  0.00  0.00    +0.049 A 
ATOM     11  C   UNL     1      -5.015   0.540  -0.807  0.00  0.00    +0.004 A 
ATOM     12  C   UNL     1      -4.497   0.899  -2.038  0.00  0.00    +0.004 A 
ATOM     13  C   UNL     1      -3.154   1.198  -2.164  0.00  0.00    +0.049 A 
ATOM     14  C   UNL     1      -2.321   1.138  -1.056  0.00  0.00    +0.163 A 
ATOM     15  O   UNL     1      -1.001   1.441  -1.196  0.00  0.00    -0.481 OA
ENDBRANCH   1   7
BRANCH   3  16
ATOM     16  C   UNL     1      -0.112   5.056   1.589  0.00  0.00    +0.059 A 
ATOM     17  C   UNL     1      -1.198   5.682   1.006  0.00  0.00    +0.025 A 
ATOM     18  C   UNL     1      -1.397   7.047   1.171  0.00  0.00    +0.003 A 
ATOM     19  C   UNL     1      -0.528   7.794   1.910  0.00  0.00    +0.011 A 
ATOM     20  C   UNL     1       0.581   7.185   2.514  0.00  0.00    +0.021 A 
ATOM     21  C   UNL     1       0.787   5.803   2.356  0.00  0.00    +0.087 A 
ATOM     22  N   UNL     1       1.927   5.494   3.053  0.00  0.00    -0.275 N 
ATOM     23  H   UNL     1       2.295   4.457   3.072  0.00  0.00    +0.189 HD
ATOM     24  N   UNL     1       2.413   6.670   3.636  0.00  0.00    -0.181 NA
ATOM     25  C   UNL     1       1.639   7.668   3.322  0.00  0.00    +0.142 A 
ENDBRANCH   3  16
TORSDOF 2
