REMARK  Name = ZINC24880192
REMARK  9 active torsions:
REMARK  status: ('A' for Active; 'I' for Inactive)
REMARK    1  A    between atoms: C_1  and  N_2
REMARK    2  A    between atoms: N_2  and  C_3
REMARK    3  A    between atoms: N_2  and  C_20
REMARK    4  A    between atoms: C_3  and  C_4
REMARK    5  A    between atoms: C_4  and  C_5
REMARK    6  A    between atoms: N_7  and  N_8
REMARK    7  A    between atoms: C_20  and  C_21
REMARK    8  A    between atoms: N_23  and  C_24
REMARK    9  A    between atoms: C_29  and  C_30
REMARK                            x       y       z     vdW  Elec       q    Type
REMARK                         _______ _______ _______ _____ _____    ______ ____
ROOT
ATOM      1  C   UNL     1       3.679   1.738   0.246  0.00  0.00    -0.069 C 
ENDROOT
BRANCH   1   3
ATOM      2  C   UNL     1       2.454   0.285  -1.254  0.00  0.00    -0.096 C 
ATOM      3  N   UNL     1       2.409   1.039   0.006  0.00  0.00    +0.384 N 
ATOM      4  H   UNL     1       2.259   0.320   0.824  0.00  0.00    -0.082 HD
BRANCH   3   5
ATOM      5  C   UNL     1       1.280   1.979   0.017  0.00  0.00    +0.018 C 
BRANCH   5   6
ATOM      6  C   UNL     1      -0.015   1.208   0.014  0.00  0.00    +0.201 C 
ATOM      7  O   UNL     1       0.001  -0.004   0.004  0.00  0.00    -0.278 OA
ATOM      8  N   UNL     1      -1.191   1.867   0.018  0.00  0.00    -0.287 N 
ATOM      9  H   UNL     1      -1.207   2.963   0.102  0.00  0.00    +0.155 HD
BRANCH   8  10
ATOM     10  C   UNL     1      -2.391   1.155  -0.086  0.00  0.00    +0.045 A 
ATOM     11  C   UNL     1      -2.510  -0.099   0.499  0.00  0.00    +0.024 A 
ATOM     12  C   UNL     1      -3.697  -0.796   0.399  0.00  0.00    +0.002 A 
ATOM     13  C   UNL     1      -4.764  -0.252  -0.292  0.00  0.00    +0.001 A 
ATOM     14  C   UNL     1      -4.648   0.994  -0.880  0.00  0.00    +0.014 A 
ATOM     15  C   UNL     1      -3.464   1.699  -0.779  0.00  0.00    +0.076 A 
BRANCH  15  16
ATOM     16  C   UNL     1      -3.338   3.057  -1.421  0.00  0.00    +0.419 C 
ATOM     17  F   UNL     1      -4.540   3.386  -2.055  0.00  0.00    -0.166 F 
ATOM     18  F   UNL     1      -3.051   4.011  -0.439  0.00  0.00    -0.166 F 
ATOM     19  F   UNL     1      -2.305   3.032  -2.364  0.00  0.00    -0.166 F 
ENDBRANCH  15  16
ENDBRANCH   8  10
ENDBRANCH   5   6
ENDBRANCH   3   5
ENDBRANCH   1   3
BRANCH   1  20
ATOM     20  C   UNL     1       4.791   0.713   0.475  0.00  0.00    +0.079 C 
BRANCH  20  21
ATOM     21  C   UNL     1       6.093   1.430   0.722  0.00  0.00    +0.228 C 
ATOM     22  O   UNL     1       6.128   2.642   0.716  0.00  0.00    -0.274 OA
ATOM     23  N   UNL     1       7.218   0.724   0.950  0.00  0.00    -0.224 N 
ATOM     24  H   UNL     1       7.186  -0.375   0.956  0.00  0.00    +0.174 HD
BRANCH  23  25
ATOM     25  N   UNL     1       8.429   1.391   1.179  0.00  0.00    -0.137 N 
ATOM     26  C   UNL     1       9.011   1.510   2.390  0.00  0.00    +0.263 C 
ATOM     27  O   UNL     1       8.604   1.076   3.446  0.00  0.00    -0.271 OA
ATOM     28  C   UNL     1      10.280   2.296   2.153  0.00  0.00    +0.114 C 
ATOM     29  C   UNL     1      11.500   1.467   2.540  0.00  0.00    +0.035 C 
ATOM     30  C   UNL     1      12.774   2.270   2.266  0.00  0.00    +0.003 C 
ATOM     31  C   UNL     1      12.741   3.568   3.075  0.00  0.00    +0.000 C 
ATOM     32  C   UNL     1      11.527   4.400   2.658  0.00  0.00    +0.003 C 
ATOM     33  C   UNL     1      10.247   3.606   2.933  0.00  0.00    +0.035 C 
ATOM     34  N   UNL     1      10.272   2.558   0.708  0.00  0.00    -0.284 N 
ATOM     35  C   UNL     1       9.154   1.985   0.223  0.00  0.00    +0.326 C 
ATOM     36  O   UNL     1       8.837   2.007  -0.950  0.00  0.00    -0.251 OA
ATOM     37  H   UNL     1      11.093   3.128   0.247  0.00  0.00    +0.151 HD
ENDBRANCH  23  25
ENDBRANCH  20  21
ENDBRANCH   1  20
TORSDOF 8
