REMARK  Name = ZINC60021050
REMARK  7 active torsions:
REMARK  status: ('A' for Active; 'I' for Inactive)
REMARK    1  A    between atoms: C_3  and  N_17
REMARK    2  A    between atoms: C_5  and  N_7
REMARK    3  A    between atoms: N_10  and  C_13
REMARK    4  A    between atoms: C_13  and  C_14
REMARK    5  A    between atoms: C_18  and  C_20
REMARK    6  A    between atoms: C_20  and  O_21
REMARK    7  A    between atoms: O_21  and  C_22
REMARK                            x       y       z     vdW  Elec       q    Type
REMARK                         _______ _______ _______ _____ _____    ______ ____
ROOT
ATOM      1  C   UNL     1      -0.096   1.402  -0.142  0.00  0.00    +0.004 A 
ATOM      2  C   UNL     1       1.109   2.077  -0.176  0.00  0.00    +0.023 A 
ATOM      3  C   UNL     1       2.302   1.381  -0.027  0.00  0.00    +0.035 A 
ATOM      4  C   UNL     1       2.283   0.006   0.156  0.00  0.00    +0.046 A 
ATOM      5  C   UNL     1       1.072  -0.670   0.189  0.00  0.00    +0.031 A 
ATOM      6  C   UNL     1      -0.118   0.033   0.040  0.00  0.00    +0.023 A 
ENDROOT
BRANCH   5   7
ATOM      7  N   UNL     1       1.048  -2.054   0.373  0.00  0.00    -0.333 N 
ATOM      8  C   UNL     1       2.282  -2.800   0.662  0.00  0.00    +0.086 C 
ATOM      9  C   UNL     1       2.038  -3.686   1.888  0.00  0.00    -0.060 C 
ATOM     10  N   UNL     1       0.861  -4.532   1.653  0.00  0.00    +0.382 N 
ATOM     11  C   UNL     1      -0.339  -3.694   1.525  0.00  0.00    -0.060 C 
ATOM     12  C   UNL     1      -0.213  -2.807   0.287  0.00  0.00    +0.086 C 
ATOM     13  H   UNL     1       0.992  -5.060   0.803  0.00  0.00    -0.082 HD
BRANCH  10  14
ATOM     14  C   UNL     1       0.691  -5.458   2.780  0.00  0.00    -0.075 C 
BRANCH  14  15
ATOM     15  C   UNL     1      -0.459  -6.421   2.481  0.00  0.00    -0.028 C 
ATOM     16  C   UNL     1      -1.686  -6.362   3.393  0.00  0.00    +0.002 C 
ATOM     17  C   UNL     1      -0.719  -7.545   3.486  0.00  0.00    +0.002 C 
ENDBRANCH  14  15
ENDBRANCH  10  14
ENDBRANCH   5   7
BRANCH   3  18
ATOM     18  N   UNL     1       3.522   2.066  -0.062  0.00  0.00    -0.283 N 
ATOM     19  C   UNL     1       3.603   3.322   0.420  0.00  0.00    +0.255 C 
ATOM     20  O   UNL     1       2.646   3.824   0.970  0.00  0.00    -0.272 OA
ATOM     21  H   UNL     1       4.309   1.637  -0.433  0.00  0.00    +0.155 HD
BRANCH  19  22
ATOM     22  C   UNL     1       4.884   4.104   0.275  0.00  0.00    +0.324 C 
BRANCH  22  23
ATOM     23  O   UNL     1       4.721   5.397   0.860  0.00  0.00    -0.483 OA
BRANCH  23  24
ATOM     24  C   UNL     1       5.792   6.234   0.814  0.00  0.00    +0.121 A 
ATOM     25  C   UNL     1       6.971   5.820   0.213  0.00  0.00    +0.047 A 
ATOM     26  C   UNL     1       8.058   6.672   0.167  0.00  0.00    +0.019 A 
ATOM     27  C   UNL     1       7.970   7.937   0.720  0.00  0.00    +0.018 A 
ATOM     28  C   UNL     1       6.794   8.351   1.321  0.00  0.00    +0.019 A 
ATOM     29  C   UNL     1       5.704   7.505   1.363  0.00  0.00    +0.047 A 
ATOM     30 BR   UNL     1       9.459   9.101   0.656  0.00  0.00    -0.050 Br
ENDBRANCH  23  24
ENDBRANCH  22  23
ENDBRANCH  19  22
ENDBRANCH   3  18
TORSDOF 7
