REMARK  Name = ZINC45118736
REMARK  6 active torsions:
REMARK  status: ('A' for Active; 'I' for Inactive)
REMARK    1  A    between atoms: C_1  and  C_2
REMARK    2  A    between atoms: C_2  and  C_3
REMARK    3  A    between atoms: C_2  and  N_4
REMARK    4  A    between atoms: C_7  and  C_10
REMARK    5  A    between atoms: C_10  and  N_11
REMARK    6  A    between atoms: C_13  and  N_19
REMARK                            x       y       z     vdW  Elec       q    Type
REMARK                         _______ _______ _______ _____ _____    ______ ____
ROOT
ATOM      1  N   UNL     1       0.706  -4.013   4.433  0.00  0.00    -0.327 N 
ATOM      2  C   UNL     1       0.320  -5.241   4.967  0.00  0.00    +0.140 A 
ATOM      3  C   UNL     1       0.548  -5.511   6.319  0.00  0.00    +0.066 A 
ATOM      4  C   UNL     1       0.157  -6.739   6.835  0.00  0.00    +0.043 A 
ATOM      5  C   UNL     1      -0.448  -7.653   5.980  0.00  0.00    +0.038 A 
ATOM      6  C   UNL     1      -0.640  -7.317   4.655  0.00  0.00    +0.128 A 
ATOM      7  N   UNL     1      -0.264  -6.139   4.192  0.00  0.00    -0.238 NA
ATOM      8 BR   UNL     1      -1.001  -9.342   6.626  0.00  0.00    -0.049 Br
ATOM      9  H   UNL     1       1.135  -3.352   4.999  0.00  0.00    +0.148 HD
ENDROOT
BRANCH   3  10
ATOM     10  N   UNL     1       1.161  -4.558   7.141  0.00  0.00    -0.355 N 
ATOM     11  H   UNL     1       1.431  -3.702   6.773  0.00  0.00    +0.142 HD
ATOM     12  H   UNL     1       1.315  -4.753   8.079  0.00  0.00    +0.142 HD
ENDBRANCH   3  10
BRANCH   1  13
ATOM     13  C   UNL     1       0.465  -3.721   3.018  0.00  0.00    +0.104 C 
BRANCH  13  17
ATOM     14  N   UNL     1       0.713  -0.491   1.192  0.00  0.00    +0.381 N 
ATOM     15  C   UNL     1      -0.015  -0.096   2.418  0.00  0.00    -0.078 C 
ATOM     16  C   UNL     1       0.148  -1.245   3.430  0.00  0.00    -0.015 C 
ATOM     17  C   UNL     1       0.980  -2.318   2.692  0.00  0.00    -0.012 C 
ATOM     18  C   UNL     1       0.742  -1.976   1.200  0.00  0.00    -0.074 C 
ATOM     19  H   UNL     1       1.652  -0.124   1.211  0.00  0.00    -0.081 HD
BRANCH  14  21
ATOM     20  C   UNL     1      -0.019   1.526   0.010  0.00  0.00    -0.014 C 
ATOM     21  C   UNL     1       0.002  -0.004   0.002  0.00  0.00    -0.075 C 
ATOM     22  C   UNL     1       0.718  -0.497  -1.257  0.00  0.00    -0.014 C 
ENDBRANCH  14  21
ENDBRANCH  13  17
ENDBRANCH   1  13
TORSDOF 4
