REMARK  Name = ZINC63182669
REMARK  10 active torsions:
REMARK  status: ('A' for Active; 'I' for Inactive)
REMARK    1  A    between atoms: C_1  and  O_2
REMARK    2  A    between atoms: O_2  and  C_3
REMARK    3  A    between atoms: C_6  and  C_9
REMARK    4  A    between atoms: C_12  and  S_20
REMARK    5  A    between atoms: N_13  and  C_14
REMARK    6  A    between atoms: S_20  and  C_21
REMARK    7  A    between atoms: C_21  and  C_22
REMARK    8  A    between atoms: N_24  and  C_25
REMARK    9  A    between atoms: C_25  and  C_26
REMARK   10  A    between atoms: C_26  and  C_27
REMARK                            x       y       z     vdW  Elec       q    Type
REMARK                         _______ _______ _______ _____ _____    ______ ____
ROOT
ATOM      1  C   UNL     1       2.499  -2.490  -4.360  0.00  0.00    +0.165 A 
ATOM      2  N   UNL     1       2.748  -1.948  -5.530  0.00  0.00    -0.128 NA
ATOM      3  N   UNL     1       3.320  -2.805  -6.298  0.00  0.00    -0.122 NA
ATOM      4  C   UNL     1       3.473  -3.947  -5.665  0.00  0.00    +0.193 A 
ATOM      5  N   UNL     1       2.962  -3.785  -4.409  0.00  0.00    -0.299 N 
ENDROOT
BRANCH   1   9
ATOM      6  C   UNL     1       0.638  -0.596  -1.044  0.00  0.00    +0.120 A 
ATOM      7  C   UNL     1       1.602  -1.572  -0.832  0.00  0.00    +0.046 A 
ATOM      8  C   UNL     1       2.209  -2.189  -1.905  0.00  0.00    +0.015 A 
ATOM      9  C   UNL     1       1.851  -1.831  -3.207  0.00  0.00    +0.020 A 
ATOM     10  C   UNL     1       0.881  -0.850  -3.415  0.00  0.00    +0.015 A 
ATOM     11  C   UNL     1       0.276  -0.241  -2.337  0.00  0.00    +0.046 A 
BRANCH   6  13
ATOM     12  C   UNL     1       0.462  -0.402   1.319  0.00  0.00    +0.277 C 
ATOM     13  O   UNL     1       0.043   0.010   0.017  0.00  0.00    -0.495 OA
ENDBRANCH   6  13
ENDBRANCH   1   9
BRANCH   5  14
ATOM     14  C   UNL     1       2.913  -4.783  -3.338  0.00  0.00    +0.091 C 
ATOM     15  C   UNL     1       4.337  -5.128  -2.896  0.00  0.00    +0.025 C 
ATOM     16  C   UNL     1       4.287  -6.170  -1.778  0.00  0.00    +0.002 C 
ATOM     17  C   UNL     1       3.592  -7.434  -2.289  0.00  0.00    +0.000 C 
ATOM     18  C   UNL     1       2.168  -7.089  -2.731  0.00  0.00    +0.002 C 
ATOM     19  C   UNL     1       2.219  -6.047  -3.849  0.00  0.00    +0.025 C 
ENDBRANCH   5  14
BRANCH   4  20
ATOM     20  S   UNL     1       4.208  -5.411  -6.315  0.00  0.00    -0.077 S 
BRANCH  20  21
ATOM     21  C   UNL     1       4.677  -4.953  -8.006  0.00  0.00    +0.173 C 
BRANCH  21  22
ATOM     22  C   UNL     1       5.326  -6.133  -8.684  0.00  0.00    +0.223 C 
ATOM     23  O   UNL     1       5.458  -7.179  -8.085  0.00  0.00    -0.275 OA
ATOM     24  N   UNL     1       5.759  -6.025  -9.956  0.00  0.00    -0.314 N 
ATOM     25  H   UNL     1       5.653  -5.188 -10.435  0.00  0.00    +0.149 HD
BRANCH  24  26
ATOM     26  C   UNL     1       6.389  -7.171 -10.614  0.00  0.00    +0.108 C 
BRANCH  26  27
ATOM     27  C   UNL     1       6.786  -6.786 -12.041  0.00  0.00    +0.052 C 
BRANCH  27  28
ATOM     28  C   UNL     1       7.434  -7.965 -12.719  0.00  0.00    -0.040 C 
ATOM     29  C   UNL     1       6.834  -8.873 -13.522  0.00  0.00    -0.001 A 
ATOM     30  C   UNL     1       5.451  -9.028 -13.987  0.00  0.00    +0.010 A 
ATOM     31  C   UNL     1       5.145 -10.061 -14.804  0.00  0.00    +0.001 A 
ATOM     32  C   UNL     1       6.115 -10.986 -15.217  0.00  0.00    +0.002 A 
ATOM     33  C   UNL     1       7.406 -10.909 -14.832  0.00  0.00    +0.026 A 
ATOM     34  C   UNL     1       7.839  -9.862 -13.973  0.00  0.00    +0.043 A 
ATOM     35  N   UNL     1       9.015  -9.577 -13.468  0.00  0.00    -0.380 N 
ATOM     36  C   UNL     1       8.889  -8.370 -12.643  0.00  0.00    +0.144 C 
ATOM     37  H   UNL     1       9.832 -10.078 -13.617  0.00  0.00    +0.160 HD
ENDBRANCH  27  28
ENDBRANCH  26  27
ENDBRANCH  24  26
ENDBRANCH  21  22
ENDBRANCH  20  21
ENDBRANCH   4  20
TORSDOF 9
