REMARK  Name = ZINC05262121
REMARK  10 active torsions:
REMARK  status: ('A' for Active; 'I' for Inactive)
REMARK    1  A    between atoms: C_1  and  C_2
REMARK    2  A    between atoms: C_2  and  C_3
REMARK    3  A    between atoms: C_3  and  C_5
REMARK    4  A    between atoms: C_3  and  N_60
REMARK    5  A    between atoms: C_8  and  S_10
REMARK    6  A    between atoms: S_10  and  C_11
REMARK    7  A    between atoms: C_11  and  C_12
REMARK    8  A    between atoms: N_17  and  C_18
REMARK    9  A    between atoms: C_28  and  N_60
REMARK   10  A    between atoms: C_29  and  N_60
REMARK                            x       y       z     vdW  Elec       q    Type
REMARK                         _______ _______ _______ _____ _____    ______ ____
ROOT
ATOM      1  C   UNL     1       2.709   8.827   3.237  0.00  0.00    +0.231 C 
ATOM      2  O   UNL     1       3.264   8.568   4.283  0.00  0.00    -0.274 OA
ATOM      3  N   UNL     1       2.454  10.110   2.909  0.00  0.00    -0.239 N 
ATOM      4  C   UNL     1       2.815  11.104   3.744  0.00  0.00    +0.306 C 
ATOM      5  O   UNL     1       3.372  10.844   4.793  0.00  0.00    -0.252 OA
ATOM      6  N   UNL     1       2.560  12.386   3.417  0.00  0.00    -0.294 N 
ATOM      7  H   UNL     1       2.009  10.317   2.072  0.00  0.00    +0.159 HD
ATOM      8  H   UNL     1       2.115  12.593   2.579  0.00  0.00    +0.151 HD
ENDROOT
BRANCH   6   9
ATOM      9  C   UNL     1       2.953  13.466   4.324  0.00  0.00    +0.037 C 
ATOM     10  C   UNL     1       2.250  13.282   5.671  0.00  0.00    +0.029 C 
ATOM     11  C   UNL     1       2.660  14.410   6.619  0.00  0.00    -0.008 C 
ATOM     12  C   UNL     1       2.258  15.757   6.014  0.00  0.00    +0.007 C 
ATOM     13  C   UNL     1       2.961  15.941   4.667  0.00  0.00    -0.008 C 
ATOM     14  C   UNL     1       2.550  14.812   3.719  0.00  0.00    +0.029 C 
ATOM     15  C   UNL     1       4.476  15.907   4.874  0.00  0.00    +0.007 C 
ATOM     16  C   UNL     1       4.879  14.561   5.479  0.00  0.00    -0.008 C 
ATOM     17  C   UNL     1       4.176  14.377   6.826  0.00  0.00    +0.007 C 
ATOM     18  C   UNL     1       4.468  13.432   4.531  0.00  0.00    +0.029 C 
ENDBRANCH   6   9
BRANCH   1  19
ATOM     19  C   UNL     1       2.305   7.716   2.303  0.00  0.00    +0.175 C 
BRANCH  19  20
ATOM     20  S   UNL     1       2.781   6.123   3.019  0.00  0.00    -0.056 S 
BRANCH  20  24
ATOM     21  C   UNL     1       1.734   3.276   0.606  0.00  0.00    +0.205 A 
ATOM     22  N   UNL     1       1.335   4.331  -0.042  0.00  0.00    -0.113 NA
ATOM     23  N   UNL     1       1.609   5.385   0.642  0.00  0.00    -0.101 NA
ATOM     24  C   UNL     1       2.206   5.036   1.757  0.00  0.00    +0.278 A 
ATOM     25  O   UNL     1       2.297   3.693   1.757  0.00  0.00    -0.417 OA
BRANCH  21  26
ATOM     26  C   UNL     1       1.597   1.846   0.150  0.00  0.00    +0.020 C 
BRANCH  26  29
ATOM     27  C   UNL     1       3.320   2.301  -1.489  0.00  0.00    -0.096 C 
ATOM     28  C   UNL     1       1.901   0.354  -1.733  0.00  0.00    -0.096 C 
ATOM     29  N   UNL     1       1.960   1.760  -1.280  0.00  0.00    +0.384 N 
ATOM     30  H   UNL     1       1.293   2.315  -1.828  0.00  0.00    -0.082 HD
ENDBRANCH  26  29
BRANCH  26  32
ATOM     31  C   UNL     1      -0.210   1.363   1.807  0.00  0.00    +0.003 C 
ATOM     32  C   UNL     1       0.145   1.394   0.319  0.00  0.00    -0.009 C 
ENDBRANCH  26  32
ENDBRANCH  21  26
ENDBRANCH  20  24
ENDBRANCH  19  20
ENDBRANCH   1  19
TORSDOF 7
