REMARK  Name = ZINC21323715
REMARK  12 active torsions:
REMARK  status: ('A' for Active; 'I' for Inactive)
REMARK    1  A    between atoms: C_1  and  C_2
REMARK    2  A    between atoms: C_2  and  C_26
REMARK    3  A    between atoms: N_3  and  N_4
REMARK    4  A    between atoms: C_8  and  S_11
REMARK    5  A    between atoms: N_9  and  N_10
REMARK    6  A    between atoms: S_11  and  C_12
REMARK    7  A    between atoms: C_12  and  C_13
REMARK    8  A    between atoms: N_15  and  C_16
REMARK    9  A    between atoms: C_19  and  O_24
REMARK   10  A    between atoms: C_21  and  O_22
REMARK   11  A    between atoms: O_22  and  C_23
REMARK   12  A    between atoms: O_24  and  C_25
REMARK                            x       y       z     vdW  Elec       q    Type
REMARK                         _______ _______ _______ _____ _____    ______ ____
ROOT
ATOM      1  N   UNL     1      -9.998   2.563  -0.702  0.00  0.00    -0.204 N 
ATOM      2  C   UNL     1      -8.616   2.588  -0.587  0.00  0.00    +0.254 A 
ATOM      3  N   UNL     1      -7.869   3.663  -0.518  0.00  0.00    -0.109 NA
ATOM      4  N   UNL     1      -6.533   3.255  -0.405  0.00  0.00    -0.119 NA
ATOM      5  C   UNL     1      -6.508   1.943  -0.417  0.00  0.00    +0.210 A 
ATOM      6  N   UNL     1      -7.794   1.497  -0.526  0.00  0.00    -0.211 N 
ATOM      7  H   UNL     1     -10.528   1.600  -0.752  0.00  0.00    +0.178 HD
ENDROOT
BRANCH   1  10
ATOM      8  C   UNL     1     -12.740   2.420  -0.930  0.00  0.00    +0.068 C 
ATOM      9  C   UNL     1     -12.014   3.739  -0.861  0.00  0.00    +0.063 C 
ATOM     10  N   UNL     1     -10.720   3.763  -0.753  0.00  0.00    -0.184 NA
BRANCH   9  11
ATOM     11  C   UNL     1     -12.772   5.001  -0.915  0.00  0.00    -0.002 A 
ATOM     12  C   UNL     1     -14.175   4.969  -1.032  0.00  0.00    +0.010 A 
ATOM     13  C   UNL     1     -14.895   6.118  -1.084  0.00  0.00    +0.009 A 
ATOM     14  C   UNL     1     -14.241   7.362  -1.021  0.00  0.00    -0.018 A 
ATOM     15  C   UNL     1     -14.966   8.565  -1.071  0.00  0.00    +0.008 A 
ATOM     16  C   UNL     1     -14.306   9.754  -1.008  0.00  0.00    +0.001 A 
ATOM     17  C   UNL     1     -12.918   9.800  -0.892  0.00  0.00    +0.001 A 
ATOM     18  C   UNL     1     -12.182   8.656  -0.840  0.00  0.00    +0.008 A 
ATOM     19  C   UNL     1     -12.828   7.409  -0.904  0.00  0.00    -0.017 A 
ATOM     20  C   UNL     1     -12.100   6.211  -0.846  0.00  0.00    +0.018 A 
ENDBRANCH   9  11
ENDBRANCH   1  10
BRANCH   6  21
ATOM     21  N   UNL     1      -8.190   0.191  -0.567  0.00  0.00    -0.294 N 
ATOM     22  H   UNL     1      -7.441  -0.613  -0.510  0.00  0.00    +0.163 HD
ATOM     23  H   UNL     1      -9.258  -0.058  -0.656  0.00  0.00    +0.163 HD
ENDBRANCH   6  21
BRANCH   5  24
ATOM     24  S   UNL     1      -5.068   0.934  -0.304  0.00  0.00    -0.075 S 
BRANCH  24  25
ATOM     25  C   UNL     1      -3.705   2.125  -0.184  0.00  0.00    +0.173 C 
BRANCH  25  26
ATOM     26  C   UNL     1      -2.397   1.384  -0.081  0.00  0.00    +0.228 C 
ATOM     27  O   UNL     1      -2.386   0.171  -0.088  0.00  0.00    -0.275 OA
ATOM     28  N   UNL     1      -1.241   2.068   0.019  0.00  0.00    -0.282 N 
ATOM     29  H   UNL     1      -1.257   3.164   0.117  0.00  0.00    +0.155 HD
BRANCH  28  30
ATOM     30  C   UNL     1      -0.016   1.384  -0.002  0.00  0.00    +0.076 A 
ATOM     31  C   UNL     1       0.075   0.144  -0.616  0.00  0.00    +0.030 A 
ATOM     32  C   UNL     1       1.282  -0.528  -0.642  0.00  0.00    +0.047 A 
ATOM     33  C   UNL     1       2.405   0.036  -0.053  0.00  0.00    +0.124 A 
ATOM     34  C   UNL     1       2.319   1.275   0.562  0.00  0.00    +0.093 A 
ATOM     35  C   UNL     1       1.110   1.951   0.590  0.00  0.00    +0.145 A 
BRANCH  35  36
ATOM     36  O   UNL     1       1.023   3.167   1.193  0.00  0.00    -0.493 OA
ATOM     37  C   UNL     1       2.218   3.687   1.779  0.00  0.00    +0.277 C 
ENDBRANCH  35  36
BRANCH  33  38
ATOM     38  O   UNL     1       3.592  -0.627  -0.081  0.00  0.00    -0.495 OA
ATOM     39  C   UNL     1       3.609  -1.899  -0.732  0.00  0.00    +0.277 C 
ENDBRANCH  33  38
ENDBRANCH  28  30
ENDBRANCH  25  26
ENDBRANCH  24  25
ENDBRANCH   5  24
TORSDOF 9
