REMARK  Name = ZINC61888108
REMARK  5 active torsions:
REMARK  status: ('A' for Active; 'I' for Inactive)
REMARK    1  A    between atoms: C_2  and  S_9
REMARK    2  A    between atoms: S_9  and  N_12
REMARK    3  A    between atoms: N_12  and  C_13
REMARK    4  A    between atoms: C_18  and  C_20
REMARK    5  A    between atoms: N_21  and  O_22
REMARK                            x       y       z     vdW  Elec       q    Type
REMARK                         _______ _______ _______ _____ _____    ______ ____
ROOT
ATOM      1  N   UNL     1       0.952   4.289   1.661  0.00  0.00    -0.186 NA
ATOM      2  H   UNL     1       0.242   4.794   2.086  0.00  0.00    +0.148 HD
ENDROOT
BRANCH   1   3
ATOM      3  C   UNL     1       2.182   3.991   2.399  0.00  0.00    +0.087 C 
ATOM      4  C   UNL     1       3.145   5.195   2.328  0.00  0.00    +0.021 C 
ATOM      5  C   UNL     1       2.871   5.978   3.636  0.00  0.00    +0.002 C 
ATOM      6  C   UNL     1       2.643   4.847   4.670  0.00  0.00    +0.013 C 
ATOM      7  C   UNL     1       1.863   3.769   3.888  0.00  0.00    +0.074 C 
BRANCH   7   8
ATOM      8  C   UNL     1       2.312   2.395   4.312  0.00  0.00    +0.136 C 
ATOM      9  N   UNL     1       1.617   1.724   5.170  0.00  0.00    -0.076 NA
ATOM     10  N   UNL     1       3.465   1.854   3.786  0.00  0.00    -0.344 N 
ATOM     11  H   UNL     1       3.986   2.357   3.142  0.00  0.00    +0.144 HD
ATOM     12  H   UNL     1       3.754   0.969   4.059  0.00  0.00    +0.144 HD
BRANCH   9  13
ATOM     13  O   UNL     1       0.378   2.232   5.629  0.00  0.00    -0.408 OA
ATOM     14  H   UNL     1      -0.069   1.661   6.268  0.00  0.00    +0.328 HD
ENDBRANCH   9  13
ENDBRANCH   7   8
ENDBRANCH   1   3
BRANCH   1  15
ATOM     15  S   UNL     1       0.775   3.763   0.101  0.00  0.00    +0.059 S 
ATOM     16  O   UNL     1       1.960   4.132  -0.590  0.00  0.00    -0.153 OA
ATOM     17  O   UNL     1      -0.516   4.180  -0.324  0.00  0.00    -0.153 OA
BRANCH  15  19
ATOM     18  C   UNL     1      -0.456   1.334   0.290  0.00  0.00    +0.048 A 
ATOM     19  C   UNL     1       0.746   2.002   0.145  0.00  0.00    +0.108 A 
ATOM     20  C   UNL     1       1.924   1.288   0.034  0.00  0.00    +0.048 A 
ATOM     21  C   UNL     1       1.902  -0.095   0.069  0.00  0.00    +0.044 A 
ATOM     22  C   UNL     1       0.700  -0.763   0.214  0.00  0.00    +0.040 A 
ATOM     23  C   UNL     1      -0.480  -0.049   0.324  0.00  0.00    +0.044 A 
ATOM     24 CL   UNL     1      -1.989  -0.887   0.507  0.00  0.00    -0.083 Cl
ATOM     25 CL   UNL     1       3.382  -0.991  -0.071  0.00  0.00    -0.083 Cl
ENDBRANCH  15  19
ENDBRANCH   1  15
TORSDOF 5
