REMARK  Name = ZINC39685857
REMARK  16 active torsions:
REMARK  status: ('A' for Active; 'I' for Inactive)
REMARK    1  A    between atoms: C_1  and  C_2
REMARK    2  A    between atoms: C_2  and  C_3
REMARK    3  A    between atoms: C_3  and  C_4
REMARK    4  A    between atoms: C_4  and  C_5
REMARK    5  A    between atoms: C_5  and  C_7
REMARK    6  A    between atoms: C_5  and  C_8
REMARK    7  A    between atoms: C_12  and  C_21
REMARK    8  A    between atoms: N_23  and  C_24
REMARK    9  A    between atoms: C_24  and  C_26
REMARK   10  A    between atoms: C_24  and  C_29
REMARK   11  A    between atoms: C_26  and  C_27
REMARK   12  A    between atoms: C_26  and  C_28
REMARK   13  A    between atoms: N_31  and  C_32
REMARK   14  A    between atoms: C_32  and  C_33
REMARK   15  A    between atoms: C_32  and  C_34
REMARK   16  A    between atoms: C_32  and  C_35
REMARK                            x       y       z     vdW  Elec       q    Type
REMARK                         _______ _______ _______ _____ _____    ______ ____
ROOT
ATOM      1  C   UNL     1       2.427  -5.013  -2.177  0.00  0.00    +0.218 C 
ATOM      2  O   UNL     1       2.214  -5.471  -1.075  0.00  0.00    -0.275 OA
ATOM      3  N   UNL     1       3.280  -5.637  -3.013  0.00  0.00    -0.300 N 
ATOM      4  C   UNL     1       3.671  -5.230  -4.383  0.00  0.00    +0.121 C 
ATOM      5  C   UNL     1       5.181  -5.542  -4.468  0.00  0.00    +0.100 C 
ATOM      6  C   UNL     1       5.417  -6.630  -3.408  0.00  0.00    -0.004 C 
ATOM      7  C   UNL     1       4.045  -6.883  -2.767  0.00  0.00    +0.115 C 
ATOM      8  C   UNL     1       6.403  -6.136  -2.353  0.00  0.00    -0.010 C 
ATOM      9  C   UNL     1       6.665  -7.256  -1.342  0.00  0.00    -0.082 C 
ATOM     10  N   UNL     1       7.209  -8.428  -2.037  0.00  0.00    +0.379 N 
ATOM     11  C   UNL     1       6.218  -8.953  -2.985  0.00  0.00    -0.082 C 
ATOM     12  C   UNL     1       5.937  -7.905  -4.065  0.00  0.00    -0.010 C 
ATOM     13  H   UNL     1       8.044  -8.163  -2.538  0.00  0.00    -0.086 HD
ATOM     14  H   UNL     1       7.438  -9.142  -1.362  0.00  0.00    -0.086 HD
ENDROOT
BRANCH   5  15
ATOM     15  C   UNL     1       5.990  -4.311  -4.148  0.00  0.00    +0.219 C 
ATOM     16  O   UNL     1       6.948  -4.020  -4.833  0.00  0.00    -0.275 OA
ATOM     17  N   UNL     1       5.648  -3.533  -3.102  0.00  0.00    -0.303 N 
ATOM     18  H   UNL     1       4.882  -3.766  -2.554  0.00  0.00    +0.149 HD
BRANCH  17  19
ATOM     19  C   UNL     1       6.434  -2.337  -2.791  0.00  0.00    +0.161 C 
BRANCH  19  20
ATOM     20  C   UNL     1       6.283  -2.002  -1.330  0.00  0.00    +0.234 C 
ATOM     21  O   UNL     1       5.359  -2.463  -0.694  0.00  0.00    -0.274 OA
ATOM     22  N   UNL     1       7.175  -1.190  -0.729  0.00  0.00    -0.309 N 
ATOM     23  H   UNL     1       7.875  -0.767  -1.251  0.00  0.00    +0.149 HD
BRANCH  22  24
ATOM     24  C   UNL     1       7.088  -0.945   0.713  0.00  0.00    +0.026 C 
ATOM     25  C   UNL     1       7.229  -2.270   1.465  0.00  0.00    +0.031 C 
ATOM     26  C   UNL     1       8.210   0.005   1.138  0.00  0.00    +0.031 C 
ATOM     27  C   UNL     1       5.733  -0.315   1.042  0.00  0.00    +0.031 C 
ENDBRANCH  22  24
ENDBRANCH  19  20
BRANCH  19  28
ATOM     28  C   UNL     1       5.934  -1.164  -3.638  0.00  0.00    +0.012 C 
ATOM     29  C   UNL     1       6.162  -1.471  -5.119  0.00  0.00    +0.009 C 
ATOM     30  C   UNL     1       4.440  -0.953  -3.384  0.00  0.00    +0.009 C 
ENDBRANCH  19  28
ENDBRANCH  17  19
ENDBRANCH   5  15
BRANCH   1  31
ATOM     31  C   UNL     1       1.739  -3.744  -2.612  0.00  0.00    +0.072 C 
ATOM     32  C   UNL     1       0.897  -4.023  -3.859  0.00  0.00    +0.017 C 
BRANCH  31  33
ATOM     33  C   UNL     1       0.832  -3.244  -1.486  0.00  0.00    +0.012 C 
BRANCH  33  34
ATOM     34  C   UNL     1       0.230  -1.893  -1.878  0.00  0.00    +0.000 C 
BRANCH  34  36
ATOM     35  C   UNL     1      -1.279  -0.042  -1.144  0.00  0.00    +0.004 C 
ATOM     36  C   UNL     1      -0.677  -1.393  -0.752  0.00  0.00    -0.003 C 
ENDBRANCH  34  36
ENDBRANCH  33  34
ENDBRANCH  31  33
ENDBRANCH   1  31
TORSDOF 9
