REMARK  Name = ZINC25445954
REMARK  7 active torsions:
REMARK  status: ('A' for Active; 'I' for Inactive)
REMARK    1  A    between atoms: C_6  and  C_7
REMARK    2  A    between atoms: N_12  and  C_13
REMARK    3  A    between atoms: C_13  and  C_14
REMARK    4  A    between atoms: C_14  and  C_15
REMARK    5  A    between atoms: N_17  and  C_18
REMARK    6  A    between atoms: C_21  and  S_24
REMARK    7  A    between atoms: S_24  and  N_27
REMARK                            x       y       z     vdW  Elec       q    Type
REMARK                         _______ _______ _______ _____ _____    ______ ____
ROOT
ATOM      1  C   UNL     1      -2.048  -2.602   4.480  0.00  0.00    +0.215 C 
ATOM      2  O   UNL     1      -2.582  -1.535   4.701  0.00  0.00    -0.276 OA
ATOM      3  N   UNL     1      -1.954  -3.524   5.458  0.00  0.00    -0.286 N 
ATOM      4  H   UNL     1      -1.588  -4.401   5.265  0.00  0.00    +0.155 HD
ENDROOT
BRANCH   3   5
ATOM      5  C   UNL     1      -2.384  -3.216   6.754  0.00  0.00    +0.033 A 
ATOM      6  C   UNL     1      -1.708  -3.730   7.852  0.00  0.00    +0.025 A 
ATOM      7  C   UNL     1      -2.136  -3.425   9.130  0.00  0.00    +0.030 A 
ATOM      8  C   UNL     1      -3.235  -2.607   9.315  0.00  0.00    +0.105 A 
ATOM      9  C   UNL     1      -3.911  -2.093   8.223  0.00  0.00    +0.030 A 
ATOM     10  C   UNL     1      -3.485  -2.390   6.944  0.00  0.00    +0.025 A 
BRANCH   8  11
ATOM     11  S   UNL     1      -3.777  -2.219  10.946  0.00  0.00    +0.056 S 
ATOM     12  O   UNL     1      -5.153  -1.879  10.847  0.00  0.00    -0.153 OA
ATOM     13  O   UNL     1      -3.309  -3.263  11.789  0.00  0.00    -0.153 OA
BRANCH  11  14
ATOM     14  N   UNL     1      -2.982  -0.843  11.412  0.00  0.00    -0.204 NA
ATOM     15  H   UNL     1      -3.403  -0.226  12.031  0.00  0.00    +0.144 HD
ATOM     16  H   UNL     1      -2.096  -0.653  11.066  0.00  0.00    +0.144 HD
ENDBRANCH  11  14
ENDBRANCH   8  11
ENDBRANCH   3   5
BRANCH   1  17
ATOM     17  C   UNL     1      -1.490  -2.896   3.111  0.00  0.00    +0.077 C 
BRANCH  17  18
ATOM     18  C   UNL     1      -1.726  -1.693   2.195  0.00  0.00    -0.069 C 
BRANCH  18  23
ATOM     19  C   UNL     1      -1.299  -0.779   0.007  0.00  0.00    -0.038 C 
ATOM     20  C   UNL     1      -1.619  -1.325  -1.406  0.00  0.00    -0.013 C 
ATOM     21  C   UNL     1      -2.545  -2.525  -1.077  0.00  0.00    -0.020 C 
ATOM     22  C   UNL     1      -1.947  -3.076   0.235  0.00  0.00    -0.078 C 
ATOM     23  N   UNL     1      -1.182  -1.980   0.861  0.00  0.00    +0.385 N 
ATOM     24  H   UNL     1      -0.212  -2.247   0.941  0.00  0.00    -0.081 HD
BRANCH  19  30
ATOM     25  C   UNL     1      -0.009   1.366   0.002  0.00  0.00    +0.005 A 
ATOM     26  C   UNL     1       1.182   2.067  -0.011  0.00  0.00    +0.038 A 
ATOM     27  C   UNL     1       2.386   1.383  -0.031  0.00  0.00    +0.123 A 
ATOM     28  C   UNL     1       2.395  -0.001  -0.039  0.00  0.00    +0.038 A 
ATOM     29  C   UNL     1       1.203  -0.700  -0.026  0.00  0.00    +0.005 A 
ATOM     30  C   UNL     1       0.001  -0.016  -0.006  0.00  0.00    -0.061 A 
ATOM     31  F   UNL     1       3.551   2.067  -0.044  0.00  0.00    -0.205 F 
ENDBRANCH  19  30
ENDBRANCH  18  23
ENDBRANCH  17  18
ENDBRANCH   1  17
TORSDOF 7
