REMARK  Name = ZINC66088217
REMARK  5 active torsions:
REMARK  status: ('A' for Active; 'I' for Inactive)
REMARK    1  A    between atoms: C_4  and  C_7
REMARK    2  A    between atoms: C_10  and  N_37
REMARK    3  A    between atoms: C_11  and  C_35
REMARK    4  A    between atoms: N_15  and  C_23
REMARK    5  A    between atoms: C_24  and  C_32
REMARK                            x       y       z     vdW  Elec       q    Type
REMARK                         _______ _______ _______ _____ _____    ______ ____
ROOT
ATOM      1  C   UNL     1       3.708  -0.708  -0.028  0.00  0.00    +0.089 C 
ATOM      2  C   UNL     1       3.829  -1.554   1.205  0.00  0.00    +0.027 A 
ATOM      3  C   UNL     1       4.172  -0.966   2.418  0.00  0.00    +0.053 A 
ATOM      4  C   UNL     1       4.276  -1.790   3.557  0.00  0.00    +0.112 A 
ATOM      5  C   UNL     1       4.026  -3.167   3.418  0.00  0.00    +0.138 A 
ATOM      6  N   UNL     1       3.703  -3.675   2.241  0.00  0.00    -0.215 NA
ATOM      7  C   UNL     1       3.601  -2.921   1.151  0.00  0.00    +0.138 A 
ATOM      8  N   UNL     1       3.266  -3.508  -0.064  0.00  0.00    -0.250 N 
ATOM      9  C   UNL     1       3.553  -2.876  -1.244  0.00  0.00    +0.025 C 
ATOM     10  C   UNL     1       3.778  -1.546  -1.279  0.00  0.00    +0.024 C 
ATOM     11  C   UNL     1       4.089  -0.899  -2.487  0.00  0.00    +0.162 C 
ATOM     12  O   UNL     1       4.278   0.302  -2.488  0.00  0.00    -0.292 OA
ATOM     13  C   UNL     1       4.193  -1.661  -3.779  0.00  0.00    +0.080 C 
ATOM     14  C   UNL     1       4.616  -3.102  -3.475  0.00  0.00    +0.014 C 
ATOM     15  C   UNL     1       3.605  -3.706  -2.504  0.00  0.00    +0.052 C 
ATOM     16  N   UNL     1       4.119  -3.996   4.522  0.00  0.00    -0.342 N 
ATOM     17  H   UNL     1       4.427  -3.641   5.371  0.00  0.00    +0.144 HD
ATOM     18  H   UNL     1       3.875  -4.932   4.448  0.00  0.00    +0.144 HD
ENDROOT
BRANCH   8  19
ATOM     19  C   UNL     1       2.638  -4.745  -0.081  0.00  0.00    +0.096 A 
ATOM     20  C   UNL     1       3.223  -5.999  -0.015  0.00  0.00    +0.084 A 
ATOM     21  C   UNL     1       2.338  -7.149  -0.050  0.00  0.00    -0.018 A 
ATOM     22  C   UNL     1       1.027  -6.834  -0.146  0.00  0.00    -0.004 A 
ATOM     23  S   UNL     1       0.992  -5.066  -0.179  0.00  0.00    -0.076 S 
ATOM     24  C   UNL     1      -0.126  -7.788  -0.206  0.00  0.00    +0.043 C 
ATOM     25  C   UNL     1       0.423  -9.188  -0.522  0.00  0.00    +0.005 C 
ATOM     26  C   UNL     1       1.609  -9.475   0.404  0.00  0.00    +0.005 C 
ATOM     27  C   UNL     1       2.800  -8.597   0.013  0.00  0.00    +0.037 C 
BRANCH  20  28
ATOM     28  C   UNL     1       4.643  -6.155   0.085  0.00  0.00    +0.102 C 
ATOM     29  N   UNL     1       5.770  -6.278   0.163  0.00  0.00    -0.191 NA
ENDBRANCH  20  28
ENDBRANCH   8  19
BRANCH   1  33
ATOM     30  C   UNL     1      -0.028   1.362   0.056  0.00  0.00    +0.000 A 
ATOM     31  C   UNL     1       1.157   2.075   0.036  0.00  0.00    +0.000 A 
ATOM     32  C   UNL     1       2.366   1.405   0.009  0.00  0.00    +0.004 A 
ATOM     33  C   UNL     1       2.390   0.023   0.002  0.00  0.00    -0.035 A 
ATOM     34  C   UNL     1       1.206  -0.690   0.023  0.00  0.00    +0.004 A 
ATOM     35  C   UNL     1      -0.003  -0.020   0.049  0.00  0.00    +0.000 A 
ENDBRANCH   1  33
BRANCH   3  36
ATOM     36  N   UNL     1       4.408   0.398   2.505  0.00  0.00    -0.357 N 
ATOM     37  H   UNL     1       4.333   0.954   1.713  0.00  0.00    +0.142 HD
ATOM     38  H   UNL     1       4.646   0.796   3.356  0.00  0.00    +0.142 HD
ENDBRANCH   3  36
BRANCH   4  39
ATOM     39  C   UNL     1       4.628  -1.237   4.829  0.00  0.00    +0.104 C 
ATOM     40  N   UNL     1       4.908  -0.798   5.839  0.00  0.00    -0.191 NA
ENDBRANCH   4  39
TORSDOF 5
