REMARK  Name = ZINC66390690
REMARK  14 active torsions:
REMARK  status: ('A' for Active; 'I' for Inactive)
REMARK    1  A    between atoms: C_1  and  C_2
REMARK    2  A    between atoms: C_2  and  C_4
REMARK    3  A    between atoms: C_2  and  N_18
REMARK    4  A    between atoms: C_7  and  N_11
REMARK    5  A    between atoms: N_14  and  C_17
REMARK    6  A    between atoms: N_18  and  C_19
REMARK    7  A    between atoms: C_19  and  C_21
REMARK    8  A    between atoms: C_19  and  C_24
REMARK    9  A    between atoms: C_21  and  C_22
REMARK   10  A    between atoms: C_21  and  C_23
REMARK   11  A    between atoms: N_26  and  C_27
REMARK   12  A    between atoms: C_27  and  C_28
REMARK   13  A    between atoms: C_27  and  C_29
REMARK   14  A    between atoms: C_27  and  C_30
REMARK                            x       y       z     vdW  Elec       q    Type
REMARK                         _______ _______ _______ _____ _____    ______ ____
ROOT
ATOM      1  C   UNL     1      -0.605   2.150  -0.357  0.00  0.00    +0.029 C 
ATOM      2  C   UNL     1      -0.943   0.682  -0.091  0.00  0.00    +0.082 C 
ENDROOT
BRANCH   2   3
ATOM      3  C   UNL     1      -0.848   0.405   1.387  0.00  0.00    -0.028 A 
ATOM      4  C   UNL     1       0.387   0.197   1.972  0.00  0.00    +0.007 A 
ATOM      5  C   UNL     1       0.478  -0.058   3.327  0.00  0.00    +0.026 A 
ATOM      6  C   UNL     1      -0.672  -0.105   4.103  0.00  0.00    +0.065 A 
ATOM      7  C   UNL     1      -1.914   0.105   3.512  0.00  0.00    +0.145 A 
ATOM      8  C   UNL     1      -1.997   0.365   2.157  0.00  0.00    +0.045 A 
ATOM      9  F   UNL     1      -3.036   0.060   4.263  0.00  0.00    -0.204 F 
BRANCH   6  10
ATOM     10  N   UNL     1      -0.583  -0.363   5.474  0.00  0.00    -0.331 N 
ATOM     11  C   UNL     1      -0.631  -1.741   5.989  0.00  0.00    +0.086 C 
ATOM     12  C   UNL     1       0.555  -1.946   6.938  0.00  0.00    -0.060 C 
ATOM     13  N   UNL     1       0.535  -0.909   7.977  0.00  0.00    +0.380 N 
ATOM     14  C   UNL     1       0.739   0.412   7.370  0.00  0.00    -0.060 C 
ATOM     15  C   UNL     1      -0.432   0.734   6.442  0.00  0.00    +0.086 C 
ATOM     16  C   UNL     1       1.606  -1.170   8.948  0.00  0.00    -0.096 C 
ATOM     17  H   UNL     1      -0.356  -0.926   8.450  0.00  0.00    -0.082 HD
ENDBRANCH   6  10
ENDBRANCH   2   3
BRANCH   2  18
ATOM     18  N   UNL     1       0.005  -0.177  -0.812  0.00  0.00    -0.299 NA
ATOM     19  H   UNL     1       0.932   0.220  -0.803  0.00  0.00    +0.123 HD
BRANCH  18  20
ATOM     20  C   UNL     1      -0.449  -0.425  -2.187  0.00  0.00    +0.143 C 
BRANCH  20  21
ATOM     21  C   UNL     1      -1.383  -1.607  -2.202  0.00  0.00    +0.231 C 
ATOM     22  O   UNL     1      -1.378  -2.397  -1.282  0.00  0.00    -0.274 OA
ATOM     23  N   UNL     1      -2.226  -1.787  -3.239  0.00  0.00    -0.309 N 
ATOM     24  H   UNL     1      -2.180  -1.198  -4.008  0.00  0.00    +0.149 HD
BRANCH  23  25
ATOM     25  C   UNL     1      -3.210  -2.871  -3.203  0.00  0.00    +0.026 C 
ATOM     26  C   UNL     1      -4.138  -2.678  -2.002  0.00  0.00    +0.031 C 
ATOM     27  C   UNL     1      -4.034  -2.854  -4.492  0.00  0.00    +0.031 C 
ATOM     28  C   UNL     1      -2.487  -4.213  -3.078  0.00  0.00    +0.031 C 
ENDBRANCH  23  25
ENDBRANCH  20  21
BRANCH  20  29
ATOM     29  C   UNL     1       0.760  -0.719  -3.078  0.00  0.00    +0.009 C 
ATOM     30  C   UNL     1       1.652   0.522  -3.152  0.00  0.00    +0.009 C 
ATOM     31  C   UNL     1       1.556  -1.885  -2.490  0.00  0.00    +0.009 C 
ENDBRANCH  20  29
ENDBRANCH  18  20
ENDBRANCH   2  18
TORSDOF 7
