REMARK  Name = ZINC08923397
REMARK  8 active torsions:
REMARK  status: ('A' for Active; 'I' for Inactive)
REMARK    1  A    between atoms: C_1  and  C_2
REMARK    2  A    between atoms: C_2  and  C_3
REMARK    3  A    between atoms: C_2  and  N_54
REMARK    4  A    between atoms: C_11  and  O_30
REMARK    5  A    between atoms: C_13  and  C_16
REMARK    6  A    between atoms: C_19  and  O_22
REMARK    7  A    between atoms: O_22  and  C_23
REMARK    8  A    between atoms: C_23  and  C_25
REMARK                            x       y       z     vdW  Elec       q    Type
REMARK                         _______ _______ _______ _____ _____    ______ ____
ROOT
ATOM      1  C   UNL     1      -2.754   7.114   0.256  0.00  0.00    -0.073 C 
ATOM      2  C   UNL     1      -2.655   5.694   0.818  0.00  0.00    +0.018 C 
ATOM      3  C   UNL     1      -2.170   4.773  -0.296  0.00  0.00    -0.027 A 
ATOM      4  C   UNL     1      -2.252   5.173  -1.587  0.00  0.00    -0.021 A 
ATOM      5  S   UNL     1      -1.591   3.823  -2.525  0.00  0.00    -0.080 S 
ATOM      6  C   UNL     1      -1.225   2.758  -1.236  0.00  0.00    +0.080 A 
ATOM      7  C   UNL     1      -1.605   3.455  -0.081  0.00  0.00    +0.067 A 
ATOM      8  C   UNL     1      -1.403   2.769   1.222  0.00  0.00    +0.220 C 
ATOM      9  N   UNL     1      -0.702   1.670   1.229  0.00  0.00    -0.223 NA
ATOM     10  C   UNL     1      -0.021   1.112   0.067  0.00  0.00    +0.224 C 
ATOM     11  N   UNL     1      -0.691   1.494  -1.190  0.00  0.00    -0.313 N 
ATOM     12  C   UNL     1      -2.791   6.478  -2.082  0.00  0.00    -0.035 C 
ATOM     13  H   UNL     1      -0.751   0.886  -1.943  0.00  0.00    +0.149 HD
ATOM     14  N   UNL     1      -3.566   7.097  -0.979  0.00  0.00    +0.384 N 
ATOM     15  H   UNL     1      -4.414   6.543  -0.813  0.00  0.00    -0.081 HD
ENDROOT
BRANCH  10  16
ATOM     16  C   UNL     1       1.399   1.616   0.040  0.00  0.00    -0.005 A 
ATOM     17  C   UNL     1       2.061   1.751  -1.166  0.00  0.00    +0.011 A 
ATOM     18  C   UNL     1       3.361   2.218  -1.194  0.00  0.00    +0.047 A 
ATOM     19  C   UNL     1       4.006   2.540  -0.008  0.00  0.00    +0.132 A 
ATOM     20  C   UNL     1       3.341   2.398   1.201  0.00  0.00    +0.047 A 
ATOM     21  C   UNL     1       2.040   1.936   1.223  0.00  0.00    +0.011 A 
BRANCH  19  22
ATOM     22  O   UNL     1       5.287   2.994  -0.032  0.00  0.00    -0.422 OA
BRANCH  22  23
ATOM     23  C   UNL     1       6.253   2.189   0.458  0.00  0.00    +0.351 C 
ATOM     24  O   UNL     1       5.982   1.056   0.806  0.00  0.00    -0.244 OA
BRANCH  23  25
ATOM     25  C   UNL     1       7.627   2.681   0.570  0.00  0.00    +0.097 A 
ATOM     26  C   UNL     1       8.754   2.026   1.046  0.00  0.00    +0.022 A 
ATOM     27  C   UNL     1       9.934   2.726   1.036  0.00  0.00    +0.008 A 
ATOM     28  C   UNL     1       9.942   4.007   0.581  0.00  0.00    +0.046 A 
ATOM     29  S   UNL     1       8.288   4.280   0.137  0.00  0.00    -0.090 S 
ENDBRANCH  23  25
ENDBRANCH  22  23
ENDBRANCH  19  22
ENDBRANCH  10  16
BRANCH  14  31
ATOM     30  C   UNL     1      -2.716   9.328  -1.618  0.00  0.00    -0.014 C 
ATOM     31  C   UNL     1      -3.957   8.475  -1.346  0.00  0.00    -0.074 C 
ATOM     32  C   UNL     1      -4.828   8.427  -2.603  0.00  0.00    -0.014 C 
ENDBRANCH  14  31
BRANCH   8  33
ATOM     33  O   UNL     1      -1.930   3.270   2.363  0.00  0.00    -0.492 OA
ATOM     34  H   UNL     1      -1.736   2.742   3.150  0.00  0.00    +0.294 HD
ENDBRANCH   8  33
TORSDOF 6
