REMARK  Name = ZINC09135803
REMARK  9 active torsions:
REMARK  status: ('A' for Active; 'I' for Inactive)
REMARK    1  A    between atoms: C_1  and  C_2
REMARK    2  A    between atoms: N_4  and  C_5
REMARK    3  A    between atoms: C_8  and  N_11
REMARK    4  A    between atoms: C_12  and  C_14
REMARK    5  A    between atoms: N_16  and  C_17
REMARK    6  A    between atoms: C_17  and  C_18
REMARK    7  A    between atoms: C_18  and  C_20
REMARK    8  A    between atoms: C_18  and  N_67
REMARK    9  A    between atoms: N_29  and  C_30
REMARK                            x       y       z     vdW  Elec       q    Type
REMARK                         _______ _______ _______ _____ _____    ______ ____
ROOT
ATOM      1  C   UNL     1       2.860  10.266  -1.306  0.00  0.00    +0.299 C 
ATOM      2  O   UNL     1       1.725  10.068  -0.925  0.00  0.00    -0.265 OA
ATOM      3  N   UNL     1       3.481  11.422  -1.002  0.00  0.00    -0.309 N 
ATOM      4  H   UNL     1       4.389  11.580  -1.306  0.00  0.00    +0.149 HD
ENDROOT
BRANCH   1   6
ATOM      5  N   UNL     1       2.947   8.070  -2.416  0.00  0.00    -0.278 N 
ATOM      6  C   UNL     1       3.568   9.227  -2.111  0.00  0.00    +0.303 C 
ATOM      7  O   UNL     1       4.704   9.424  -2.493  0.00  0.00    -0.265 OA
ATOM      8  H   UNL     1       2.072   7.877  -2.043  0.00  0.00    +0.155 HD
BRANCH   5  12
ATOM      9  C   UNL     1       4.780   5.324  -4.959  0.00  0.00    +0.033 A 
ATOM     10  C   UNL     1       4.948   6.687  -5.171  0.00  0.00    +0.025 A 
ATOM     11  C   UNL     1       4.337   7.596  -4.332  0.00  0.00    +0.025 A 
ATOM     12  C   UNL     1       3.562   7.149  -3.269  0.00  0.00    +0.034 A 
ATOM     13  C   UNL     1       3.399   5.786  -3.053  0.00  0.00    +0.025 A 
ATOM     14  C   UNL     1       4.007   4.877  -3.896  0.00  0.00    +0.025 A 
BRANCH   9  18
ATOM     15  C   UNL     1       6.293   3.746  -8.024  0.00  0.00    +0.109 C 
ATOM     16  C   UNL     1       5.521   4.679  -7.127  0.00  0.00    +0.214 C 
ATOM     17  O   UNL     1       5.009   5.678  -7.587  0.00  0.00    -0.276 OA
ATOM     18  N   UNL     1       5.396   4.402  -5.814  0.00  0.00    -0.286 N 
ATOM     19  H   UNL     1       5.732   3.563  -5.461  0.00  0.00    +0.155 HD
ENDBRANCH   9  18
ENDBRANCH   5  12
ENDBRANCH   1   6
BRANCH   3  20
ATOM     20  C   UNL     1       2.787  12.441  -0.211  0.00  0.00    +0.094 C 
BRANCH  20  21
ATOM     21  C   UNL     1       3.752  13.585   0.108  0.00  0.00    -0.020 C 
BRANCH  21  22
ATOM     22  C   UNL     1       2.997  14.710   0.768  0.00  0.00    -0.059 A 
ATOM     23  C   UNL     1       2.569  14.582   2.077  0.00  0.00    +0.004 A 
ATOM     24  C   UNL     1       1.881  15.614   2.680  0.00  0.00    +0.023 A 
ATOM     25  C   UNL     1       1.602  16.785   1.973  0.00  0.00    +0.033 A 
ATOM     26  C   UNL     1       2.031  16.906   0.663  0.00  0.00    -0.026 A 
ATOM     27  C   UNL     1       2.727  15.867   0.066  0.00  0.00    +0.007 A 
ATOM     28  C   UNL     1       1.771  18.149  -0.151  0.00  0.00    +0.038 C 
ATOM     29  C   UNL     1       0.691  18.993   0.528  0.00  0.00    +0.024 C 
ATOM     30  C   UNL     1       1.044  19.104   2.017  0.00  0.00    +0.105 C 
ATOM     31  N   UNL     1       0.890  17.785   2.634  0.00  0.00    -0.333 N 
ATOM     32  C   UNL     1       1.242  17.827   4.060  0.00  0.00    +0.129 C 
ENDBRANCH  21  22
BRANCH  21  37
ATOM     33  C   UNL     1       5.627  12.052   0.363  0.00  0.00    -0.078 C 
ATOM     34  C   UNL     1       6.929  12.054   1.201  0.00  0.00    -0.020 C 
ATOM     35  C   UNL     1       7.132  13.553   1.522  0.00  0.00    -0.020 C 
ATOM     36  C   UNL     1       5.738  14.189   1.370  0.00  0.00    -0.078 C 
ATOM     37  N   UNL     1       4.827  13.097   1.023  0.00  0.00    +0.385 N 
ATOM     38  H   UNL     1       4.399  12.718   1.875  0.00  0.00    -0.081 HD
ENDBRANCH  21  37
ENDBRANCH  20  21
ENDBRANCH   3  20
TORSDOF 7
