REMARK  Name = ZINC43028032
REMARK  10 active torsions:
REMARK  status: ('A' for Active; 'I' for Inactive)
REMARK    1  A    between atoms: C_1  and  C_2
REMARK    2  A    between atoms: C_2  and  C_4
REMARK    3  A    between atoms: C_2  and  N_23
REMARK    4  A    between atoms: C_4  and  C_6
REMARK    5  A    between atoms: C_4  and  N_14
REMARK    6  A    between atoms: C_10  and  O_12
REMARK    7  A    between atoms: O_12  and  C_13
REMARK    8  A    between atoms: N_14  and  C_15
REMARK    9  A    between atoms: N_14  and  C_16
REMARK   10  A    between atoms: C_16  and  C_17
REMARK                            x       y       z     vdW  Elec       q    Type
REMARK                         _______ _______ _______ _____ _____    ______ ____
ROOT
ATOM      1  C   UNL     1       0.870  -0.519   1.183  0.00  0.00    +0.072 C 
ENDROOT
BRANCH   1   2
ATOM      2  C   UNL     1       0.905  -2.024   1.110  0.00  0.00    -0.028 A 
ATOM      3  C   UNL     1      -0.226  -2.757   1.419  0.00  0.00    +0.005 A 
ATOM      4  C   UNL     1      -0.197  -4.138   1.354  0.00  0.00    +0.004 A 
ATOM      5  C   UNL     1       0.963  -4.789   0.979  0.00  0.00    +0.045 A 
ATOM      6  C   UNL     1       2.099  -4.056   0.668  0.00  0.00    +0.120 A 
ATOM      7  C   UNL     1       2.065  -2.670   0.729  0.00  0.00    +0.050 A 
BRANCH   6   8
ATOM      8  O   UNL     1       3.241  -4.694   0.300  0.00  0.00    -0.495 OA
ATOM      9  C   UNL     1       3.200  -6.121   0.253  0.00  0.00    +0.277 C 
ENDBRANCH   6   8
ENDBRANCH   1   2
BRANCH   1  11
ATOM     10  C   UNL     1       0.182   1.558  -0.022  0.00  0.00    -0.012 C 
ATOM     11  C   UNL     1       0.091   0.031  -0.013  0.00  0.00    -0.056 C 
BRANCH  11  12
ATOM     12  N   UNL     1       0.663  -0.501  -1.258  0.00  0.00    +0.381 N 
ATOM     13  H   UNL     1       1.630  -0.222  -1.329  0.00  0.00    -0.090 HD
ATOM     14  H   UNL     1       0.603  -1.508  -1.252  0.00  0.00    -0.090 HD
ATOM     15  H   UNL     1       0.149  -0.138  -2.046  0.00  0.00    -0.090 HD
ENDBRANCH  11  12
ENDBRANCH   1  11
BRANCH   1  16
ATOM     16  N   UNL     1       0.212  -0.105   2.429  0.00  0.00    -0.296 NA
ATOM     17  C   UNL     1      -1.234   0.061   2.230  0.00  0.00    +0.105 C 
BRANCH  16  18
ATOM     18  C   UNL     1       0.815   1.126   2.958  0.00  0.00    +0.120 C 
BRANCH  18  19
ATOM     19  C   UNL     1       0.395   1.314   4.393  0.00  0.00    -0.025 A 
ATOM     20  C   UNL     1      -0.754   2.018   4.702  0.00  0.00    +0.028 A 
ATOM     21  C   UNL     1      -1.103   2.168   6.003  0.00  0.00    +0.055 A 
ATOM     22  S   UNL     1       0.213   1.300   6.841  0.00  0.00    -0.090 S 
ATOM     23  C   UNL     1       1.136   0.791   5.400  0.00  0.00    +0.051 A 
ATOM     24 BR   UNL     1      -2.595   3.066   6.740  0.00  0.00    -0.043 Br
ENDBRANCH  18  19
ENDBRANCH  16  18
ENDBRANCH   1  16
TORSDOF 7
