REMARK  Name = ZINC30499534
REMARK  13 active torsions:
REMARK  status: ('A' for Active; 'I' for Inactive)
REMARK    1  A    between atoms: C_1  and  C_2
REMARK    2  A    between atoms: C_2  and  C_3
REMARK    3  A    between atoms: N_5  and  C_6
REMARK    4  A    between atoms: C_9  and  C_12
REMARK    5  A    between atoms: C_12  and  C_14
REMARK    6  A    between atoms: C_12  and  N_15
REMARK    7  A    between atoms: N_15  and  C_16
REMARK    8  A    between atoms: C_16  and  C_18
REMARK    9  A    between atoms: C_16  and  C_19
REMARK   10  A    between atoms: N_21  and  C_22
REMARK   11  A    between atoms: C_25  and  O_28
REMARK   12  A    between atoms: O_28  and  C_29
REMARK   13  A    between atoms: C_29  and  C_30
REMARK                            x       y       z     vdW  Elec       q    Type
REMARK                         _______ _______ _______ _____ _____    ______ ____
ROOT
ATOM      1  N   UNL     1      -2.343   5.554   0.354  0.00  0.00    +0.391 N 
ATOM      2  H   UNL     1      -1.524   5.822  -0.329  0.00  0.00    -0.084 HD
ATOM      3  H   UNL     1      -2.048   5.784   1.389  0.00  0.00    -0.084 HD
ENDROOT
BRANCH   1   4
ATOM      4  C   UNL     1      -3.544   6.325   0.005  0.00  0.00    -0.043 C 
ATOM      5  C   UNL     1      -3.433   7.735   0.589  0.00  0.00    -0.009 C 
BRANCH   4   9
ATOM      6  C   UNL     1      -3.896   6.567  -4.247  0.00  0.00    +0.033 A 
ATOM      7  C   UNL     1      -5.027   6.371  -3.466  0.00  0.00    +0.023 A 
ATOM      8  C   UNL     1      -4.910   6.293  -2.092  0.00  0.00    +0.004 A 
ATOM      9  C   UNL     1      -3.668   6.410  -1.494  0.00  0.00    -0.062 A 
ATOM     10  C   UNL     1      -2.541   6.611  -2.269  0.00  0.00    +0.004 A 
ATOM     11  C   UNL     1      -2.651   6.684  -3.644  0.00  0.00    +0.023 A 
BRANCH   6  14
ATOM     12  C   UNL     1      -5.098   7.220  -6.194  0.00  0.00    +0.217 C 
ATOM     13  O   UNL     1      -5.929   7.752  -5.489  0.00  0.00    -0.275 OA
ATOM     14  N   UNL     1      -4.011   6.647  -5.639  0.00  0.00    -0.286 N 
ATOM     15  H   UNL     1      -3.215   6.243  -6.281  0.00  0.00    +0.155 HD
BRANCH  12  17
ATOM     16  C   UNL     1      -6.585   7.911  -8.054  0.00  0.00    +0.013 C 
ATOM     17  C   UNL     1      -5.280   7.199  -7.690  0.00  0.00    +0.093 C 
ENDBRANCH  12  17
ENDBRANCH   6  14
ENDBRANCH   4   9
ENDBRANCH   1   4
BRANCH   1  18
ATOM     18  C   UNL     1      -2.594   4.111   0.246  0.00  0.00    +0.014 C 
ATOM     19  C   UNL     1      -3.328   3.625   1.498  0.00  0.00    -0.004 C 
BRANCH  18  20
ATOM     20  C   UNL     1      -1.282   3.381   0.118  0.00  0.00    +0.203 C 
ATOM     21  O   UNL     1      -0.240   4.002   0.117  0.00  0.00    -0.277 OA
ATOM     22  N   UNL     1      -1.266   2.038   0.005  0.00  0.00    -0.287 N 
ATOM     23  H   UNL     1      -2.211   1.483  -0.091  0.00  0.00    +0.155 HD
BRANCH  22  24
ATOM     24  C   UNL     1      -0.046   1.349   0.009  0.00  0.00    +0.034 A 
ATOM     25  C   UNL     1       0.056   0.113  -0.616  0.00  0.00    +0.027 A 
ATOM     26  C   UNL     1       1.257  -0.568  -0.607  0.00  0.00    +0.047 A 
ATOM     27  C   UNL     1       2.362  -0.017   0.026  0.00  0.00    +0.121 A 
ATOM     28  C   UNL     1       2.261   1.218   0.650  0.00  0.00    +0.047 A 
ATOM     29  C   UNL     1       1.061   1.900   0.641  0.00  0.00    +0.027 A 
BRANCH  27  30
ATOM     30  O   UNL     1       3.545  -0.688   0.034  0.00  0.00    -0.492 OA
BRANCH  30  31
ATOM     31  C   UNL     1       3.577  -1.954  -0.627  0.00  0.00    +0.225 C 
ATOM     32  C   UNL     1       4.980  -2.554  -0.514  0.00  0.00    +0.048 C 
ENDBRANCH  30  31
ENDBRANCH  27  30
ENDBRANCH  22  24
ENDBRANCH  18  20
ENDBRANCH   1  18
TORSDOF 9
