REMARK  Name = ZINC36543943
REMARK  16 active torsions:
REMARK  status: ('A' for Active; 'I' for Inactive)
REMARK    1  A    between atoms: C_1  and  C_2
REMARK    2  A    between atoms: C_2  and  C_3
REMARK    3  A    between atoms: C_2  and  C_4
REMARK    4  A    between atoms: C_2  and  C_5
REMARK    5  A    between atoms: C_5  and  C_6
REMARK    6  A    between atoms: C_6  and  C_7
REMARK    7  A    between atoms: C_6  and  C_8
REMARK    8  A    between atoms: C_6  and  N_9
REMARK    9  A    between atoms: C_10  and  C_12
REMARK   10  A    between atoms: C_12  and  C_14
REMARK   11  A    between atoms: C_12  and  N_23
REMARK   12  A    between atoms: C_15  and  O_22
REMARK   13  A    between atoms: C_17  and  O_21
REMARK   14  A    between atoms: C_19  and  O_20
REMARK   15  A    between atoms: N_23  and  C_24
REMARK   16  A    between atoms: C_31  and  C_33
REMARK                            x       y       z     vdW  Elec       q    Type
REMARK                         _______ _______ _______ _____ _____    ______ ____
ROOT
ATOM      1  C   UNL     1       5.974   0.359  -4.530  0.00  0.00    +0.205 C 
ENDROOT
BRANCH   1   2
ATOM      2  C   UNL     1       6.289  -1.056  -4.943  0.00  0.00    +0.065 A 
ATOM      3  C   UNL     1       7.263  -1.775  -4.267  0.00  0.00    +0.129 A 
ATOM      4  C   UNL     1       7.553  -3.077  -4.647  0.00  0.00    +0.091 A 
ATOM      5  C   UNL     1       6.868  -3.660  -5.703  0.00  0.00    +0.124 A 
ATOM      6  C   UNL     1       5.893  -2.941  -6.378  0.00  0.00    +0.091 A 
ATOM      7  C   UNL     1       5.600  -1.640  -5.995  0.00  0.00    +0.129 A 
BRANCH   7   8
ATOM      8  O   UNL     1       4.642  -0.938  -6.654  0.00  0.00    -0.506 OA
ATOM      9  H   UNL     1       4.956  -0.505  -7.460  0.00  0.00    +0.292 HD
ENDBRANCH   7   8
BRANCH   5  10
ATOM     10  O   UNL     1       7.153  -4.935  -6.076  0.00  0.00    -0.507 OA
ATOM     11  H   UNL     1       6.624  -5.605  -5.622  0.00  0.00    +0.292 HD
ENDBRANCH   5  10
BRANCH   3  12
ATOM     12  O   UNL     1       7.934  -1.204  -3.232  0.00  0.00    -0.506 OA
ATOM     13  H   UNL     1       7.561  -1.406  -2.363  0.00  0.00    +0.292 HD
ENDBRANCH   3  12
ENDBRANCH   1   2
BRANCH   1  15
ATOM     14  N   UNL     1       3.760   0.122  -3.452  0.00  0.00    -0.308 N 
ATOM     15  C   UNL     1       5.083   0.341  -3.315  0.00  0.00    +0.239 C 
ATOM     16  O   UNL     1       5.556   0.523  -2.213  0.00  0.00    -0.273 OA
ATOM     17  H   UNL     1       3.381  -0.024  -4.333  0.00  0.00    +0.149 HD
BRANCH  14  18
ATOM     18  C   UNL     1       2.894   0.104  -2.271  0.00  0.00    +0.030 C 
ATOM     19  C   UNL     1       3.158   1.353  -1.426  0.00  0.00    +0.031 C 
ATOM     20  C   UNL     1       3.190  -1.146  -1.440  0.00  0.00    +0.031 C 
BRANCH  18  21
ATOM     21  C   UNL     1       1.429   0.088  -2.712  0.00  0.00    +0.031 C 
BRANCH  21  23
ATOM     22  C   UNL     1       1.556   0.388  -5.190  0.00  0.00    +0.010 C 
ATOM     23  C   UNL     1       1.232   1.077  -3.863  0.00  0.00    -0.036 C 
ATOM     24  C   UNL     1       2.164   2.276  -3.670  0.00  0.00    +0.010 C 
ATOM     25  C   UNL     1      -0.220   1.559  -3.879  0.00  0.00    +0.010 C 
ENDBRANCH  21  23
ENDBRANCH  18  21
ENDBRANCH  14  18
ENDBRANCH   1  15
BRANCH   1  26
ATOM     26  N   UNL     1       7.218   1.063  -4.213  0.00  0.00    -0.247 N 
ATOM     27  C   UNL     1       8.242   1.051  -5.089  0.00  0.00    +0.287 C 
ATOM     28  O   UNL     1       9.323   1.508  -4.768  0.00  0.00    -0.266 OA
BRANCH  26  29
ATOM     29  C   UNL     1       7.344   1.749  -3.000  0.00  0.00    +0.056 A 
ATOM     30  C   UNL     1       8.099   1.205  -1.968  0.00  0.00    +0.025 A 
ATOM     31  C   UNL     1       8.221   1.884  -0.772  0.00  0.00    +0.002 A 
ATOM     32  C   UNL     1       7.593   3.104  -0.600  0.00  0.00    +0.002 A 
ATOM     33  C   UNL     1       6.841   3.649  -1.624  0.00  0.00    +0.022 A 
ATOM     34  C   UNL     1       6.719   2.978  -2.826  0.00  0.00    +0.062 A 
ATOM     35 CL   UNL     1       5.781   3.666  -4.114  0.00  0.00    -0.082 Cl
ENDBRANCH  26  29
BRANCH  27  36
ATOM     36  C   UNL     1       8.053   0.488  -6.430  0.00  0.00    +0.190 A 
ATOM     37  C   UNL     1       8.988   0.451  -7.424  0.00  0.00    +0.054 A 
ATOM     38  C   UNL     1       8.381  -0.172  -8.526  0.00  0.00    +0.042 A 
ATOM     39  C   UNL     1       7.118  -0.484  -8.161  0.00  0.00    +0.196 A 
ATOM     40  O   UNL     1       6.926  -0.090  -6.895  0.00  0.00    -0.458 OA
ENDBRANCH  27  36
ENDBRANCH   1  26
TORSDOF 11
