REMARK  Name = ZINC10751135
REMARK  6 active torsions:
REMARK  status: ('A' for Active; 'I' for Inactive)
REMARK    1  A    between atoms: C_1  and  N_54
REMARK    2  A    between atoms: C_7  and  N_12
REMARK    3  A    between atoms: C_8  and  C_9
REMARK    4  A    between atoms: C_13  and  C_15
REMARK    5  A    between atoms: N_20  and  S_22
REMARK    6  A    between atoms: S_22  and  C_25
REMARK                            x       y       z     vdW  Elec       q    Type
REMARK                         _______ _______ _______ _____ _____    ______ ____
ROOT
ATOM      1  N   UNL     1      -3.479   8.513   4.459  0.00  0.00    -0.279 N 
ATOM      2  C   UNL     1      -2.712   7.612   3.814  0.00  0.00    +0.222 C 
ATOM      3  O   UNL     1      -1.505   7.660   3.916  0.00  0.00    -0.275 OA
ATOM      4  H   UNL     1      -4.445   8.475   4.377  0.00  0.00    +0.155 HD
ENDROOT
BRANCH   1  11
ATOM      5  C   UNL     1       0.203  13.966   8.534  0.00  0.00    -0.096 C 
ATOM      6  C   UNL     1      -2.013  12.991   8.505  0.00  0.00    -0.074 C 
ATOM      7  C   UNL     1      -3.147  12.566   7.568  0.00  0.00    +0.018 C 
ATOM      8  C   UNL     1      -2.647  11.410   6.710  0.00  0.00    -0.027 A 
ATOM      9  C   UNL     1      -1.320  11.172   6.600  0.00  0.00    -0.021 A 
ATOM     10  S   UNL     1      -1.202   9.760   5.541  0.00  0.00    -0.079 S 
ATOM     11  C   UNL     1      -2.888   9.496   5.239  0.00  0.00    +0.084 A 
ATOM     12  C   UNL     1      -3.503  10.502   5.971  0.00  0.00    +0.068 A 
ATOM     13  C   UNL     1      -0.220  11.951   7.251  0.00  0.00    -0.036 C 
ATOM     14  N   UNL     1      -0.790  13.239   7.715  0.00  0.00    +0.381 N 
ATOM     15  H   UNL     1      -1.032  13.812   6.897  0.00  0.00    -0.082 HD
BRANCH  12  16
ATOM     16  C   UNL     1      -4.963  10.642   5.997  0.00  0.00    +0.244 C 
ATOM     17  O   UNL     1      -5.615  10.062   6.845  0.00  0.00    -0.270 OA
ATOM     18  N   UNL     1      -5.582  11.412   5.081  0.00  0.00    -0.325 N 
ATOM     19  H   UNL     1      -5.062  11.874   4.404  0.00  0.00    +0.145 HD
ATOM     20  H   UNL     1      -6.548  11.504   5.098  0.00  0.00    +0.145 HD
ENDBRANCH  12  16
ENDBRANCH   1  11
BRANCH   2  21
ATOM     21  C   UNL     1      -3.355   6.545   2.966  0.00  0.00    +0.091 C 
ATOM     22  C   UNL     1      -4.275   5.686   3.837  0.00  0.00    +0.015 C 
ATOM     23  C   UNL     1      -4.954   4.622   2.971  0.00  0.00    +0.018 C 
ATOM     24  C   UNL     1      -3.889   3.717   2.353  0.00  0.00    +0.109 C 
ATOM     25  N   UNL     1      -2.913   4.548   1.635  0.00  0.00    -0.175 NA
ATOM     26  C   UNL     1      -2.268   5.658   2.350  0.00  0.00    +0.122 C 
BRANCH  25  27
ATOM     27  S   UNL     1      -2.551   4.243   0.049  0.00  0.00    +0.067 S 
ATOM     28  O   UNL     1      -2.072   5.463  -0.500  0.00  0.00    -0.152 OA
ATOM     29  O   UNL     1      -3.664   3.547  -0.496  0.00  0.00    -0.152 OA
BRANCH  27  30
ATOM     30  C   UNL     1      -1.196   3.116   0.030  0.00  0.00    +0.143 A 
ATOM     31  C   UNL     1      -1.213   1.761   0.017  0.00  0.00    +0.036 A 
ATOM     32  C   UNL     1      -0.013   1.076   0.008  0.00  0.00    +0.010 A 
ATOM     33  C   UNL     1       1.146   1.780   0.001  0.00  0.00    +0.047 A 
ATOM     34  S   UNL     1       0.555   3.464   0.015  0.00  0.00    -0.077 S 
ENDBRANCH  27  30
ENDBRANCH  25  27
ENDBRANCH   2  21
TORSDOF 5
