REMARK  Name = ZINC47970024
REMARK  15 active torsions:
REMARK  status: ('A' for Active; 'I' for Inactive)
REMARK    1  A    between atoms: C_1  and  C_2
REMARK    2  A    between atoms: C_2  and  C_3
REMARK    3  A    between atoms: N_5  and  C_6
REMARK    4  A    between atoms: C_9  and  N_13
REMARK    5  A    between atoms: C_11  and  C_12
REMARK    6  A    between atoms: N_16  and  C_17
REMARK    7  A    between atoms: C_17  and  C_18
REMARK    8  A    between atoms: C_18  and  C_19
REMARK    9  A    between atoms: C_18  and  N_22
REMARK   10  A    between atoms: C_19  and  C_20
REMARK   11  A    between atoms: C_19  and  C_21
REMARK   12  A    between atoms: N_22  and  C_23
REMARK   13  A    between atoms: N_22  and  C_26
REMARK   14  A    between atoms: C_23  and  C_24
REMARK   15  A    between atoms: C_26  and  C_27
REMARK                            x       y       z     vdW  Elec       q    Type
REMARK                         _______ _______ _______ _____ _____    ______ ____
ROOT
ATOM      1  N   UNL     1      -7.486  -3.911   1.225  0.00  0.00    -0.269 N 
ATOM      2  C   UNL     1      -8.278  -3.068   0.533  0.00  0.00    +0.304 C 
ATOM      3  O   UNL     1      -7.872  -1.964   0.228  0.00  0.00    -0.253 OA
ATOM      4  N   UNL     1      -9.522  -3.449   0.181  0.00  0.00    -0.301 N 
ATOM      5  H   UNL     1      -7.833  -4.764   1.528  0.00  0.00    +0.156 HD
ATOM      6  H   UNL     1      -9.846  -4.330   0.424  0.00  0.00    +0.150 HD
ENDROOT
BRANCH   1  10
ATOM      7  C   UNL     1      -3.540  -2.848   2.061  0.00  0.00    +0.036 A 
ATOM      8  C   UNL     1      -3.861  -4.173   1.793  0.00  0.00    +0.025 A 
ATOM      9  C   UNL     1      -5.167  -4.524   1.516  0.00  0.00    +0.025 A 
ATOM     10  C   UNL     1      -6.160  -3.554   1.506  0.00  0.00    +0.035 A 
ATOM     11  C   UNL     1      -5.840  -2.229   1.773  0.00  0.00    +0.028 A 
ATOM     12  C   UNL     1      -4.534  -1.879   2.056  0.00  0.00    -0.027 A 
ATOM     13  C   UNL     1      -4.188  -0.443   2.353  0.00  0.00    +0.046 C 
BRANCH   7  16
ATOM     14  C   UNL     1      -1.355  -3.413   2.817  0.00  0.00    +0.217 C 
ATOM     15  O   UNL     1      -1.754  -4.521   3.109  0.00  0.00    -0.275 OA
ATOM     16  N   UNL     1      -2.215  -2.491   2.341  0.00  0.00    -0.285 N 
ATOM     17  H   UNL     1      -1.916  -1.581   2.192  0.00  0.00    +0.155 HD
BRANCH  14  19
ATOM     18  C   UNL     1       0.852  -4.282   3.540  0.00  0.00    +0.013 C 
ATOM     19  C   UNL     1       0.102  -3.068   2.988  0.00  0.00    +0.093 C 
ENDBRANCH  14  19
ENDBRANCH   7  16
ENDBRANCH   1  10
BRANCH   4  20
ATOM     20  C   UNL     1     -10.383  -2.533  -0.571  0.00  0.00    +0.091 C 
BRANCH  20  21
ATOM     21  C   UNL     1     -11.660  -3.264  -0.992  0.00  0.00    -0.048 C 
BRANCH  21  22
ATOM     22  C   UNL     1     -12.643  -2.263  -1.602  0.00  0.00    -0.029 C 
ATOM     23  C   UNL     1     -13.957  -2.974  -1.932  0.00  0.00    +0.005 C 
ATOM     24  C   UNL     1     -12.910  -1.136  -0.602  0.00  0.00    +0.005 C 
ENDBRANCH  21  22
BRANCH  21  25
ATOM     25  N   UNL     1     -11.329  -4.294  -1.986  0.00  0.00    +0.387 N 
ATOM     26  H   UNL     1     -12.180  -4.712  -2.333  0.00  0.00    -0.080 HD
BRANCH  25  27
ATOM     27  C   UNL     1     -10.596  -3.680  -3.101  0.00  0.00    -0.051 C 
BRANCH  27  28
ATOM     28  C   UNL     1     -10.465  -4.676  -4.225  0.00  0.00    -0.053 C 
ATOM     29  C   UNL     1     -10.943  -4.392  -5.411  0.00  0.00    +0.002 C 
ENDBRANCH  27  28
ENDBRANCH  25  27
BRANCH  25  30
ATOM     30  C   UNL     1     -10.495  -5.328  -1.361  0.00  0.00    -0.051 C 
BRANCH  30  31
ATOM     31  C   UNL     1     -10.396  -6.518  -2.280  0.00  0.00    -0.053 C 
ATOM     32  C   UNL     1      -9.222  -6.971  -2.643  0.00  0.00    +0.002 C 
ENDBRANCH  30  31
ENDBRANCH  25  30
ENDBRANCH  21  25
ENDBRANCH  20  21
ENDBRANCH   4  20
TORSDOF 11
