REMARK  Name = ZINC59935617
REMARK  7 active torsions:
REMARK  status: ('A' for Active; 'I' for Inactive)
REMARK    1  A    between atoms: C_3  and  C_24
REMARK    2  A    between atoms: C_5  and  N_7
REMARK    3  A    between atoms: C_8  and  C_10
REMARK    4  A    between atoms: C_11  and  C_12
REMARK    5  A    between atoms: C_15  and  N_18
REMARK    6  A    between atoms: C_24  and  N_25
REMARK    7  A    between atoms: C_29  and  C_31
REMARK                            x       y       z     vdW  Elec       q    Type
REMARK                         _______ _______ _______ _____ _____    ______ ____
ROOT
ATOM      1  C   UNL     1      -0.045   1.369  -0.033  0.00  0.00    +0.002 A 
ATOM      2  C   UNL     1       1.139   2.084  -0.049  0.00  0.00    +0.002 A 
ATOM      3  C   UNL     1       2.351   1.419  -0.062  0.00  0.00    -0.062 A 
ATOM      4  C   UNL     1       2.383   0.038  -0.060  0.00  0.00    +0.025 A 
ATOM      5  C   UNL     1       1.196  -0.683  -0.044  0.00  0.00    +0.034 A 
ATOM      6  C   UNL     1      -0.020  -0.011  -0.030  0.00  0.00    +0.023 A 
ENDROOT
BRANCH   5   7
ATOM      7  N   UNL     1       1.224  -2.080  -0.042  0.00  0.00    -0.282 N 
ATOM      8  C   UNL     1       0.293  -2.773   0.643  0.00  0.00    +0.241 C 
ATOM      9  O   UNL     1      -0.621  -2.184   1.193  0.00  0.00    -0.270 OA
ATOM     10  H   UNL     1       1.915  -2.552  -0.533  0.00  0.00    +0.155 HD
BRANCH   8  11
ATOM     11  C   UNL     1       0.378  -4.230   0.726  0.00  0.00    +0.068 C 
ATOM     12  C   UNL     1      -0.555  -4.923   1.412  0.00  0.00    +0.013 C 
BRANCH  12  13
ATOM     13  C   UNL     1      -0.469  -6.388   1.495  0.00  0.00    -0.025 A 
ATOM     14  C   UNL     1       0.583  -7.066   0.868  0.00  0.00    +0.010 A 
ATOM     15  C   UNL     1       0.660  -8.438   0.949  0.00  0.00    +0.024 A 
ATOM     16  C   UNL     1      -0.306  -9.151   1.652  0.00  0.00    +0.036 A 
ATOM     17  C   UNL     1      -1.354  -8.481   2.276  0.00  0.00    +0.024 A 
ATOM     18  C   UNL     1      -1.436  -7.109   2.206  0.00  0.00    +0.010 A 
BRANCH  16  19
ATOM     19  N   UNL     1      -0.225 -10.541   1.730  0.00  0.00    -0.271 N 
ATOM     20  C   UNL     1      -1.251 -11.398   2.337  0.00  0.00    +0.114 C 
ATOM     21  C   UNL     1      -0.958 -12.823   1.816  0.00  0.00    +0.029 C 
ATOM     22  C   UNL     1       0.555 -12.740   1.506  0.00  0.00    +0.098 C 
ATOM     23  C   UNL     1       0.801 -11.269   1.255  0.00  0.00    +0.220 C 
ATOM     24  O   UNL     1       1.782 -10.812   0.708  0.00  0.00    -0.275 OA
ENDBRANCH  16  19
ENDBRANCH  12  13
ENDBRANCH   8  11
ENDBRANCH   5   7
BRANCH   3  25
ATOM     25  C   UNL     1       3.639   2.201  -0.081  0.00  0.00    -0.042 C 
BRANCH  25  26
ATOM     26  N   UNL     1       4.075   2.459   1.298  0.00  0.00    +0.390 N 
ATOM     27  C   UNL     1       4.494   1.190   1.949  0.00  0.00    -0.077 C 
ATOM     28  C   UNL     1       5.414   1.669   3.100  0.00  0.00    -0.020 C 
ATOM     29  C   UNL     1       6.163   2.865   2.469  0.00  0.00    -0.008 C 
ATOM     30  C   UNL     1       5.272   3.328   1.301  0.00  0.00    +0.019 C 
ATOM     31  H   UNL     1       3.330   2.891   1.824  0.00  0.00    -0.080 HD
BRANCH  30  32
ATOM     32  C   UNL     1       4.863   4.764   1.505  0.00  0.00    +0.197 C 
ATOM     33  O   UNL     1       3.692   5.048   1.636  0.00  0.00    -0.278 OA
ATOM     34  N   UNL     1       5.800   5.732   1.541  0.00  0.00    -0.331 N 
ATOM     35  H   UNL     1       6.737   5.505   1.436  0.00  0.00    +0.145 HD
ATOM     36  H   UNL     1       5.537   6.657   1.672  0.00  0.00    +0.145 HD
ENDBRANCH  30  32
ENDBRANCH  25  26
ENDBRANCH   3  25
TORSDOF 7
