REMARK  Name = ZINC20877159
REMARK  13 active torsions:
REMARK  status: ('A' for Active; 'I' for Inactive)
REMARK    1  A    between atoms: C_1  and  C_2
REMARK    2  A    between atoms: C_2  and  C_4
REMARK    3  A    between atoms: C_2  and  O_31
REMARK    4  A    between atoms: C_4  and  N_5
REMARK    5  A    between atoms: N_5  and  C_6
REMARK    6  A    between atoms: C_6  and  C_7
REMARK    7  A    between atoms: C_9  and  O_29
REMARK    8  A    between atoms: C_10  and  O_14
REMARK    9  A    between atoms: O_14  and  C_15
REMARK   10  A    between atoms: C_15  and  C_16
REMARK   11  A    between atoms: C_16  and  C_18
REMARK   12  A    between atoms: C_16  and  O_28
REMARK   13  A    between atoms: O_29  and  C_30
REMARK                            x       y       z     vdW  Elec       q    Type
REMARK                         _______ _______ _______ _____ _____    ______ ____
ROOT
ATOM      1  C   UNL     1      -7.309  -2.158   5.104  0.00  0.00    -0.060 A 
ATOM      2  C   UNL     1      -6.310  -3.038   4.729  0.00  0.00    +0.051 A 
ATOM      3  C   UNL     1      -5.675  -2.886   3.507  0.00  0.00    +0.163 A 
ATOM      4  C   UNL     1      -6.039  -1.841   2.663  0.00  0.00    +0.176 A 
ATOM      5  C   UNL     1      -7.041  -0.963   3.044  0.00  0.00    +0.063 A 
ATOM      6  C   UNL     1      -7.674  -1.123   4.263  0.00  0.00    +0.021 A 
ATOM      7 BR   UNL     1      -7.543   0.455   1.897  0.00  0.00    -0.046 Br
ENDROOT
BRANCH   3   8
ATOM      8  O   UNL     1      -4.696  -3.753   3.136  0.00  0.00    -0.491 OA
ATOM      9  C   UNL     1      -4.375  -4.801   4.052  0.00  0.00    +0.277 C 
ENDBRANCH   3   8
BRANCH   1  10
ATOM     10  C   UNL     1      -8.002  -2.329   6.431  0.00  0.00    -0.047 C 
BRANCH  10  11
ATOM     11  N   UNL     1      -9.172  -3.202   6.265  0.00  0.00    +0.383 N 
ATOM     12  H   UNL     1      -8.832  -4.177   5.885  0.00  0.00    -0.085 HD
ATOM     13  H   UNL     1      -9.855  -2.742   5.536  0.00  0.00    -0.085 HD
BRANCH  11  14
ATOM     14  C   UNL     1      -9.873  -3.391   7.542  0.00  0.00    -0.051 C 
BRANCH  14  16
ATOM     15  C   UNL     1     -11.813  -4.501   8.658  0.00  0.00    +0.035 C 
ATOM     16  C   UNL     1     -11.082  -4.304   7.329  0.00  0.00    +0.095 C 
BRANCH  16  17
ATOM     17  O   UNL     1     -11.970  -3.706   6.381  0.00  0.00    -0.394 OA
ATOM     18  H   UNL     1     -11.620  -3.487   5.362  0.00  0.00    +0.210 HD
ENDBRANCH  16  17
ENDBRANCH  14  16
ENDBRANCH  11  14
ENDBRANCH  10  11
ENDBRANCH   1  10
BRANCH   4  19
ATOM     19  O   UNL     1      -5.416  -1.685   1.464  0.00  0.00    -0.484 OA
BRANCH  19  20
ATOM     20  C   UNL     1      -4.250  -0.858   1.441  0.00  0.00    +0.265 C 
BRANCH  20  21
ATOM     21  C   UNL     1      -3.692  -0.803   0.018  0.00  0.00    +0.182 C 
BRANCH  21  22
ATOM     22  C   UNL     1      -2.397  -0.033   0.016  0.00  0.00    -0.012 A 
ATOM     23  C   UNL     1      -2.415   1.349   0.026  0.00  0.00    +0.010 A 
ATOM     24  C   UNL     1      -1.229   2.059   0.019  0.00  0.00    +0.050 A 
ATOM     25  C   UNL     1      -0.017   1.385   0.010  0.00  0.00    +0.162 A 
ATOM     26  C   UNL     1       0.002  -0.004   0.002  0.00  0.00    +0.162 A 
ATOM     27  C   UNL     1      -1.192  -0.710   0.004  0.00  0.00    +0.055 A 
ATOM     28  O   UNL     1       1.181  -0.685  -0.007  0.00  0.00    -0.485 OA
ATOM     29  C   UNL     1       2.347   0.053  -0.387  0.00  0.00    +0.270 C 
ATOM     30  C   UNL     1       2.334   1.392   0.364  0.00  0.00    +0.270 C 
ATOM     31  O   UNL     1       1.143   2.098   0.002  0.00  0.00    -0.485 OA
ENDBRANCH  21  22
BRANCH  21  32
ATOM     32  O   UNL     1      -4.634  -0.153  -0.839  0.00  0.00    -0.384 OA
ATOM     33  H   UNL     1      -4.405  -0.020  -1.906  0.00  0.00    +0.210 HD
ENDBRANCH  21  32
ENDBRANCH  20  21
ENDBRANCH  19  20
ENDBRANCH   4  19
TORSDOF 11
