REMARK  Name = ZINC36621530
REMARK  4 active torsions:
REMARK  status: ('A' for Active; 'I' for Inactive)
REMARK    1  A    between atoms: C_1  and  C_2
REMARK    2  A    between atoms: C_3  and  C_9
REMARK    3  A    between atoms: C_4  and  C_8
REMARK    4  A    between atoms: N_5  and  C_7
REMARK                            x       y       z     vdW  Elec       q    Type
REMARK                         _______ _______ _______ _____ _____    ______ ____
ROOT
ATOM      1  C   UNL     1       0.052  -0.585  -2.602  0.00  0.00    +0.032 C 
ATOM      2  C   UNL     1      -0.758   0.395  -3.079  0.00  0.00    +0.080 C 
ATOM      3  C   UNL     1      -0.993   0.836  -4.472  0.00  0.00    +0.276 C 
ATOM      4  O   UNL     1      -0.426   0.311  -5.418  0.00  0.00    -0.267 OA
ATOM      5  N   UNL     1      -1.845   1.824  -4.636  0.00  0.00    -0.154 NA
ATOM      6  C   UNL     1      -2.467   2.401  -3.619  0.00  0.00    +0.154 C 
ATOM      7  S   UNL     1      -1.847   1.509  -2.201  0.00  0.00    -0.052 S 
ATOM      8  N   UNL     1      -3.371   3.430  -3.649  0.00  0.00    -0.307 N 
ATOM      9  C   UNL     1      -3.785   4.049  -4.918  0.00  0.00    +0.112 C 
ATOM     10  C   UNL     1      -5.277   3.778  -5.108  0.00  0.00    +0.054 C 
ATOM     11  C   UNL     1      -6.043   4.088  -3.849  0.00  0.00    -0.041 A 
ATOM     12  C   UNL     1      -7.410   4.308  -3.965  0.00  0.00    +0.004 A 
ATOM     13  C   UNL     1      -8.172   4.587  -2.850  0.00  0.00    +0.000 A 
ATOM     14  C   UNL     1      -7.574   4.648  -1.605  0.00  0.00    +0.000 A 
ATOM     15  C   UNL     1      -6.216   4.433  -1.488  0.00  0.00    +0.005 A 
ATOM     16  C   UNL     1      -5.447   4.157  -2.610  0.00  0.00    -0.027 A 
ATOM     17  C   UNL     1      -3.969   3.955  -2.416  0.00  0.00    +0.142 C 
ENDROOT
BRANCH   1  20
ATOM     18  C   UNL     1      -2.504  -1.522  -0.974  0.00  0.00    +0.068 C 
ATOM     19  C   UNL     1      -1.107  -1.351  -0.435  0.00  0.00    +0.067 A 
ATOM     20  C   UNL     1       0.024  -0.932  -1.176  0.00  0.00    +0.019 A 
ATOM     21  C   UNL     1       1.097  -0.910  -0.303  0.00  0.00    +0.043 A 
ATOM     22  N   UNL     1       0.641  -1.296   0.902  0.00  0.00    -0.271 N 
ATOM     23  N   UNL     1      -0.729  -1.559   0.796  0.00  0.00    -0.176 NA
ATOM     24  C   UNL     1       1.443  -1.416   2.122  0.00  0.00    +0.172 C 
ATOM     25  C   UNL     1       2.514  -0.525  -0.640  0.00  0.00    +0.066 C 
ENDBRANCH   1  20
TORSDOF 1
