REMARK  Name = ZINC64055382
REMARK  10 active torsions:
REMARK  status: ('A' for Active; 'I' for Inactive)
REMARK    1  A    between atoms: C_1  and  C_2
REMARK    2  A    between atoms: C_2  and  C_3
REMARK    3  A    between atoms: C_5  and  C_28
REMARK    4  A    between atoms: C_6  and  C_11
REMARK    5  A    between atoms: C_11  and  S_12
REMARK    6  A    between atoms: S_12  and  C_13
REMARK    7  A    between atoms: C_17  and  C_19
REMARK    8  A    between atoms: C_28  and  O_30
REMARK    9  A    between atoms: O_30  and  C_31
REMARK   10  A    between atoms: C_31  and  C_32
REMARK                            x       y       z     vdW  Elec       q    Type
REMARK                         _______ _______ _______ _____ _____    ______ ____
ROOT
ATOM      1  C   UNL     1       1.503  -4.251  -1.631  0.00  0.00    +0.125 C 
ENDROOT
BRANCH   1   4
ATOM      2  C   UNL     1       0.722  -0.493  -1.271  0.00  0.00    +0.113 C 
ATOM      3  C   UNL     1       0.536  -1.986  -1.451  0.00  0.00    +0.074 C 
ATOM      4  C   UNL     1       1.642  -2.761  -1.455  0.00  0.00    +0.034 C 
ATOM      5  N   UNL     1       2.885  -2.216  -1.302  0.00  0.00    -0.272 N 
ATOM      6  C   UNL     1       3.106  -0.905  -1.140  0.00  0.00    +0.304 C 
ATOM      7  O   UNL     1       4.250  -0.514  -1.012  0.00  0.00    -0.253 OA
ATOM      8  N   UNL     1       2.103  -0.007  -1.114  0.00  0.00    -0.292 N 
ATOM      9  H   UNL     1       3.651  -2.812  -1.312  0.00  0.00    +0.156 HD
ATOM     10  H   UNL     1       2.286   0.938  -0.996  0.00  0.00    +0.151 HD
BRANCH   2  12
ATOM     11  C   UNL     1      -0.087   1.462   0.057  0.00  0.00    +0.006 C 
ATOM     12  C   UNL     1      -0.072  -0.065  -0.035  0.00  0.00    +0.024 C 
ENDBRANCH   2  12
BRANCH   3  13
ATOM     13  C   UNL     1      -0.752  -2.549  -1.609  0.00  0.00    +0.338 C 
ATOM     14  O   UNL     1      -1.311  -2.496  -2.688  0.00  0.00    -0.245 OA
BRANCH  13  15
ATOM     15  O   UNL     1      -1.360  -3.146  -0.562  0.00  0.00    -0.462 OA
BRANCH  15  16
ATOM     16  C   UNL     1      -2.660  -3.693  -0.793  0.00  0.00    +0.229 C 
ATOM     17  C   UNL     1      -3.185  -4.323   0.499  0.00  0.00    +0.048 C 
ENDBRANCH  15  16
ENDBRANCH  13  15
ENDBRANCH   3  13
ENDBRANCH   1   4
BRANCH   1  18
ATOM     18  S   UNL     1       1.996  -4.710  -3.315  0.00  0.00    -0.090 S 
BRANCH  18  19
ATOM     19  C   UNL     1       1.774  -6.510  -3.362  0.00  0.00    +0.339 C 
ATOM     20  N   UNL     1       0.378  -6.864  -3.051  0.00  0.00    -0.219 N 
ATOM     21  N   UNL     1       0.440  -7.648  -1.889  0.00  0.00    -0.145 NA
ATOM     22  C   UNL     1       1.681  -7.784  -1.504  0.00  0.00    +0.238 C 
ATOM     23  O   UNL     1       2.545  -7.137  -2.328  0.00  0.00    -0.443 OA
ATOM     24  H   UNL     1      -0.416  -6.608  -3.545  0.00  0.00    +0.173 HD
BRANCH  22  25
ATOM     25  C   UNL     1       2.075  -8.514  -0.374  0.00  0.00    +0.043 C 
ATOM     26  C   UNL     1       1.249  -9.208   0.512  0.00  0.00    +0.008 A 
ATOM     27  C   UNL     1      -0.148  -9.395   0.565  0.00  0.00    +0.010 A 
ATOM     28  C   UNL     1      -0.691 -10.137   1.565  0.00  0.00    +0.001 A 
ATOM     29  C   UNL     1       0.102 -10.726   2.552  0.00  0.00    +0.002 A 
ATOM     30  C   UNL     1       1.451 -10.588   2.562  0.00  0.00    +0.026 A 
ATOM     31  C   UNL     1       2.090  -9.827   1.550  0.00  0.00    +0.043 A 
ATOM     32  N   UNL     1       3.362  -9.547   1.341  0.00  0.00    -0.380 N 
ATOM     33  C   UNL     1       3.484  -8.719   0.137  0.00  0.00    +0.154 C 
ATOM     34  H   UNL     1       4.100  -9.846   1.894  0.00  0.00    +0.160 HD
ENDBRANCH  22  25
ENDBRANCH  18  19
ENDBRANCH   1  18
TORSDOF 8
