REMARK  Name = ZINC04729648
REMARK  6 active torsions:
REMARK  status: ('A' for Active; 'I' for Inactive)
REMARK    1  A    between atoms: C_1  and  O_2
REMARK    2  A    between atoms: O_2  and  C_3
REMARK    3  A    between atoms: C_7  and  C_9
REMARK    4  A    between atoms: C_11  and  C_23
REMARK    5  A    between atoms: C_13  and  C_16
REMARK    6  A    between atoms: C_21  and  O_22
REMARK                            x       y       z     vdW  Elec       q    Type
REMARK                         _______ _______ _______ _____ _____    ______ ____
ROOT
ATOM      1  C   UNL     1       1.343  -4.077  -2.297  0.00  0.00    +0.040 C 
ATOM      2  N   UNL     1       0.823  -4.763  -1.350  0.00  0.00    -0.299 NA
ATOM      3  C   UNL     1       0.799  -6.219  -1.313  0.00  0.00    +0.081 C 
ATOM      4  C   UNL     1       1.638  -6.180  -3.574  0.00  0.00    -0.028 C 
ATOM      5  C   UNL     1       2.020  -4.699  -3.486  0.00  0.00    +0.044 C 
ATOM      6  N   UNL     1       1.799  -6.780  -2.235  0.00  0.00    +0.401 N 
ATOM      7  H   UNL     1       1.671  -7.796  -2.299  0.00  0.00    -0.081 HD
ATOM      8  H   UNL     1       2.741  -6.575  -1.881  0.00  0.00    -0.081 HD
ENDROOT
BRANCH   3   9
ATOM      9  C   UNL     1      -0.571  -6.709  -1.706  0.00  0.00    -0.040 A 
ATOM     10  C   UNL     1      -0.715  -7.939  -2.319  0.00  0.00    +0.006 A 
ATOM     11  C   UNL     1      -1.971  -8.392  -2.675  0.00  0.00    +0.038 A 
ATOM     12  C   UNL     1      -3.084  -7.606  -2.429  0.00  0.00    +0.123 A 
ATOM     13  C   UNL     1      -2.938  -6.371  -1.821  0.00  0.00    +0.038 A 
ATOM     14  C   UNL     1      -1.681  -5.924  -1.460  0.00  0.00    +0.006 A 
ATOM     15  F   UNL     1      -4.312  -8.044  -2.783  0.00  0.00    -0.205 F 
ENDBRANCH   3   9
BRANCH   1  20
ATOM     16  C   UNL     1       0.606  -0.607  -1.056  0.00  0.00    +0.121 A 
ATOM     17  C   UNL     1       1.163   0.163  -2.068  0.00  0.00    +0.045 A 
ATOM     18  C   UNL     1       1.783  -0.445  -3.144  0.00  0.00    +0.004 A 
ATOM     19  C   UNL     1       1.843  -1.821  -3.225  0.00  0.00    +0.010 A 
ATOM     20  C   UNL     1       1.281  -2.604  -2.214  0.00  0.00    -0.001 A 
ATOM     21  C   UNL     1       0.660  -1.989  -1.126  0.00  0.00    +0.055 A 
BRANCH  16  23
ATOM     22  C   UNL     1      -0.017   1.425   0.010  0.00  0.00    +0.277 C 
ATOM     23  O   UNL     1       0.002  -0.004   0.002  0.00  0.00    -0.495 OA
ENDBRANCH  16  23
ENDBRANCH   1  20
BRANCH   4  24
ATOM     24  C   UNL     1       2.543  -6.881  -4.554  0.00  0.00    -0.019 A 
ATOM     25  C   UNL     1       3.615  -7.624  -4.096  0.00  0.00    +0.005 A 
ATOM     26  C   UNL     1       4.443  -8.271  -4.994  0.00  0.00    +0.000 A 
ATOM     27  C   UNL     1       4.207  -8.169  -6.353  0.00  0.00    +0.004 A 
ATOM     28  C   UNL     1       3.139  -7.424  -6.816  0.00  0.00    +0.045 A 
ATOM     29  C   UNL     1       2.304  -6.778  -5.916  0.00  0.00    +0.118 A 
BRANCH  29  30
ATOM     30  O   UNL     1       1.254  -6.044  -6.369  0.00  0.00    -0.507 OA
ATOM     31  H   UNL     1       1.466  -5.115  -6.536  0.00  0.00    +0.292 HD
ENDBRANCH  29  30
ENDBRANCH   4  24
TORSDOF 5
