REMARK  Name = ZINC22133617
REMARK  9 active torsions:
REMARK  status: ('A' for Active; 'I' for Inactive)
REMARK    1  A    between atoms: C_1  and  C_2
REMARK    2  A    between atoms: C_3  and  C_9
REMARK    3  A    between atoms: C_4  and  C_8
REMARK    4  A    between atoms: N_5  and  C_7
REMARK    5  A    between atoms: C_9  and  O_11
REMARK    6  A    between atoms: O_11  and  C_12
REMARK    7  A    between atoms: C_12  and  C_14
REMARK    8  A    between atoms: C_12  and  C_15
REMARK    9  A    between atoms: N_20  and  C_21
REMARK                            x       y       z     vdW  Elec       q    Type
REMARK                         _______ _______ _______ _____ _____    ______ ____
ROOT
ATOM      1  C   UNL     1       2.365  -4.177   0.339  0.00  0.00    +0.259 C 
ATOM      2  C   UNL     1       1.972  -4.685  -1.050  0.00  0.00    +0.062 C 
ENDROOT
BRANCH   1   3
ATOM      3  C   UNL     1       2.345  -2.670   0.347  0.00  0.00    +0.261 C 
ATOM      4  O   UNL     1       3.374  -2.051   0.513  0.00  0.00    -0.271 OA
ATOM      5  N   UNL     1       1.183  -2.011   0.171  0.00  0.00    -0.237 N 
ATOM      6  C   UNL     1       1.164  -0.663   0.178  0.00  0.00    +0.306 C 
ATOM      7  O   UNL     1       2.196  -0.042   0.344  0.00  0.00    -0.252 OA
ATOM      8  N   UNL     1       0.002  -0.004   0.002  0.00  0.00    -0.296 N 
ATOM      9  H   UNL     1       0.249  -2.573   0.021  0.00  0.00    +0.159 HD
ATOM     10  H   UNL     1      -0.932  -0.566  -0.148  0.00  0.00    +0.151 HD
BRANCH   8  11
ATOM     11  C   UNL     1      -0.018   1.461   0.010  0.00  0.00    +0.075 C 
ATOM     12  C   UNL     1      -1.141   2.148   0.790  0.00  0.00    +0.024 C 
ATOM     13  C   UNL     1      -1.155   2.156  -0.741  0.00  0.00    +0.024 C 
ENDBRANCH   8  11
ENDBRANCH   1   3
BRANCH   1  14
ATOM     14  O   UNL     1       3.701  -4.645   0.665  0.00  0.00    -0.449 OA
BRANCH  14  15
ATOM     15  C   UNL     1       3.796  -5.831   1.296  0.00  0.00    +0.343 C 
ATOM     16  O   UNL     1       2.791  -6.458   1.567  0.00  0.00    -0.245 OA
BRANCH  15  19
ATOM     17  C   UNL     1       5.599  -7.707  -0.522  0.00  0.00    +0.068 C 
ATOM     18  C   UNL     1       5.933  -7.204   0.859  0.00  0.00    +0.074 A 
ATOM     19  C   UNL     1       5.119  -6.369   1.658  0.00  0.00    +0.102 A 
ATOM     20  C   UNL     1       5.800  -6.145   2.838  0.00  0.00    +0.050 A 
ATOM     21  N   UNL     1       6.960  -6.817   2.766  0.00  0.00    -0.271 N 
ATOM     22  N   UNL     1       7.022  -7.464   1.527  0.00  0.00    -0.176 NA
ATOM     23  C   UNL     1       7.990  -6.860   3.807  0.00  0.00    +0.172 C 
ATOM     24  C   UNL     1       5.327  -5.305   3.997  0.00  0.00    +0.066 C 
ENDBRANCH  15  19
ENDBRANCH  14  15
ENDBRANCH   1  14
TORSDOF 5
