REMARK  Name = ZINC19898200
REMARK  8 active torsions:
REMARK  status: ('A' for Active; 'I' for Inactive)
REMARK    1  A    between atoms: C_1  and  O_2
REMARK    2  A    between atoms: O_2  and  C_3
REMARK    3  A    between atoms: C_4  and  C_10
REMARK    4  A    between atoms: N_11  and  N_12
REMARK    5  A    between atoms: N_15  and  N_16
REMARK    6  A    between atoms: C_17  and  C_18
REMARK    7  A    between atoms: C_19  and  O_25
REMARK    8  A    between atoms: O_25  and  C_26
REMARK                            x       y       z     vdW  Elec       q    Type
REMARK                         _______ _______ _______ _____ _____    ______ ____
ROOT
ATOM      1  N   UNL     1      -1.089  -3.042   1.959  0.00  0.00    -0.247 N 
ATOM      2  C   UNL     1      -1.701  -2.438   3.034  0.00  0.00    +0.210 C 
ATOM      3  N   UNL     1      -1.751  -1.137   3.109  0.00  0.00    -0.369 N 
ATOM      4  N   UNL     1      -2.261  -3.207   4.029  0.00  0.00    -0.247 N 
ATOM      5  H   UNL     1      -1.052  -4.010   1.903  0.00  0.00    +0.192 HD
ATOM      6  H   UNL     1      -2.183  -0.711   3.867  0.00  0.00    +0.159 HD
ATOM      7  H   UNL     1      -2.224  -4.175   3.973  0.00  0.00    +0.192 HD
ATOM      8  H   UNL     1      -1.357  -0.595   2.408  0.00  0.00    +0.159 HD
ENDROOT
BRANCH   1  10
ATOM      9  C   UNL     1       0.058  -2.829  -0.067  0.00  0.00    +0.144 C 
ATOM     10  N   UNL     1      -0.519  -2.259   0.947  0.00  0.00    -0.179 NA
BRANCH   9  12
ATOM     11  C   UNL     1       0.606  -0.607  -1.055  0.00  0.00    +0.129 A 
ATOM     12  C   UNL     1       0.657  -2.006  -1.132  0.00  0.00    +0.037 A 
ATOM     13  C   UNL     1       1.279  -2.614  -2.224  0.00  0.00    +0.028 A 
ATOM     14  C   UNL     1       1.839  -1.837  -3.218  0.00  0.00    +0.019 A 
ATOM     15  C   UNL     1       1.785  -0.456  -3.137  0.00  0.00    +0.019 A 
ATOM     16  C   UNL     1       1.167   0.158  -2.064  0.00  0.00    +0.047 A 
ATOM     17 BR   UNL     1       2.682  -2.662  -4.696  0.00  0.00    -0.050 Br
BRANCH  11  19
ATOM     18  C   UNL     1      -0.017   1.425   0.010  0.00  0.00    +0.277 C 
ATOM     19  O   UNL     1       0.002  -0.004   0.002  0.00  0.00    -0.494 OA
ENDBRANCH  11  19
ENDBRANCH   9  12
ENDBRANCH   1  10
BRANCH   4  20
ATOM     20  N   UNL     1      -2.884  -2.592   5.123  0.00  0.00    -0.179 NA
ATOM     21  C   UNL     1      -3.412  -3.317   6.061  0.00  0.00    +0.144 C 
BRANCH  21  22
ATOM     22  C   UNL     1      -4.067  -2.670   7.212  0.00  0.00    +0.037 A 
ATOM     23  C   UNL     1      -4.128  -1.272   7.294  0.00  0.00    +0.129 A 
ATOM     24  C   UNL     1      -4.746  -0.674   8.379  0.00  0.00    +0.047 A 
ATOM     25  C   UNL     1      -5.301  -1.453   9.378  0.00  0.00    +0.019 A 
ATOM     26  C   UNL     1      -5.244  -2.834   9.301  0.00  0.00    +0.019 A 
ATOM     27  C   UNL     1      -4.636  -3.446   8.223  0.00  0.00    +0.028 A 
ATOM     28 BR   UNL     1      -6.007  -3.886  10.675  0.00  0.00    -0.050 Br
BRANCH  23  29
ATOM     29  O   UNL     1      -3.583  -0.507   6.313  0.00  0.00    -0.494 OA
ATOM     30  C   UNL     1      -3.683   0.910   6.464  0.00  0.00    +0.277 C 
ENDBRANCH  23  29
ENDBRANCH  21  22
ENDBRANCH   4  20
TORSDOF 6
