REMARK  Name = ZINC40316713
REMARK  7 active torsions:
REMARK  status: ('A' for Active; 'I' for Inactive)
REMARK    1  A    between atoms: C_1  and  C_2
REMARK    2  A    between atoms: C_2  and  C_4
REMARK    3  A    between atoms: C_2  and  N_11
REMARK    4  A    between atoms: N_11  and  S_12
REMARK    5  A    between atoms: S_12  and  C_15
REMARK    6  A    between atoms: C_18  and  O_22
REMARK    7  A    between atoms: C_19  and  N_21
REMARK                            x       y       z     vdW  Elec       q    Type
REMARK                         _______ _______ _______ _____ _____    ______ ____
ROOT
ATOM      1  S   UNL     1      -2.027  -1.078  -1.427  0.00  0.00    +0.059 S 
ATOM      2  O   UNL     1      -3.325  -1.561  -1.109  0.00  0.00    -0.153 OA
ATOM      3  O   UNL     1      -1.810  -0.054  -2.389  0.00  0.00    -0.153 OA
ENDROOT
BRANCH   1   4
ATOM      4  C   UNL     1      -1.087  -2.471  -1.955  0.00  0.00    +0.107 A 
ATOM      5  C   UNL     1       0.014  -2.291  -2.772  0.00  0.00    +0.032 A 
ATOM      6  C   UNL     1       0.756  -3.381  -3.189  0.00  0.00    +0.049 A 
ATOM      7  C   UNL     1       0.398  -4.658  -2.788  0.00  0.00    +0.137 A 
ATOM      8  C   UNL     1      -0.711  -4.840  -1.964  0.00  0.00    +0.068 A 
ATOM      9  C   UNL     1      -1.448  -3.741  -1.546  0.00  0.00    +0.055 A 
BRANCH   8  10
ATOM     10  N   UNL     1      -1.078  -6.128  -1.556  0.00  0.00    -0.355 N 
ATOM     11  H   UNL     1      -0.560  -6.894  -1.847  0.00  0.00    +0.142 HD
ATOM     12  H   UNL     1      -1.850  -6.253  -0.983  0.00  0.00    +0.142 HD
ENDBRANCH   8  10
BRANCH   7  13
ATOM     13  O   UNL     1       1.127  -5.731  -3.197  0.00  0.00    -0.505 OA
ATOM     14  H   UNL     1       1.854  -5.962  -2.603  0.00  0.00    +0.292 HD
ENDBRANCH   7  13
ENDBRANCH   1   4
BRANCH   1  15
ATOM     15  N   UNL     1      -1.359  -0.545  -0.009  0.00  0.00    -0.183 NA
ATOM     16  H   UNL     1      -1.870  -0.591   0.815  0.00  0.00    +0.149 HD
BRANCH  15  18
ATOM     17  C   UNL     1      -0.055   1.523  -0.077  0.00  0.00    +0.031 C 
ATOM     18  C   UNL     1       0.002  -0.004   0.002  0.00  0.00    +0.104 C 
BRANCH  18  19
ATOM     19  C   UNL     1       0.696  -0.416   1.275  0.00  0.00    -0.015 A 
ATOM     20  C   UNL     1      -0.045  -0.679   2.412  0.00  0.00    +0.006 A 
ATOM     21  C   UNL     1       0.591  -1.057   3.579  0.00  0.00    +0.000 A 
ATOM     22  C   UNL     1       1.968  -1.172   3.611  0.00  0.00    +0.001 A 
ATOM     23  C   UNL     1       2.710  -0.909   2.475  0.00  0.00    +0.015 A 
ATOM     24  C   UNL     1       2.073  -0.535   1.304  0.00  0.00    +0.023 A 
ATOM     25 BR   UNL     1       3.087  -0.182  -0.253  0.00  0.00    -0.050 Br
ENDBRANCH  18  19
ENDBRANCH  15  18
ENDBRANCH   1  15
TORSDOF 6
