REMARK  Name = ZINC09535619
REMARK  16 active torsions:
REMARK  status: ('A' for Active; 'I' for Inactive)
REMARK    1  A    between atoms: C_1  and  C_2
REMARK    2  A    between atoms: C_2  and  C_3
REMARK    3  A    between atoms: C_3  and  C_4
REMARK    4  A    between atoms: C_4  and  N_5
REMARK    5  A    between atoms: N_5  and  C_6
REMARK    6  A    between atoms: C_7  and  N_19
REMARK    7  A    between atoms: N_8  and  C_15
REMARK    8  A    between atoms: C_15  and  C_16
REMARK    9  A    between atoms: C_16  and  C_17
REMARK   10  A    between atoms: C_16  and  C_18
REMARK   11  A    between atoms: C_20  and  C_22
REMARK   12  A    between atoms: C_22  and  N_72
REMARK   13  A    between atoms: C_23  and  C_25
REMARK   14  A    between atoms: C_23  and  C_32
REMARK   15  A    between atoms: C_23  and  N_72
REMARK   16  A    between atoms: C_25  and  C_26
REMARK                            x       y       z     vdW  Elec       q    Type
REMARK                         _______ _______ _______ _____ _____    ______ ____
ROOT
ATOM      1  N   UNL     1      -0.736  -0.914   5.445  0.00  0.00    -0.266 N 
ATOM      2  C   UNL     1      -0.706  -0.807   4.100  0.00  0.00    +0.203 C 
ATOM      3  O   UNL     1       0.127  -1.416   3.462  0.00  0.00    -0.277 OA
ENDROOT
BRANCH   1   4
ATOM      4  C   UNL     1       0.137  -1.807   6.101  0.00  0.00    +0.140 A 
ATOM      5  C   UNL     1       0.049  -3.166   5.878  0.00  0.00    +0.127 A 
ATOM      6  N   UNL     1       0.914  -4.011   6.533  0.00  0.00    -0.280 N 
ATOM      7  C   UNL     1       1.835  -3.520   7.381  0.00  0.00    +0.331 A 
ATOM      8  O   UNL     1       2.590  -4.284   7.950  0.00  0.00    -0.246 OA
ATOM      9  N   UNL     1       1.935  -2.199   7.611  0.00  0.00    -0.273 N 
ATOM     10  H   UNL     1       2.626  -1.859   8.250  0.00  0.00    +0.173 HD
ATOM     11  C   UNL     1       1.116  -1.327   6.991  0.00  0.00    +0.277 A 
ATOM     12  O   UNL     1       1.219  -0.130   7.203  0.00  0.00    -0.266 OA
BRANCH   5  13
ATOM     13  N   UNL     1      -0.892  -3.668   5.011  0.00  0.00    -0.343 N 
ATOM     14  H   UNL     1      -1.569  -3.083   4.638  0.00  0.00    +0.144 HD
ATOM     15  H   UNL     1      -0.879  -4.609   4.774  0.00  0.00    +0.144 HD
ENDBRANCH   5  13
BRANCH   6  16
ATOM     16  C   UNL     1       0.832  -5.456   6.304  0.00  0.00    +0.131 C 
BRANCH  16  17
ATOM     17  C   UNL     1       1.743  -5.841   5.137  0.00  0.00    +0.003 C 
ATOM     18  C   UNL     1       3.201  -5.573   5.518  0.00  0.00    +0.009 C 
ATOM     19  C   UNL     1       1.564  -7.326   4.818  0.00  0.00    +0.009 C 
ENDBRANCH  16  17
ENDBRANCH   6  16
ENDBRANCH   1   4
BRANCH   1  20
ATOM     20  C   UNL     1      -1.675  -0.102   6.223  0.00  0.00    +0.114 C 
BRANCH  20  21
ATOM     21  C   UNL     1      -2.970  -0.888   6.441  0.00  0.00    +0.019 C 
BRANCH  21  23
ATOM     22  C   UNL     1      -5.245  -0.827   7.472  0.00  0.00    +0.004 C 
ATOM     23  C   UNL     1      -3.950  -0.041   7.254  0.00  0.00    -0.002 C 
ENDBRANCH  21  23
ENDBRANCH  20  21
ENDBRANCH   1  20
BRANCH   2  24
ATOM     24  C   UNL     1      -1.707   0.069   3.391  0.00  0.00    +0.016 C 
BRANCH  24  25
ATOM     25  N   UNL     1      -1.458   0.009   1.938  0.00  0.00    +0.389 N 
ATOM     26  H   UNL     1      -1.555  -0.961   1.618  0.00  0.00    -0.084 HD
ATOM     27  H   UNL     1      -0.506   0.341   1.744  0.00  0.00    -0.084 HD
BRANCH  25  28
ATOM     28  C   UNL     1      -2.425   0.859   1.218  0.00  0.00    -0.036 C 
BRANCH  28  29
ATOM     29  C   UNL     1      -3.692   0.080   0.970  0.00  0.00    -0.061 A 
ATOM     30  C   UNL     1      -3.624  -1.252   0.609  0.00  0.00    +0.002 A 
ATOM     31  C   UNL     1      -4.786  -1.967   0.386  0.00  0.00    +0.000 A 
ATOM     32  C   UNL     1      -6.015  -1.348   0.516  0.00  0.00    +0.000 A 
ATOM     33  C   UNL     1      -6.082  -0.014   0.872  0.00  0.00    +0.000 A 
ATOM     34  C   UNL     1      -4.920   0.700   1.099  0.00  0.00    +0.002 A 
ENDBRANCH  28  29
BRANCH  28  35
ATOM     35  C   UNL     1      -1.819   1.286  -0.120  0.00  0.00    +0.024 C 
BRANCH  35  36
ATOM     36  C   UNL     1      -0.622   2.167   0.129  0.00  0.00    -0.049 A 
ATOM     37  C   UNL     1       0.635   1.605   0.256  0.00  0.00    +0.003 A 
ATOM     38  C   UNL     1       1.734   2.414   0.478  0.00  0.00    +0.000 A 
ATOM     39  C   UNL     1       1.575   3.783   0.579  0.00  0.00    +0.000 A 
ATOM     40  C   UNL     1       0.318   4.344   0.458  0.00  0.00    +0.000 A 
ATOM     41  C   UNL     1      -0.781   3.536   0.235  0.00  0.00    +0.003 A 
ENDBRANCH  35  36
ENDBRANCH  28  35
ENDBRANCH  25  28
ENDBRANCH  24  25
ENDBRANCH   2  24
TORSDOF 13
