REMARK  Name = ZINC10052668
REMARK  10 active torsions:
REMARK  status: ('A' for Active; 'I' for Inactive)
REMARK    1  A    between atoms: C_1  and  C_2
REMARK    2  A    between atoms: C_2  and  C_3
REMARK    3  A    between atoms: C_3  and  C_4
REMARK    4  A    between atoms: C_4  and  N_5
REMARK    5  A    between atoms: C_18  and  S_19
REMARK    6  A    between atoms: S_19  and  C_20
REMARK    7  A    between atoms: C_20  and  C_21
REMARK    8  A    between atoms: C_29  and  C_33
REMARK    9  A    between atoms: C_30  and  O_32
REMARK   10  A    between atoms: C_33  and  C_34
REMARK                            x       y       z     vdW  Elec       q    Type
REMARK                         _______ _______ _______ _____ _____    ______ ____
ROOT
ATOM      1  N   UNL     1      -6.121  -3.750  -2.779  0.00  0.00    -0.277 N 
ATOM      2  C   UNL     1      -6.053  -3.692  -4.124  0.00  0.00    +0.263 A 
ATOM      3  O   UNL     1      -6.912  -4.213  -4.810  0.00  0.00    -0.267 OA
ATOM      4  C   UNL     1      -4.920  -2.986  -4.750  0.00  0.00    +0.064 A 
ATOM      5  C   UNL     1      -4.800  -2.895  -6.135  0.00  0.00    +0.015 A 
ATOM      6  C   UNL     1      -3.726  -2.226  -6.683  0.00  0.00    +0.001 A 
ATOM      7  C   UNL     1      -2.769  -1.646  -5.864  0.00  0.00    +0.002 A 
ATOM      8  C   UNL     1      -2.878  -1.730  -4.490  0.00  0.00    +0.027 A 
ATOM      9  C   UNL     1      -3.951  -2.398  -3.922  0.00  0.00    +0.064 A 
ATOM     10  N   UNL     1      -4.087  -2.492  -2.539  0.00  0.00    -0.256 N 
ATOM     11  C   UNL     1      -5.147  -3.159  -1.988  0.00  0.00    +0.240 A 
ATOM     12  N   UNL     1      -5.025  -3.098  -0.681  0.00  0.00    -0.109 NA
ATOM     13  N   UNL     1      -3.858  -2.382  -0.386  0.00  0.00    -0.120 NA
ATOM     14  C   UNL     1      -3.303  -2.026  -1.518  0.00  0.00    +0.198 A 
ENDROOT
BRANCH   1  15
ATOM     15  C   UNL     1      -7.241  -4.447  -2.143  0.00  0.00    +0.128 C 
BRANCH  15  16
ATOM     16  C   UNL     1      -8.388  -3.462  -1.907  0.00  0.00    +0.021 C 
BRANCH  16  18
ATOM     17  C   UNL     1     -10.705  -3.206  -1.008  0.00  0.00    +0.004 C 
ATOM     18  C   UNL     1      -9.558  -4.191  -1.243  0.00  0.00    -0.002 C 
ENDBRANCH  16  18
ENDBRANCH  15  16
ENDBRANCH   1  15
BRANCH  14  19
ATOM     19  S   UNL     1      -1.812  -1.104  -1.696  0.00  0.00    -0.081 S 
BRANCH  19  20
ATOM     20  C   UNL     1      -1.280  -0.796   0.011  0.00  0.00    +0.113 C 
BRANCH  20  21
ATOM     21  C   UNL     1       0.002  -0.004   0.002  0.00  0.00    -0.020 A 
ATOM     22  C   UNL     1      -0.016   1.354   0.009  0.00  0.00    +0.097 A 
ATOM     23  C   UNL     1       1.197   2.072   0.002  0.00  0.00    +0.338 A 
ATOM     24  O   UNL     1       1.166   3.290   0.009  0.00  0.00    -0.245 OA
ATOM     25  O   UNL     1       2.385   1.448  -0.013  0.00  0.00    -0.422 OA
ATOM     26  C   UNL     1       2.474   0.101  -0.021  0.00  0.00    +0.143 A 
ATOM     27  C   UNL     1       1.302  -0.678  -0.014  0.00  0.00    +0.022 A 
ATOM     28  C   UNL     1       1.389  -2.075  -0.023  0.00  0.00    +0.019 A 
ATOM     29  C   UNL     1       2.614  -2.678  -0.038  0.00  0.00    -0.005 A 
ATOM     30  C   UNL     1       3.778  -1.911  -0.045  0.00  0.00    +0.124 A 
ATOM     31  C   UNL     1       3.710  -0.527  -0.037  0.00  0.00    +0.092 A 
BRANCH  30  32
ATOM     32  O   UNL     1       4.988  -2.526  -0.060  0.00  0.00    -0.506 OA
ATOM     33  H   UNL     1       5.330  -2.699  -0.948  0.00  0.00    +0.292 HD
ENDBRANCH  30  32
BRANCH  29  34
ATOM     34  C   UNL     1       2.708  -4.181  -0.048  0.00  0.00    +0.035 C 
ATOM     35  C   UNL     1       2.976  -4.666  -1.474  0.00  0.00    +0.009 C 
ENDBRANCH  29  34
ENDBRANCH  20  21
ENDBRANCH  19  20
ENDBRANCH  14  19
TORSDOF 8
