REMARK  Name = ZINC35488376
REMARK  4 active torsions:
REMARK  status: ('A' for Active; 'I' for Inactive)
REMARK    1  A    between atoms: C_1  and  N_2
REMARK    2  A    between atoms: N_2  and  C_3
REMARK    3  A    between atoms: C_3  and  C_5
REMARK    4  A    between atoms: C_3  and  C_17
REMARK                            x       y       z     vdW  Elec       q    Type
REMARK                         _______ _______ _______ _____ _____    ______ ____
ROOT
ATOM      1  C   UNL     1       0.713  -0.491   1.192  0.00  0.00    -0.009 C 
ENDROOT
BRANCH   1   2
ATOM      2  C   UNL     1      -0.059  -0.109   2.429  0.00  0.00    -0.055 A 
ATOM      3  C   UNL     1      -1.441  -0.199   2.434  0.00  0.00    +0.004 A 
ATOM      4  C   UNL     1      -2.157   0.148   3.563  0.00  0.00    +0.028 A 
ATOM      5  C   UNL     1      -1.489   0.589   4.696  0.00  0.00    +0.067 A 
ATOM      6  C   UNL     1      -0.096   0.680   4.690  0.00  0.00    +0.067 A 
ATOM      7  C   UNL     1       0.615   0.323   3.554  0.00  0.00    +0.030 A 
ATOM      8  N   UNL     1       0.282   1.144   5.948  0.00  0.00    -0.306 N 
ATOM      9  H   UNL     1       1.192   1.308   6.242  0.00  0.00    +0.170 HD
ATOM     10  C   UNL     1      -0.830   1.327   6.684  0.00  0.00    +0.325 A 
ATOM     11  O   UNL     1      -0.852   1.728   7.833  0.00  0.00    -0.247 OA
ATOM     12  N   UNL     1      -1.915   1.001   5.956  0.00  0.00    -0.306 N 
ATOM     13  H   UNL     1      -2.835   1.045   6.258  0.00  0.00    +0.170 HD
ENDBRANCH   1   2
BRANCH   1  14
ATOM     14  C   UNL     1       0.841  -1.991   1.123  0.00  0.00    -0.038 A 
ATOM     15  C   UNL     1       0.003  -2.718   0.298  0.00  0.00    +0.019 A 
ATOM     16  C   UNL     1       0.120  -4.095   0.234  0.00  0.00    +0.018 A 
ATOM     17  C   UNL     1       1.076  -4.744   0.996  0.00  0.00    +0.017 A 
ATOM     18  C   UNL     1       1.913  -4.017   1.820  0.00  0.00    +0.021 A 
ATOM     19  C   UNL     1       1.800  -2.639   1.879  0.00  0.00    +0.043 A 
ATOM     20 CL   UNL     1       2.857  -1.725   2.909  0.00  0.00    -0.083 Cl
ATOM     21 BR   UNL     1      -1.026  -5.090  -0.893  0.00  0.00    -0.050 Br
ENDBRANCH   1  14
BRANCH   1  23
ATOM     22  C   UNL     1      -0.018   1.465   0.010  0.00  0.00    -0.099 C 
ATOM     23  N   UNL     1       0.002  -0.004   0.002  0.00  0.00    +0.384 N 
ATOM     24  H   UNL     1      -0.945  -0.353   0.009  0.00  0.00    -0.085 HD
ATOM     25  H   UNL     1       0.474  -0.330  -0.828  0.00  0.00    -0.085 HD
ENDBRANCH   1  23
TORSDOF 3
