REMARK  Name = ZINC42866077
REMARK  6 active torsions:
REMARK  status: ('A' for Active; 'I' for Inactive)
REMARK    1  A    between atoms: C_1  and  N_2
REMARK    2  A    between atoms: N_2  and  C_3
REMARK    3  A    between atoms: N_2  and  C_9
REMARK    4  A    between atoms: C_3  and  C_4
REMARK    5  A    between atoms: C_12  and  C_19
REMARK    6  A    between atoms: C_13  and  C_15
REMARK                            x       y       z     vdW  Elec       q    Type
REMARK                         _______ _______ _______ _____ _____    ______ ____
ROOT
ATOM      1  C   UNL     1       0.097  -0.638  -1.319  0.00  0.00    +0.030 A 
ATOM      2  C   UNL     1       0.040  -2.027  -1.249  0.00  0.00    +0.024 A 
ATOM      3  C   UNL     1      -0.153  -2.767  -2.393  0.00  0.00    +0.013 A 
ATOM      4  C   UNL     1      -0.291  -2.123  -3.625  0.00  0.00    +0.024 A 
ATOM      5  C   UNL     1      -0.234  -0.729  -3.692  0.00  0.00    +0.067 A 
ATOM      6  C   UNL     1      -0.046   0.007  -2.544  0.00  0.00    +0.036 A 
ENDROOT
BRANCH   4   7
ATOM      7  C   UNL     1      -0.498  -2.915  -4.854  0.00  0.00    +0.095 C 
ATOM      8  N   UNL     1       0.357  -2.804  -5.870  0.00  0.00    -0.387 N 
ATOM      9  N   UNL     1      -1.540  -3.740  -4.948  0.00  0.00    -0.345 N 
ATOM     10  H   UNL     1       1.162  -2.272  -5.771  0.00  0.00    +0.157 HD
ATOM     11  H   UNL     1      -2.163  -3.821  -4.209  0.00  0.00    +0.144 HD
ATOM     12  H   UNL     1      -1.676  -4.260  -5.756  0.00  0.00    +0.144 HD
ATOM     13  H   UNL     1       0.175  -3.255  -6.710  0.00  0.00    +0.157 HD
ENDBRANCH   4   7
BRANCH   5  14
ATOM     14  C   UNL     1      -0.383  -0.031  -5.019  0.00  0.00    +0.418 C 
ATOM     15  F   UNL     1      -0.429   1.353  -4.816  0.00  0.00    -0.166 F 
ATOM     16  F   UNL     1       0.708  -0.345  -5.837  0.00  0.00    -0.166 F 
ATOM     17  F   UNL     1      -1.565  -0.451  -5.637  0.00  0.00    -0.166 F 
ENDBRANCH   5  14
BRANCH   1  19
ATOM     18  C   UNL     1       0.346   1.570  -0.231  0.00  0.00    +0.129 C 
ATOM     19  N   UNL     1       0.292   0.108  -0.161  0.00  0.00    -0.327 N 
BRANCH  19  20
ATOM     20  C   UNL     1       0.443  -0.569   1.130  0.00  0.00    +0.160 C 
BRANCH  20  21
ATOM     21  C   UNL     1      -0.911  -0.739   1.769  0.00  0.00    +0.066 A 
ATOM     22  C   UNL     1      -1.621  -1.888   1.632  0.00  0.00    +0.071 A 
ATOM     23  S   UNL     1      -3.080  -1.489   2.581  0.00  0.00    -0.084 S 
ATOM     24  C   UNL     1      -2.637   0.068   3.042  0.00  0.00    +0.156 A 
ATOM     25  N   UNL     1      -1.458   0.218   2.492  0.00  0.00    -0.251 NA
ENDBRANCH  20  21
ENDBRANCH  19  20
ENDBRANCH   1  19
TORSDOF 5
