REMARK  Name = ZINC28937693
REMARK  11 active torsions:
REMARK  status: ('A' for Active; 'I' for Inactive)
REMARK    1  A    between atoms: C_1  and  C_2
REMARK    2  A    between atoms: C_6  and  C_32
REMARK    3  A    between atoms: C_7  and  N_8
REMARK    4  A    between atoms: C_9  and  C_11
REMARK    5  A    between atoms: C_11  and  N_12
REMARK    6  A    between atoms: C_18  and  C_20
REMARK    7  A    between atoms: C_20  and  S_21
REMARK    8  A    between atoms: S_21  and  C_22
REMARK    9  A    between atoms: C_24  and  C_31
REMARK   10  A    between atoms: C_25  and  C_27
REMARK   11  A    between atoms: C_27  and  C_28
REMARK                            x       y       z     vdW  Elec       q    Type
REMARK                         _______ _______ _______ _____ _____    ______ ____
ROOT
ATOM      1  N   UNL     1      -2.249  -2.825   0.315  0.00  0.00    +0.387 N 
ATOM      2  C   UNL     1      -2.628  -2.534   1.704  0.00  0.00    -0.059 C 
ATOM      3  C   UNL     1      -4.058  -3.024   1.953  0.00  0.00    +0.089 C 
ATOM      4  N   UNL     1      -4.140  -4.441   1.570  0.00  0.00    -0.304 N 
ATOM      5  C   UNL     1      -3.650  -4.832   0.240  0.00  0.00    +0.089 C 
ATOM      6  C   UNL     1      -2.235  -4.271   0.058  0.00  0.00    -0.059 C 
ATOM      7  C   UNL     1      -4.650  -5.358   2.416  0.00  0.00    +0.226 C 
ATOM      8  O   UNL     1      -4.710  -6.523   2.084  0.00  0.00    -0.275 OA
ATOM      9  H   UNL     1      -3.010  -2.376  -0.340  0.00  0.00    -0.081 HD
ENDROOT
BRANCH   1  10
ATOM     10  C   UNL     1      -0.952  -2.219  -0.015  0.00  0.00    +0.019 C 
BRANCH  10  12
ATOM     11  N   UNL     1      -0.002   0.053  -0.246  0.00  0.00    -0.287 N 
ATOM     12  C   UNL     1      -1.074  -0.718   0.025  0.00  0.00    +0.201 C 
ATOM     13  O   UNL     1      -2.137  -0.203   0.300  0.00  0.00    -0.278 OA
ATOM     14  H   UNL     1       0.940  -0.411  -0.575  0.00  0.00    +0.155 HD
BRANCH  11  21
ATOM     15  C   UNL     1      -2.021   1.426  -1.707  0.00  0.00    +0.045 C 
ATOM     16  C   UNL     1      -1.058   2.152  -0.804  0.00  0.00    -0.029 A 
ATOM     17  C   UNL     1      -1.143   3.523  -0.662  0.00  0.00    +0.005 A 
ATOM     18  C   UNL     1      -0.255   4.191   0.161  0.00  0.00    +0.001 A 
ATOM     19  C   UNL     1       0.717   3.489   0.850  0.00  0.00    +0.005 A 
ATOM     20  C   UNL     1       0.803   2.116   0.717  0.00  0.00    -0.029 A 
ATOM     21  C   UNL     1      -0.087   1.443  -0.110  0.00  0.00    +0.039 A 
ATOM     22  C   UNL     1       1.862   1.351   1.468  0.00  0.00    +0.045 C 
ENDBRANCH  11  21
ENDBRANCH  10  12
ENDBRANCH   1  10
BRANCH   7  23
ATOM     23  C   UNL     1      -5.147  -4.936   3.775  0.00  0.00    +0.172 C 
BRANCH  23  24
ATOM     24  S   UNL     1      -5.767  -6.383   4.667  0.00  0.00    -0.089 S 
BRANCH  24  25
ATOM     25  C   UNL     1      -6.269  -5.622   6.175  0.00  0.00    +0.135 A 
ATOM     26  N   UNL     1      -6.194  -4.352   6.527  0.00  0.00    -0.238 NA
ATOM     27  C   UNL     1      -6.624  -3.945   7.707  0.00  0.00    +0.050 A 
ATOM     28  C   UNL     1      -7.137  -4.863   8.559  0.00  0.00    +0.022 A 
ATOM     29  S   UNL     1      -6.981  -6.350   7.581  0.00  0.00    -0.065 S 
ATOM     30  C   UNL     1      -6.540  -2.492   8.098  0.00  0.00    +0.066 C 
BRANCH  28  31
ATOM     31  C   UNL     1      -7.688  -4.681   9.950  0.00  0.00    +0.139 C 
BRANCH  31  32
ATOM     32  C   UNL     1      -9.166  -4.399   9.873  0.00  0.00    +0.215 C 
ATOM     33  O   UNL     1      -9.718  -4.351   8.794  0.00  0.00    -0.276 OA
ATOM     34  N   UNL     1      -9.875  -4.201  11.002  0.00  0.00    -0.329 N 
ATOM     35  H   UNL     1     -10.954  -3.995  10.945  0.00  0.00    +0.145 HD
ATOM     36  H   UNL     1      -9.374  -4.245  11.980  0.00  0.00    +0.145 HD
ENDBRANCH  31  32
ENDBRANCH  28  31
ENDBRANCH  24  25
ENDBRANCH  23  24
ENDBRANCH   7  23
TORSDOF 8
