REMARK  Name = ZINC52094604
REMARK  5 active torsions:
REMARK  status: ('A' for Active; 'I' for Inactive)
REMARK    1  A    between atoms: C_1  and  C_2
REMARK    2  A    between atoms: C_2  and  N_3
REMARK    3  A    between atoms: N_3  and  C_4
REMARK    4  A    between atoms: C_4  and  C_6
REMARK    5  A    between atoms: C_4  and  C_19
REMARK                            x       y       z     vdW  Elec       q    Type
REMARK                         _______ _______ _______ _____ _____    ______ ____
ROOT
ATOM      1  C   UNL     1       1.638  -2.542  -2.241  0.00  0.00    -0.043 A 
ATOM      2  C   UNL     1       1.318  -2.469  -3.583  0.00  0.00    +0.031 A 
ATOM      3  C   UNL     1       2.172  -3.017  -4.527  0.00  0.00    +0.067 A 
ATOM      4  C   UNL     1       3.353  -3.641  -4.119  0.00  0.00    +0.068 A 
ATOM      5  C   UNL     1       3.666  -3.710  -2.771  0.00  0.00    +0.043 A 
ATOM      6  C   UNL     1       2.811  -3.156  -1.836  0.00  0.00    +0.022 A 
ATOM      7 BR   UNL     1       3.242  -3.243   0.003  0.00  0.00    -0.050 Br
ATOM      8  N   UNL     1       3.993  -4.087  -5.273  0.00  0.00    -0.306 N 
ATOM      9  H   UNL     1       4.839  -4.560  -5.306  0.00  0.00    +0.170 HD
ATOM     10  C   UNL     1       3.237  -3.749  -6.335  0.00  0.00    +0.325 A 
ATOM     11  O   UNL     1       3.510  -3.992  -7.495  0.00  0.00    -0.247 OA
ATOM     12  N   UNL     1       2.132  -3.103  -5.918  0.00  0.00    -0.306 N 
ATOM     13  H   UNL     1       1.427  -2.756  -6.487  0.00  0.00    +0.170 HD
ENDROOT
BRANCH   1  14
ATOM     14  C   UNL     1       0.710  -1.947  -1.215  0.00  0.00    -0.010 C 
BRANCH  14  15
ATOM     15  C   UNL     1      -0.358  -2.975  -0.835  0.00  0.00    +0.109 C 
ATOM     16  C   UNL     1       0.315  -4.206  -0.221  0.00  0.00    +0.030 C 
ATOM     17  C   UNL     1      -0.754  -5.255   0.102  0.00  0.00    +0.005 C 
ATOM     18  C   UNL     1      -1.526  -5.591  -1.178  0.00  0.00    +0.028 C 
ATOM     19  C   UNL     1      -2.127  -4.307  -1.755  0.00  0.00    +0.160 C 
ATOM     20  O   UNL     1      -1.083  -3.363  -2.003  0.00  0.00    -0.378 OA
ENDBRANCH  14  15
BRANCH  14  21
ATOM     21  N   UNL     1       0.062  -0.753  -1.774  0.00  0.00    +0.385 N 
ATOM     22  H   UNL     1      -0.530  -1.022  -2.546  0.00  0.00    -0.085 HD
ATOM     23  H   UNL     1       0.767  -0.109  -2.100  0.00  0.00    -0.085 HD
BRANCH  21  25
ATOM     24  C   UNL     1      -1.425   1.139  -1.319  0.00  0.00    -0.017 C 
ATOM     25  C   UNL     1      -0.750  -0.104  -0.736  0.00  0.00    -0.085 C 
ENDBRANCH  21  25
ENDBRANCH  14  21
ENDBRANCH   1  14
TORSDOF 4
