REMARK  Name = ZINC47154609
REMARK  6 active torsions:
REMARK  status: ('A' for Active; 'I' for Inactive)
REMARK    1  A    between atoms: C_1  and  C_2
REMARK    2  A    between atoms: C_10  and  C_11
REMARK    3  A    between atoms: C_14  and  C_17
REMARK    4  A    between atoms: C_17  and  C_18
REMARK    5  A    between atoms: C_17  and  C_19
REMARK    6  A    between atoms: C_17  and  C_20
REMARK                            x       y       z     vdW  Elec       q    Type
REMARK                         _______ _______ _______ _____ _____    ______ ____
ROOT
ATOM      1  C   UNL     1      -0.180   1.471  -0.263  0.00  0.00    +0.090 C 
ATOM      2  C   UNL     1      -0.162  -0.035  -0.210  0.00  0.00    +0.150 A 
ATOM      3  N   UNL     1      -0.450  -0.846  -1.230  0.00  0.00    -0.205 NA
ATOM      4  C   UNL     1      -0.337  -2.086  -0.840  0.00  0.00    +0.200 A 
ATOM      5  N   UNL     1       0.036  -2.118   0.473  0.00  0.00    -0.169 N 
ATOM      6  N   UNL     1       0.142  -0.747   0.837  0.00  0.00    -0.147 NA
ATOM      7  C   UNL     1       0.208  -3.305   1.069  0.00  0.00    +0.288 A 
ATOM      8  O   UNL     1       0.539  -3.381   2.238  0.00  0.00    -0.265 OA
ATOM      9  C   UNL     1      -0.018  -4.515   0.262  0.00  0.00    +0.082 A 
ATOM     10  C   UNL     1       0.084  -5.821   0.615  0.00  0.00    +0.028 C 
ATOM     11  S   UNL     1      -0.467  -3.794  -1.311  0.00  0.00    -0.044 S 
ENDROOT
BRANCH  10  12
ATOM     12  C   UNL     1      -0.000  -6.869  -0.412  0.00  0.00    -0.024 A 
ATOM     13  C   UNL     1       0.002  -6.526  -1.769  0.00  0.00    +0.008 A 
ATOM     14  C   UNL     1      -0.077  -7.516  -2.726  0.00  0.00    +0.005 A 
ATOM     15  C   UNL     1      -0.159  -8.845  -2.348  0.00  0.00    -0.042 A 
ATOM     16  C   UNL     1      -0.161  -9.192  -1.008  0.00  0.00    +0.005 A 
ATOM     17  C   UNL     1      -0.077  -8.216  -0.038  0.00  0.00    +0.008 A 
BRANCH  15  18
ATOM     18  C   UNL     1      -0.246  -9.919  -3.401  0.00  0.00    -0.013 C 
ATOM     19  C   UNL     1       0.996  -9.861  -4.293  0.00  0.00    +0.015 C 
ATOM     20  C   UNL     1      -0.325 -11.290  -2.726  0.00  0.00    +0.015 C 
ATOM     21  C   UNL     1      -1.497  -9.697  -4.253  0.00  0.00    +0.015 C 
ENDBRANCH  15  18
ENDBRANCH  10  12
TORSDOF 2
