REMARK  Name = ZINC39683082
REMARK  8 active torsions:
REMARK  status: ('A' for Active; 'I' for Inactive)
REMARK    1  A    between atoms: C_1  and  O_2
REMARK    2  A    between atoms: O_2  and  C_3
REMARK    3  A    between atoms: C_6  and  O_35
REMARK    4  A    between atoms: C_7  and  C_9
REMARK    5  A    between atoms: C_9  and  N_10
REMARK    6  A    between atoms: C_11  and  C_13
REMARK    7  A    between atoms: C_24  and  C_26
REMARK    8  A    between atoms: O_35  and  C_36
REMARK                            x       y       z     vdW  Elec       q    Type
REMARK                         _______ _______ _______ _____ _____    ______ ____
ROOT
ATOM      1  C   UNL     1      -3.180  -6.458  -2.996  0.00  0.00    +0.100 C 
ATOM      2  C   UNL     1      -2.088  -5.958  -3.968  0.00  0.00    +0.121 C 
ATOM      3  N   UNL     1      -1.108  -7.068  -4.032  0.00  0.00    -0.296 N 
ATOM      4  C   UNL     1      -1.940  -8.295  -4.036  0.00  0.00    +0.115 C 
ATOM      5  C   UNL     1      -3.083  -7.992  -3.046  0.00  0.00    -0.004 C 
ATOM      6  C   UNL     1      -4.393  -8.588  -3.552  0.00  0.00    -0.010 C 
ATOM      7  C   UNL     1      -4.292 -10.116  -3.538  0.00  0.00    -0.082 C 
ATOM      8  N   UNL     1      -4.016 -10.578  -2.172  0.00  0.00    +0.379 N 
ATOM      9  C   UNL     1      -2.710 -10.075  -1.728  0.00  0.00    -0.082 C 
ATOM     10  C   UNL     1      -2.744  -8.545  -1.665  0.00  0.00    -0.010 C 
ATOM     11  C   UNL     1       0.236  -6.982  -4.077  0.00  0.00    +0.248 C 
ATOM     12  O   UNL     1       0.780  -5.899  -3.969  0.00  0.00    -0.270 OA
ATOM     13  H   UNL     1      -4.734 -10.237  -1.551  0.00  0.00    -0.086 HD
ATOM     14  H   UNL     1      -4.010 -11.586  -2.154  0.00  0.00    -0.086 HD
ENDROOT
BRANCH  11  15
ATOM     15  C   UNL     1       1.044  -8.194  -4.257  0.00  0.00    +0.052 A 
ATOM     16  C   UNL     1       0.606  -9.219  -5.033  0.00  0.00    +0.059 A 
ATOM     17  S   UNL     1       1.814 -10.380  -4.963  0.00  0.00    -0.096 S 
ATOM     18  C   UNL     1       2.970  -9.566  -3.897  0.00  0.00    +0.020 A 
ATOM     19  C   UNL     1       2.351  -8.334  -3.610  0.00  0.00    +0.001 A 
ATOM     20  C   UNL     1       3.045  -7.443  -2.770  0.00  0.00    +0.010 A 
ATOM     21  C   UNL     1       4.276  -7.780  -2.266  0.00  0.00    +0.001 A 
ATOM     22  C   UNL     1       4.868  -8.998  -2.568  0.00  0.00    +0.001 A 
ATOM     23  C   UNL     1       4.205  -9.896  -3.381  0.00  0.00    +0.015 A 
ENDBRANCH  11  15
BRANCH   1  25
ATOM     24  N   UNL     1      -3.931  -5.724  -0.756  0.00  0.00    -0.311 N 
ATOM     25  C   UNL     1      -2.907  -5.960  -1.599  0.00  0.00    +0.218 C 
ATOM     26  O   UNL     1      -1.766  -5.772  -1.235  0.00  0.00    -0.275 OA
ATOM     27  H   UNL     1      -4.844  -5.874  -1.047  0.00  0.00    +0.149 HD
BRANCH  24  28
ATOM     28  C   UNL     1      -3.666  -5.240   0.601  0.00  0.00    +0.143 C 
BRANCH  28  33
ATOM     29  C   UNL     1      -6.724  -3.630   2.127  0.00  0.00    +0.121 A 
ATOM     30  C   UNL     1      -7.369  -4.727   2.681  0.00  0.00    +0.049 A 
ATOM     31  C   UNL     1      -6.814  -5.986   2.562  0.00  0.00    +0.049 A 
ATOM     32  C   UNL     1      -5.614  -6.154   1.887  0.00  0.00    +0.125 A 
ATOM     33  C   UNL     1      -4.970  -5.058   1.334  0.00  0.00    +0.015 A 
ATOM     34  C   UNL     1      -5.527  -3.799   1.449  0.00  0.00    +0.054 A 
BRANCH  29  36
ATOM     35  C   UNL     1      -8.505  -2.290   2.958  0.00  0.00    +0.277 C 
ATOM     36  O   UNL     1      -7.270  -2.390   2.246  0.00  0.00    -0.495 OA
ENDBRANCH  29  36
BRANCH  32  37
ATOM     37  O   UNL     1      -5.067  -7.394   1.770  0.00  0.00    -0.495 OA
ATOM     38  C   UNL     1      -5.784  -8.477   2.365  0.00  0.00    +0.277 C 
ENDBRANCH  32  37
ENDBRANCH  28  33
ENDBRANCH  24  28
ENDBRANCH   1  25
TORSDOF 6
