REMARK  Name = ZINC13097600
REMARK  10 active torsions:
REMARK  status: ('A' for Active; 'I' for Inactive)
REMARK    1  A    between atoms: C_1  and  C_2
REMARK    2  A    between atoms: C_5  and  N_8
REMARK    3  A    between atoms: C_9  and  C_27
REMARK    4  A    between atoms: N_11  and  C_14
REMARK    5  A    between atoms: C_14  and  N_60
REMARK    6  A    between atoms: C_15  and  N_60
REMARK    7  A    between atoms: C_16  and  C_17
REMARK    8  A    between atoms: C_16  and  N_60
REMARK    9  A    between atoms: N_19  and  C_20
REMARK   10  A    between atoms: C_31  and  C_33
REMARK                            x       y       z     vdW  Elec       q    Type
REMARK                         _______ _______ _______ _____ _____    ______ ____
ROOT
ATOM      1  N   UNL     1      -1.159   2.221  -0.062  0.00  0.00    -0.271 N 
ATOM      2  C   UNL     1      -1.728   2.808   1.053  0.00  0.00    +0.167 A 
ATOM      3  N   UNL     1      -2.942   3.176   0.753  0.00  0.00    -0.152 NA
ATOM      4  N   UNL     1      -3.184   2.827  -0.583  0.00  0.00    -0.257 N 
ATOM      5  C   UNL     1      -2.065   2.245  -1.060  0.00  0.00    +0.181 A 
ATOM      6  S   UNL     1      -1.837   1.642  -2.646  0.00  0.00    -0.011 S 
ENDROOT
BRANCH   1  11
ATOM      7  C   UNL     1       4.092   0.099  -0.405  0.00  0.00    +0.044 C 
ATOM      8  C   UNL     1       2.698   0.662  -0.312  0.00  0.00    -0.050 A 
ATOM      9  C   UNL     1       1.607  -0.188  -0.338  0.00  0.00    +0.005 A 
ATOM     10  C   UNL     1       0.328   0.326  -0.253  0.00  0.00    +0.026 A 
ATOM     11  C   UNL     1       0.137   1.697  -0.142  0.00  0.00    +0.050 A 
ATOM     12  C   UNL     1       1.235   2.547  -0.116  0.00  0.00    +0.026 A 
ATOM     13  C   UNL     1       2.511   2.028  -0.201  0.00  0.00    +0.005 A 
ENDBRANCH   1  11
BRANCH   2  14
ATOM     14  C   UNL     1      -1.070   2.988   2.366  0.00  0.00    +0.020 A 
ATOM     15  C   UNL     1      -1.576   3.910   3.283  0.00  0.00    +0.011 A 
ATOM     16  C   UNL     1      -0.958   4.073   4.506  0.00  0.00    +0.001 A 
ATOM     17  C   UNL     1       0.161   3.324   4.824  0.00  0.00    +0.003 A 
ATOM     18  C   UNL     1       0.668   2.409   3.919  0.00  0.00    -0.050 A 
ATOM     19  C   UNL     1       0.056   2.233   2.695  0.00  0.00    +0.015 A 
ATOM     20  C   UNL     1       1.887   1.597   4.274  0.00  0.00    +0.044 C 
ENDBRANCH   2  14
BRANCH   4  21
ATOM     21  C   UNL     1      -4.425   3.058  -1.327  0.00  0.00    +0.072 C 
BRANCH  21  23
ATOM     22  C   UNL     1      -3.325   4.394  -3.021  0.00  0.00    -0.093 C 
ATOM     23  N   UNL     1      -4.357   4.391  -1.963  0.00  0.00    +0.397 N 
ATOM     24  H   UNL     1      -4.108   5.088  -1.252  0.00  0.00    -0.079 HD
BRANCH  23  25
ATOM     25  C   UNL     1      -5.672   4.742  -2.540  0.00  0.00    +0.021 C 
BRANCH  25  26
ATOM     26  C   UNL     1      -5.640   6.181  -2.984  0.00  0.00    +0.201 C 
ATOM     27  O   UNL     1      -4.627   6.835  -2.849  0.00  0.00    -0.278 OA
ATOM     28  N   UNL     1      -6.736   6.743  -3.530  0.00  0.00    -0.287 N 
ATOM     29  H   UNL     1      -7.567   6.244  -3.572  0.00  0.00    +0.155 HD
BRANCH  28  30
ATOM     30  C   UNL     1      -6.676   8.047  -4.037  0.00  0.00    +0.033 A 
ATOM     31  C   UNL     1      -5.885   9.001  -3.410  0.00  0.00    +0.025 A 
ATOM     32  C   UNL     1      -5.824  10.285  -3.915  0.00  0.00    +0.022 A 
ATOM     33  C   UNL     1      -6.559  10.624  -5.037  0.00  0.00    +0.041 A 
ATOM     34  C   UNL     1      -7.352   9.677  -5.660  0.00  0.00    +0.022 A 
ATOM     35  C   UNL     1      -7.413   8.390  -5.163  0.00  0.00    +0.025 A 
ATOM     36 CL   UNL     1      -6.484  12.241  -5.666  0.00  0.00    -0.084 Cl
ENDBRANCH  28  30
ENDBRANCH  25  26
ENDBRANCH  23  25
ENDBRANCH  21  23
ENDBRANCH   4  21
TORSDOF 7
