REMARK  Name = ZINC61951436
REMARK  7 active torsions:
REMARK  status: ('A' for Active; 'I' for Inactive)
REMARK    1  A    between atoms: C_1  and  N_2
REMARK    2  A    between atoms: N_2  and  C_3
REMARK    3  A    between atoms: N_2  and  C_13
REMARK    4  A    between atoms: C_3  and  C_4
REMARK    5  A    between atoms: C_7  and  O_11
REMARK    6  A    between atoms: O_11  and  C_12
REMARK    7  A    between atoms: C_17  and  C_19
REMARK                            x       y       z     vdW  Elec       q    Type
REMARK                         _______ _______ _______ _____ _____    ______ ____
ROOT
ATOM      1  C   UNL     1       0.000  -0.696  -1.212  0.00  0.00    +0.030 A 
ATOM      2  C   UNL     1       0.013  -2.086  -1.219  0.00  0.00    +0.023 A 
ATOM      3  C   UNL     1       0.011  -2.775  -2.417  0.00  0.00    +0.002 A 
ATOM      4  C   UNL     1      -0.004  -2.087  -3.614  0.00  0.00    +0.011 A 
ATOM      5  C   UNL     1      -0.018  -0.692  -3.617  0.00  0.00    +0.014 A 
ATOM      6  C   UNL     1      -0.021   0.004  -2.409  0.00  0.00    +0.034 A 
ENDROOT
BRANCH   5   7
ATOM      7  C   UNL     1      -0.034   0.048  -4.899  0.00  0.00    +0.094 C 
ATOM      8  N   UNL     1       0.540  -0.479  -5.979  0.00  0.00    -0.387 N 
ATOM      9  N   UNL     1      -0.623   1.240  -4.973  0.00  0.00    -0.345 N 
ATOM     10  H   UNL     1       0.969  -1.347  -5.925  0.00  0.00    +0.157 HD
ATOM     11  H   UNL     1      -1.041   1.623  -4.186  0.00  0.00    +0.144 HD
ATOM     12  H   UNL     1      -0.633   1.724  -5.813  0.00  0.00    +0.144 HD
ATOM     13  H   UNL     1       0.530   0.006  -6.819  0.00  0.00    +0.157 HD
ENDBRANCH   5   7
BRANCH   1  15
ATOM     14  C   UNL     1      -0.018   1.461   0.010  0.00  0.00    +0.129 C 
ATOM     15  N   UNL     1       0.002  -0.004   0.002  0.00  0.00    -0.329 N 
BRANCH  15  16
ATOM     16  C   UNL     1       0.024  -0.743   1.267  0.00  0.00    +0.140 C 
BRANCH  16  17
ATOM     17  C   UNL     1      -1.389  -1.016   1.714  0.00  0.00    -0.029 A 
ATOM     18  C   UNL     1      -2.046  -0.104   2.519  0.00  0.00    +0.009 A 
ATOM     19  C   UNL     1      -3.342  -0.351   2.930  0.00  0.00    +0.047 A 
ATOM     20  C   UNL     1      -3.983  -1.516   2.535  0.00  0.00    +0.134 A 
ATOM     21  C   UNL     1      -3.322  -2.430   1.727  0.00  0.00    +0.060 A 
ATOM     22  C   UNL     1      -2.028  -2.175   1.314  0.00  0.00    +0.024 A 
ATOM     23 BR   UNL     1      -4.192  -4.020   1.187  0.00  0.00    -0.047 Br
BRANCH  20  24
ATOM     24  O   UNL     1      -5.257  -1.762   2.940  0.00  0.00    -0.494 OA
ATOM     25  C   UNL     1      -5.876  -0.778   3.771  0.00  0.00    +0.277 C 
ENDBRANCH  20  24
ENDBRANCH  16  17
ENDBRANCH  15  16
ENDBRANCH   1  15
TORSDOF 5
