REMARK  Name = ZINC45356373
REMARK  10 active torsions:
REMARK  status: ('A' for Active; 'I' for Inactive)
REMARK    1  A    between atoms: C_1  and  C_2
REMARK    2  A    between atoms: C_5  and  N_9
REMARK    3  A    between atoms: C_10  and  C_12
REMARK    4  A    between atoms: C_12  and  N_13
REMARK    5  A    between atoms: N_13  and  C_14
REMARK    6  A    between atoms: N_13  and  C_15
REMARK    7  A    between atoms: C_15  and  C_17
REMARK    8  A    between atoms: C_15  and  C_18
REMARK    9  A    between atoms: C_21  and  S_24
REMARK   10  A    between atoms: S_24  and  N_27
REMARK                            x       y       z     vdW  Elec       q    Type
REMARK                         _______ _______ _______ _____ _____    ______ ____
ROOT
ATOM      1  N   UNL     1       0.417  -6.851   2.494  0.00  0.00    +0.388 N 
ATOM      2  C   UNL     1      -0.834  -6.580   3.214  0.00  0.00    -0.095 C 
ATOM      3  H   UNL     1       1.181  -6.385   2.959  0.00  0.00    -0.081 HD
ENDROOT
BRANCH   1   4
ATOM      4  C   UNL     1       0.667  -8.299   2.472  0.00  0.00    -0.041 C 
ATOM      5  C   UNL     1       1.970  -8.581   1.721  0.00  0.00    -0.008 C 
BRANCH   4   6
ATOM      6  C   UNL     1       0.780  -8.810   3.885  0.00  0.00    -0.061 A 
ATOM      7  C   UNL     1       1.445  -8.063   4.839  0.00  0.00    +0.004 A 
ATOM      8  C   UNL     1       1.550  -8.532   6.135  0.00  0.00    +0.029 A 
ATOM      9  C   UNL     1       0.989  -9.748   6.477  0.00  0.00    +0.105 A 
ATOM     10  C   UNL     1       0.323 -10.495   5.523  0.00  0.00    +0.029 A 
ATOM     11  C   UNL     1       0.215 -10.024   4.228  0.00  0.00    +0.004 A 
BRANCH   9  12
ATOM     12  S   UNL     1       1.123 -10.347   8.129  0.00  0.00    +0.056 S 
ATOM     13  O   UNL     1       0.986 -11.760   8.061  0.00  0.00    -0.153 OA
ATOM     14  O   UNL     1       2.263  -9.718   8.697  0.00  0.00    -0.153 OA
BRANCH  12  15
ATOM     15  N   UNL     1      -0.193  -9.784   8.962  0.00  0.00    -0.204 NA
ATOM     16  H   UNL     1      -0.852  -9.232   8.512  0.00  0.00    +0.144 HD
ATOM     17  H   UNL     1      -0.305 -10.006   9.899  0.00  0.00    +0.144 HD
ENDBRANCH  12  15
ENDBRANCH   9  12
ENDBRANCH   4   6
ENDBRANCH   1   4
BRANCH   1  18
ATOM     18  C   UNL     1       0.306  -6.353   1.116  0.00  0.00    +0.019 C 
BRANCH  18  20
ATOM     19  N   UNL     1       0.057  -4.171  -0.023  0.00  0.00    -0.287 N 
ATOM     20  C   UNL     1       0.174  -4.852   1.134  0.00  0.00    +0.201 C 
ATOM     21  O   UNL     1       0.172  -4.256   2.191  0.00  0.00    -0.278 OA
ATOM     22  H   UNL     1      -0.018  -4.652  -0.863  0.00  0.00    +0.155 HD
BRANCH  19  27
ATOM     23  C   UNL     1       0.013   1.503   0.016  0.00  0.00    +0.047 C 
ATOM     24  C   UNL     1       0.024  -0.004   0.005  0.00  0.00    -0.015 A 
ATOM     25  C   UNL     1       0.778  -0.695   0.935  0.00  0.00    +0.008 A 
ATOM     26  C   UNL     1       0.791  -2.076   0.928  0.00  0.00    +0.024 A 
ATOM     27  C   UNL     1       0.045  -2.772  -0.014  0.00  0.00    +0.036 A 
ATOM     28  C   UNL     1      -0.713  -2.078  -0.947  0.00  0.00    +0.062 A 
ATOM     29  C   UNL     1      -0.726  -0.694  -0.932  0.00  0.00    +0.128 A 
ATOM     30  F   UNL     1      -1.467  -0.016  -1.836  0.00  0.00    -0.205 F 
ENDBRANCH  19  27
ENDBRANCH  18  20
ENDBRANCH   1  18
TORSDOF 7
