REMARK  Name = ZINC25680295
REMARK  8 active torsions:
REMARK  status: ('A' for Active; 'I' for Inactive)
REMARK    1  A    between atoms: C_1  and  C_2
REMARK    2  A    between atoms: C_2  and  C_4
REMARK    3  A    between atoms: C_2  and  N_17
REMARK    4  A    between atoms: N_6  and  C_7
REMARK    5  A    between atoms: C_11  and  S_13
REMARK    6  A    between atoms: S_13  and  N_16
REMARK    7  A    between atoms: C_20  and  C_23
REMARK    8  A    between atoms: C_26  and  O_29
REMARK                            x       y       z     vdW  Elec       q    Type
REMARK                         _______ _______ _______ _____ _____    ______ ____
ROOT
ATOM      1  C   UNL     1      -0.122   8.131  -0.013  0.00  0.00    -0.004 C 
ATOM      2  C   UNL     1       1.351   7.767   0.182  0.00  0.00    +0.017 C 
ENDROOT
BRANCH   2   3
ATOM      3  N   UNL     1       1.499   6.306   0.178  0.00  0.00    +0.390 N 
ATOM      4  C   UNL     1       1.241   5.753  -1.162  0.00  0.00    -0.073 C 
ATOM      5  C   UNL     1       1.719   4.297  -1.184  0.00  0.00    +0.017 C 
ATOM      6  C   UNL     1       1.165   3.566   0.006  0.00  0.00    -0.048 C 
ATOM      7  C   UNL     1       0.675   4.187   1.056  0.00  0.00    -0.041 C 
ATOM      8  C   UNL     1       0.607   5.684   1.165  0.00  0.00    -0.050 C 
ATOM      9  H   UNL     1       2.538   6.076   0.458  0.00  0.00    -0.080 HD
BRANCH   6  10
ATOM     10  C   UNL     1       1.177   2.088  -0.001  0.00  0.00    -0.022 A 
ATOM     11  C   UNL     1      -0.025   1.378  -0.001  0.00  0.00    +0.012 A 
ATOM     12  C   UNL     1      -0.009   0.000  -0.009  0.00  0.00    +0.046 A 
ATOM     13  C   UNL     1       1.200  -0.683  -0.015  0.00  0.00    +0.117 A 
ATOM     14  C   UNL     1       2.398   0.020  -0.015  0.00  0.00    +0.046 A 
ATOM     15  C   UNL     1       2.390   1.398  -0.007  0.00  0.00    +0.012 A 
BRANCH  13  16
ATOM     16  O   UNL     1       1.211  -2.041  -0.022  0.00  0.00    -0.507 OA
ATOM     17  H   UNL     1       2.168  -2.583  -0.028  0.00  0.00    +0.292 HD
ENDBRANCH  13  16
ENDBRANCH   6  10
ENDBRANCH   2   3
BRANCH   2  18
ATOM     18  C   UNL     1       1.834   8.317   1.499  0.00  0.00    +0.203 C 
ATOM     19  O   UNL     1       2.260   7.566   2.351  0.00  0.00    -0.277 OA
ATOM     20  N   UNL     1       1.793   9.644   1.731  0.00  0.00    -0.287 N 
ATOM     21  H   UNL     1       1.479  10.333   0.932  0.00  0.00    +0.155 HD
BRANCH  20  22
ATOM     22  C   UNL     1       2.150  10.146   2.987  0.00  0.00    +0.035 A 
ATOM     23  C   UNL     1       3.163   9.539   3.718  0.00  0.00    +0.023 A 
ATOM     24  C   UNL     1       3.513  10.037   4.957  0.00  0.00    +0.004 A 
ATOM     25  C   UNL     1       2.856  11.139   5.471  0.00  0.00    +0.028 A 
ATOM     26  C   UNL     1       1.847  11.747   4.747  0.00  0.00    +0.107 A 
ATOM     27  C   UNL     1       1.497  11.257   3.504  0.00  0.00    +0.051 A 
BRANCH  26  28
ATOM     28  S   UNL     1       1.014  13.152   5.407  0.00  0.00    +0.056 S 
ATOM     29  O   UNL     1      -0.258  13.204   4.774  0.00  0.00    -0.153 OA
ATOM     30  O   UNL     1       1.161  13.086   6.818  0.00  0.00    -0.153 OA
BRANCH  28  31
ATOM     31  N   UNL     1       1.846  14.494   4.907  0.00  0.00    -0.204 NA
ATOM     32  H   UNL     1       1.355  15.397   5.299  0.00  0.00    +0.144 HD
ATOM     33  H   UNL     1       1.856  14.531   3.808  0.00  0.00    +0.144 HD
ENDBRANCH  28  31
ENDBRANCH  26  28
ENDBRANCH  20  22
ENDBRANCH   2  18
TORSDOF 7
