REMARK  Name = ZINC20556692
REMARK  8 active torsions:
REMARK  status: ('A' for Active; 'I' for Inactive)
REMARK    1  A    between atoms: C_1  and  C_2
REMARK    2  A    between atoms: C_2  and  C_3
REMARK    3  A    between atoms: C_2  and  C_4
REMARK    4  A    between atoms: C_9  and  N_10
REMARK    5  A    between atoms: N_10  and  S_11
REMARK    6  A    between atoms: S_11  and  C_14
REMARK    7  A    between atoms: C_17  and  C_20
REMARK    8  A    between atoms: C_20  and  N_21
REMARK                            x       y       z     vdW  Elec       q    Type
REMARK                         _______ _______ _______ _____ _____    ______ ____
ROOT
ATOM      1  S   UNL     1      -2.868   3.118   5.034  0.00  0.00    +0.072 S 
ATOM      2  O   UNL     1      -2.729   4.527   5.149  0.00  0.00    -0.150 OA
ATOM      3  O   UNL     1      -4.135   2.475   5.040  0.00  0.00    -0.150 OA
ENDROOT
BRANCH   1   4
ATOM      4  C   UNL     1      -2.074   2.654   3.531  0.00  0.00    +0.109 A 
ATOM      5  C   UNL     1      -2.439   1.486   2.889  0.00  0.00    +0.029 A 
ATOM      6  C   UNL     1      -1.817   1.122   1.709  0.00  0.00    +0.003 A 
ATOM      7  C   UNL     1      -0.830   1.928   1.171  0.00  0.00    -0.065 A 
ATOM      8  C   UNL     1      -0.462   3.094   1.817  0.00  0.00    +0.003 A 
ATOM      9  C   UNL     1      -1.087   3.459   2.994  0.00  0.00    +0.029 A 
BRANCH   7  10
ATOM     10  C   UNL     1      -0.152   1.532  -0.115  0.00  0.00    -0.051 C 
BRANCH  10  11
ATOM     11  N   UNL     1      -0.890   2.097  -1.252  0.00  0.00    +0.381 N 
ATOM     12  H   UNL     1      -0.396   1.808  -2.191  0.00  0.00    -0.090 HD
ATOM     13  H   UNL     1      -0.908   3.194  -1.169  0.00  0.00    -0.090 HD
ATOM     14  H   UNL     1      -1.921   1.713  -1.247  0.00  0.00    -0.090 HD
ENDBRANCH  10  11
ENDBRANCH   7  10
ENDBRANCH   1   4
BRANCH   1  15
ATOM     15  N   UNL     1      -1.995   2.453   6.274  0.00  0.00    -0.216 N 
ATOM     16  H   UNL     1      -2.471   1.737   6.960  0.00  0.00    +0.174 HD
BRANCH  15  22
ATOM     17  C   UNL     1       0.261   1.854   6.889  0.00  0.00    -0.022 A 
ATOM     18  C   UNL     1       1.586   2.202   7.061  0.00  0.00    +0.006 A 
ATOM     19  C   UNL     1       2.003   3.494   6.796  0.00  0.00    +0.000 A 
ATOM     20  C   UNL     1       1.095   4.441   6.359  0.00  0.00    +0.002 A 
ATOM     21  C   UNL     1      -0.231   4.098   6.181  0.00  0.00    +0.025 A 
ATOM     22  C   UNL     1      -0.654   2.803   6.450  0.00  0.00    +0.051 A 
BRANCH  17  24
ATOM     23  C   UNL     1       0.566  -0.529   6.273  0.00  0.00    +0.012 C 
ATOM     24  C   UNL     1      -0.192   0.446   7.176  0.00  0.00    +0.015 C 
ATOM     25  C   UNL     1       0.091   0.108   8.641  0.00  0.00    +0.012 C 
ENDBRANCH  17  24
ENDBRANCH  15  22
ENDBRANCH   1  15
TORSDOF 6
