REMARK  Name = ZINC19969148
REMARK  6 active torsions:
REMARK  status: ('A' for Active; 'I' for Inactive)
REMARK    1  A    between atoms: C_1  and  C_2
REMARK    2  A    between atoms: C_4  and  C_12
REMARK    3  A    between atoms: C_6  and  N_9
REMARK    4  A    between atoms: C_7  and  C_8
REMARK    5  A    between atoms: C_12  and  C_14
REMARK    6  A    between atoms: C_12  and  N_21
REMARK                            x       y       z     vdW  Elec       q    Type
REMARK                         _______ _______ _______ _____ _____    ______ ____
ROOT
ATOM      1  C   UNL     1      -2.595   4.199  -0.046  0.00  0.00    -0.012 C 
ENDROOT
BRANCH   1   5
ATOM      2  C   UNL     1       2.397   4.399   0.243  0.00  0.00    +0.044 C 
ATOM      3  C   UNL     1       1.128   3.595   0.125  0.00  0.00    -0.045 A 
ATOM      4  C   UNL     1      -0.096   4.237   0.095  0.00  0.00    +0.006 A 
ATOM      5  C   UNL     1      -1.261   3.500  -0.013  0.00  0.00    -0.055 A 
ATOM      6  C   UNL     1      -1.201   2.121  -0.095  0.00  0.00    +0.035 A 
ATOM      7  C   UNL     1       0.023   1.479  -0.060  0.00  0.00    +0.130 A 
ATOM      8  C   UNL     1       1.188   2.217   0.047  0.00  0.00    -0.017 A 
ATOM      9  C   UNL     1       2.522   1.517   0.080  0.00  0.00    +0.046 C 
BRANCH   7  10
ATOM     10  N   UNL     1       0.087   0.003  -0.143  0.00  0.00    +0.057 N 
ATOM     11  O   UNL     1       0.989  -0.534  -0.762  0.00  0.00    -0.126 OA
ATOM     12  O   UNL     1      -0.762  -0.675   0.407  0.00  0.00    -0.126 OA
ENDBRANCH   7  10
ENDBRANCH   1   5
BRANCH   1  13
ATOM     13  C   UNL     1      -3.076   4.297  -1.470  0.00  0.00    -0.045 A 
ATOM     14  C   UNL     1      -4.016   3.401  -1.945  0.00  0.00    +0.003 A 
ATOM     15  C   UNL     1      -4.458   3.490  -3.252  0.00  0.00    +0.000 A 
ATOM     16  C   UNL     1      -3.961   4.475  -4.084  0.00  0.00    +0.001 A 
ATOM     17  C   UNL     1      -3.021   5.371  -3.610  0.00  0.00    +0.014 A 
ATOM     18  C   UNL     1      -2.583   5.285  -2.301  0.00  0.00    +0.015 A 
ATOM     19  I   UNL     1      -1.165   6.649  -1.580  0.00  0.00    -0.044 I 
ENDBRANCH   1  13
BRANCH   1  20
ATOM     20  N   UNL     1      -3.567   3.437   0.749  0.00  0.00    +0.385 N 
ATOM     21  H   UNL     1      -4.541   3.947   0.725  0.00  0.00    -0.089 HD
ATOM     22  H   UNL     1      -3.216   3.366   1.789  0.00  0.00    -0.089 HD
ATOM     23  H   UNL     1      -3.673   2.426   0.328  0.00  0.00    -0.089 HD
ENDBRANCH   1  20
TORSDOF 4
