REMARK  Name = ZINC45694875
REMARK  10 active torsions:
REMARK  status: ('A' for Active; 'I' for Inactive)
REMARK    1  A    between atoms: C_1  and  N_2
REMARK    2  A    between atoms: N_2  and  C_3
REMARK    3  A    between atoms: N_2  and  C_4
REMARK    4  A    between atoms: C_4  and  C_5
REMARK    5  A    between atoms: C_9  and  C_11
REMARK    6  A    between atoms: C_11  and  N_12
REMARK    7  A    between atoms: N_15  and  C_16
REMARK    8  A    between atoms: C_21  and  S_22
REMARK    9  A    between atoms: S_22  and  C_23
REMARK   10  A    between atoms: C_23  and  C_24
REMARK                            x       y       z     vdW  Elec       q    Type
REMARK                         _______ _______ _______ _____ _____    ______ ____
ROOT
ATOM      1  N   UNL     1      -1.440  -1.153  -5.565  0.00  0.00    -0.295 N 
ATOM      2  C   UNL     1      -1.181  -1.849  -6.690  0.00  0.00    +0.304 C 
ATOM      3  O   UNL     1      -1.922  -2.751  -7.031  0.00  0.00    -0.252 OA
ATOM      4  N   UNL     1      -0.102  -1.544  -7.438  0.00  0.00    -0.268 N 
ATOM      5  H   UNL     1      -0.849  -0.433  -5.293  0.00  0.00    +0.151 HD
ATOM      6  H   UNL     1       0.452  -0.784  -7.202  0.00  0.00    +0.156 HD
ENDROOT
BRANCH   4   7
ATOM      7  C   UNL     1       0.220  -2.327  -8.556  0.00  0.00    +0.048 A 
ATOM      8  C   UNL     1      -0.788  -2.887  -9.326  0.00  0.00    +0.024 A 
ATOM      9  C   UNL     1      -0.469  -3.659 -10.428  0.00  0.00    +0.002 A 
ATOM     10  C   UNL     1       0.855  -3.874 -10.766  0.00  0.00    +0.001 A 
ATOM     11  C   UNL     1       1.866  -3.320 -10.005  0.00  0.00    +0.016 A 
ATOM     12  C   UNL     1       1.555  -2.539  -8.900  0.00  0.00    +0.030 A 
BRANCH  12  13
ATOM     13  S   UNL     1       2.842  -1.824  -7.932  0.00  0.00    -0.114 S 
BRANCH  13  14
ATOM     14  C   UNL     1       4.364  -2.370  -8.754  0.00  0.00    +0.169 C 
BRANCH  14  15
ATOM     15  C   UNL     1       5.558  -1.820  -8.017  0.00  0.00    +0.221 C 
ATOM     16  O   UNL     1       5.398  -1.129  -7.033  0.00  0.00    -0.275 OA
ATOM     17  N   UNL     1       6.804  -2.097  -8.450  0.00  0.00    -0.329 N 
ATOM     18  H   UNL     1       6.932  -2.650  -9.236  0.00  0.00    +0.145 HD
ATOM     19  H   UNL     1       7.572  -1.743  -7.975  0.00  0.00    +0.145 HD
ENDBRANCH  14  15
ENDBRANCH  13  14
ENDBRANCH  12  13
ENDBRANCH   4   7
BRANCH   1  20
ATOM     20  C   UNL     1      -2.613  -1.484  -4.753  0.00  0.00    +0.141 C 
BRANCH  20  25
ATOM     21  C   UNL     1      -2.100  -0.080  -1.286  0.00  0.00    -0.064 A 
ATOM     22  C   UNL     1      -2.784   1.119  -1.370  0.00  0.00    +0.002 A 
ATOM     23  C   UNL     1      -3.412   1.475  -2.548  0.00  0.00    +0.001 A 
ATOM     24  C   UNL     1      -3.357   0.632  -3.643  0.00  0.00    +0.005 A 
ATOM     25  C   UNL     1      -2.673  -0.566  -3.559  0.00  0.00    -0.030 A 
ATOM     26  C   UNL     1      -2.041  -0.920  -2.382  0.00  0.00    +0.007 A 
BRANCH  21  27
ATOM     27  C   UNL     1      -1.416  -0.469  -0.001  0.00  0.00    -0.044 C 
BRANCH  27  29
ATOM     28  C   UNL     1      -0.059   1.509  -0.008  0.00  0.00    -0.096 C 
ATOM     29  N   UNL     1      -0.038   0.041  -0.007  0.00  0.00    +0.379 N 
ATOM     30  C   UNL     1       0.667  -0.439   1.190  0.00  0.00    -0.096 C 
ATOM     31  H   UNL     1       0.439  -0.289  -0.833  0.00  0.00    -0.082 HD
ENDBRANCH  27  29
ENDBRANCH  21  27
ENDBRANCH  20  25
ENDBRANCH   1  20
TORSDOF 8
