REMARK  Name = ZINC56606967
REMARK  9 active torsions:
REMARK  status: ('A' for Active; 'I' for Inactive)
REMARK    1  A    between atoms: C_1  and  C_2
REMARK    2  A    between atoms: C_5  and  C_29
REMARK    3  A    between atoms: N_8  and  C_10
REMARK    4  A    between atoms: C_10  and  C_11
REMARK    5  A    between atoms: C_11  and  C_13
REMARK    6  A    between atoms: C_11  and  N_14
REMARK    7  A    between atoms: N_17  and  C_18
REMARK    8  A    between atoms: C_22  and  N_24
REMARK    9  A    between atoms: C_25  and  C_27
REMARK                            x       y       z     vdW  Elec       q    Type
REMARK                         _______ _______ _______ _____ _____    ______ ____
ROOT
ATOM      1  N   UNL     1       2.144   1.697   3.486  0.00  0.00    -0.298 N 
ATOM      2  C   UNL     1       1.201   2.431   4.109  0.00  0.00    +0.304 C 
ATOM      3  O   UNL     1       0.379   1.887   4.820  0.00  0.00    -0.253 OA
ATOM      4  N   UNL     1       1.169   3.768   3.943  0.00  0.00    -0.269 N 
ATOM      5  H   UNL     1       2.800   2.131   2.918  0.00  0.00    +0.150 HD
ATOM      6  H   UNL     1       1.863   4.210   3.429  0.00  0.00    +0.156 HD
ENDROOT
BRANCH   4   7
ATOM      7  C   UNL     1       0.134   4.520   4.512  0.00  0.00    +0.037 A 
ATOM      8  C   UNL     1      -0.395   4.154   5.743  0.00  0.00    +0.026 A 
ATOM      9  C   UNL     1      -1.417   4.895   6.306  0.00  0.00    +0.042 A 
ATOM     10  C   UNL     1      -1.917   6.002   5.645  0.00  0.00    +0.145 A 
ATOM     11  C   UNL     1      -1.391   6.372   4.412  0.00  0.00    +0.071 A 
ATOM     12  C   UNL     1      -0.361   5.633   3.849  0.00  0.00    +0.049 A 
ATOM     13  F   UNL     1      -2.916   6.724   6.197  0.00  0.00    -0.204 F 
BRANCH  11  14
ATOM     14  N   UNL     1      -1.898   7.493   3.742  0.00  0.00    -0.283 N 
ATOM     15  C   UNL     1      -1.964   7.501   2.396  0.00  0.00    +0.214 C 
ATOM     16  O   UNL     1      -1.509   6.573   1.761  0.00  0.00    -0.276 OA
ATOM     17  C   UNL     1      -2.602   8.663   1.679  0.00  0.00    +0.109 C 
ATOM     18  H   UNL     1      -2.201   8.264   4.247  0.00  0.00    +0.155 HD
ENDBRANCH  11  14
ENDBRANCH   4   7
BRANCH   1  19
ATOM     19  C   UNL     1       2.179   0.243   3.667  0.00  0.00    +0.055 C 
ATOM     20  C   UNL     1       2.963  -0.094   4.936  0.00  0.00    +0.026 C 
BRANCH  19  21
ATOM     21  C   UNL     1       2.860  -0.404   2.459  0.00  0.00    -0.057 C 
BRANCH  21  27
ATOM     22  C   UNL     1       0.033   1.536  -0.002  0.00  0.00    +0.005 C 
ATOM     23  C   UNL     1       0.063   0.006  -0.010  0.00  0.00    -0.031 C 
ATOM     24  C   UNL     1       0.790  -0.485  -1.265  0.00  0.00    +0.003 C 
ATOM     25  C   UNL     1       2.244  -0.005  -1.221  0.00  0.00    -0.031 C 
ATOM     26  C   UNL     1       2.903  -0.508   0.065  0.00  0.00    -0.076 C 
ATOM     27  N   UNL     1       2.178   0.017   1.228  0.00  0.00    +0.381 N 
ATOM     28  C   UNL     1       0.802  -0.497   1.232  0.00  0.00    -0.076 C 
ATOM     29  C   UNL     1       3.000  -0.554  -2.433  0.00  0.00    +0.005 C 
ATOM     30  H   UNL     1       2.159   1.025   1.185  0.00  0.00    -0.082 HD
ENDBRANCH  21  27
ENDBRANCH  19  21
ENDBRANCH   1  19
TORSDOF 5
