REMARK  Name = ZINC39657122
REMARK  5 active torsions:
REMARK  status: ('A' for Active; 'I' for Inactive)
REMARK    1  A    between atoms: C_1  and  C_2
REMARK    2  A    between atoms: C_2  and  C_4
REMARK    3  A    between atoms: C_2  and  N_11
REMARK    4  A    between atoms: C_12  and  C_14
REMARK    5  A    between atoms: C_25  and  C_27
REMARK                            x       y       z     vdW  Elec       q    Type
REMARK                         _______ _______ _______ _____ _____    ______ ____
ROOT
ATOM      1  C   UNL     1      -3.958  -0.895  -1.073  0.00  0.00    +0.100 C 
ATOM      2  C   UNL     1      -3.771  -2.367  -0.642  0.00  0.00    +0.121 C 
ATOM      3  N   UNL     1      -4.683  -3.134  -1.523  0.00  0.00    -0.296 N 
ATOM      4  C   UNL     1      -4.560  -2.474  -2.845  0.00  0.00    +0.115 C 
ATOM      5  C   UNL     1      -4.475  -0.969  -2.519  0.00  0.00    -0.004 C 
ATOM      6  C   UNL     1      -3.498  -0.279  -3.466  0.00  0.00    -0.010 C 
ATOM      7  C   UNL     1      -4.061  -0.315  -4.889  0.00  0.00    -0.082 C 
ATOM      8  N   UNL     1      -5.363   0.362  -4.919  0.00  0.00    +0.379 N 
ATOM      9  C   UNL     1      -6.324  -0.362  -4.078  0.00  0.00    -0.082 C 
ATOM     10  C   UNL     1      -5.856  -0.328  -2.620  0.00  0.00    -0.010 C 
ATOM     11  C   UNL     1      -5.451  -4.192  -1.196  0.00  0.00    +0.248 C 
ATOM     12  O   UNL     1      -6.080  -4.776  -2.059  0.00  0.00    -0.270 OA
ATOM     13  H   UNL     1      -5.259   1.304  -4.573  0.00  0.00    -0.086 HD
ATOM     14  H   UNL     1      -5.704   0.391  -5.869  0.00  0.00    -0.086 HD
ENDROOT
BRANCH  11  15
ATOM     15  C   UNL     1      -5.529  -4.639   0.200  0.00  0.00    +0.052 A 
ATOM     16  C   UNL     1      -4.453  -4.552   1.024  0.00  0.00    +0.059 A 
ATOM     17  S   UNL     1      -4.971  -5.161   2.499  0.00  0.00    -0.096 S 
ATOM     18  C   UNL     1      -6.648  -5.566   2.099  0.00  0.00    +0.020 A 
ATOM     19  C   UNL     1      -6.771  -5.188   0.749  0.00  0.00    +0.001 A 
ATOM     20  C   UNL     1      -8.022  -5.387   0.134  0.00  0.00    +0.010 A 
ATOM     21  C   UNL     1      -9.067  -5.924   0.844  0.00  0.00    +0.001 A 
ATOM     22  C   UNL     1      -8.922  -6.283   2.176  0.00  0.00    +0.001 A 
ATOM     23  C   UNL     1      -7.703  -6.109   2.802  0.00  0.00    +0.015 A 
ENDBRANCH  11  15
BRANCH   1  25
ATOM     24  N   UNL     1      -2.618   1.164  -0.779  0.00  0.00    -0.308 N 
ATOM     25  C   UNL     1      -2.643  -0.162  -1.023  0.00  0.00    +0.219 C 
ATOM     26  O   UNL     1      -1.605  -0.764  -1.202  0.00  0.00    -0.275 OA
ATOM     27  H   UNL     1      -3.448   1.646  -0.635  0.00  0.00    +0.149 HD
BRANCH  24  29
ATOM     28  C   UNL     1      -0.925   2.278  -2.147  0.00  0.00    +0.033 C 
ATOM     29  C   UNL     1      -1.339   1.876  -0.730  0.00  0.00    +0.100 C 
BRANCH  29  30
ATOM     30  C   UNL     1      -1.484   3.112   0.120  0.00  0.00    -0.027 A 
ATOM     31  C   UNL     1      -2.636   3.873   0.043  0.00  0.00    +0.006 A 
ATOM     32  C   UNL     1      -2.770   5.006   0.823  0.00  0.00    +0.015 A 
ATOM     33  C   UNL     1      -1.751   5.378   1.682  0.00  0.00    +0.018 A 
ATOM     34  C   UNL     1      -0.599   4.616   1.759  0.00  0.00    +0.015 A 
ATOM     35  C   UNL     1      -0.468   3.481   0.982  0.00  0.00    +0.006 A 
ATOM     36 BR   UNL     1      -1.933   6.928   2.749  0.00  0.00    -0.050 Br
ENDBRANCH  29  30
ENDBRANCH  24  29
ENDBRANCH   1  25
TORSDOF 4
