REMARK  Name = ZINC35760596
REMARK  5 active torsions:
REMARK  status: ('A' for Active; 'I' for Inactive)
REMARK    1  A    between atoms: C_1  and  C_2
REMARK    2  A    between atoms: C_8  and  C_10
REMARK    3  A    between atoms: C_10  and  N_11
REMARK    4  A    between atoms: N_13  and  C_32
REMARK    5  A    between atoms: N_24  and  C_25
REMARK                            x       y       z     vdW  Elec       q    Type
REMARK                         _______ _______ _______ _____ _____    ______ ____
ROOT
ATOM      1  N   UNL     1       3.983  -4.842   0.983  0.00  0.00    -0.275 N 
ATOM      2  C   UNL     1       3.819  -6.287   0.830  0.00  0.00    +0.217 C 
ATOM      3  N   UNL     1       5.136  -6.866   0.535  0.00  0.00    -0.300 N 
ATOM      4  C   UNL     1       6.076  -5.738   0.519  0.00  0.00    +0.115 C 
ATOM      5  C   UNL     1       5.270  -4.498   0.804  0.00  0.00    +0.241 C 
ATOM      6  O   UNL     1       5.712  -3.370   0.865  0.00  0.00    -0.273 OA
ATOM      7  C   UNL     1       7.143  -5.935   1.596  0.00  0.00    +0.054 C 
ATOM      8  C   UNL     1       7.915  -7.229   1.315  0.00  0.00    +0.112 C 
ATOM      9  N   UNL     1       8.435  -7.180  -0.059  0.00  0.00    -0.285 N 
ATOM     10  C   UNL     1       7.499  -6.918  -1.160  0.00  0.00    +0.112 C 
ATOM     11  C   UNL     1       6.731  -5.627  -0.858  0.00  0.00    +0.054 C 
ATOM     12  C   UNL     1       9.747  -7.372  -0.303  0.00  0.00    +0.306 C 
ATOM     13  O   UNL     1      10.180  -7.239  -1.431  0.00  0.00    -0.252 OA
ATOM     14  N   UNL     1      10.577  -7.710   0.703  0.00  0.00    -0.269 N 
ATOM     15  H   UNL     1      10.221  -7.887   1.587  0.00  0.00    +0.156 HD
ENDROOT
BRANCH  14  16
ATOM     16  C   UNL     1      11.954  -7.807   0.471  0.00  0.00    +0.036 A 
ATOM     17  C   UNL     1      12.456  -7.651  -0.815  0.00  0.00    +0.023 A 
ATOM     18  C   UNL     1      13.815  -7.746  -1.041  0.00  0.00    +0.003 A 
ATOM     19  C   UNL     1      14.677  -7.997   0.011  0.00  0.00    +0.020 A 
ATOM     20  C   UNL     1      14.181  -8.153   1.293  0.00  0.00    +0.043 A 
ATOM     21  C   UNL     1      12.822  -8.053   1.526  0.00  0.00    +0.043 A 
ATOM     22 CL   UNL     1      15.266  -8.469   2.611  0.00  0.00    -0.083 Cl
ENDBRANCH  14  16
BRANCH   3  23
ATOM     23  C   UNL     1       5.433  -8.213   0.316  0.00  0.00    +0.032 A 
ATOM     24  C   UNL     1       4.438  -9.175   0.439  0.00  0.00    +0.023 A 
ATOM     25  C   UNL     1       4.735 -10.506   0.222  0.00  0.00    +0.002 A 
ATOM     26  C   UNL     1       6.022 -10.882  -0.118  0.00  0.00    +0.000 A 
ATOM     27  C   UNL     1       7.015  -9.927  -0.242  0.00  0.00    +0.002 A 
ATOM     28  C   UNL     1       6.723  -8.594  -0.031  0.00  0.00    +0.023 A 
ENDBRANCH   3  23
BRANCH   1  29
ATOM     29  C   UNL     1       2.900  -3.903   1.284  0.00  0.00    +0.205 C 
BRANCH  29  37
ATOM     30  C   UNL     1      -0.042   1.515   0.066  0.00  0.00    +0.007 C 
ATOM     31  C   UNL     1      -0.018  -0.014   0.065  0.00  0.00    -0.011 C 
ATOM     32  C   UNL     1       0.673  -0.513  -1.206  0.00  0.00    +0.022 C 
ATOM     33  C   UNL     1       0.664  -2.045  -1.220  0.00  0.00    +0.108 C 
ATOM     34  N   UNL     1       1.268  -2.533   0.026  0.00  0.00    -0.300 N 
ATOM     35  C   UNL     1       0.738  -2.045   1.307  0.00  0.00    +0.108 C 
ATOM     36  C   UNL     1       0.747  -0.513   1.293  0.00  0.00    +0.022 C 
ATOM     37  C   UNL     1       2.290  -3.412  -0.004  0.00  0.00    +0.233 C 
ATOM     38  O   UNL     1       2.718  -3.807  -1.068  0.00  0.00    -0.274 OA
ENDBRANCH  29  37
ENDBRANCH   1  29
TORSDOF 4
