REMARK  Name = ZINC35442419
REMARK  11 active torsions:
REMARK  status: ('A' for Active; 'I' for Inactive)
REMARK    1  A    between atoms: C_1  and  C_2
REMARK    2  A    between atoms: C_5  and  C_8
REMARK    3  A    between atoms: C_8  and  N_9
REMARK    4  A    between atoms: C_20  and  C_24
REMARK    5  A    between atoms: N_22  and  C_23
REMARK    6  A    between atoms: C_24  and  C_25
REMARK    7  A    between atoms: C_25  and  C_26
REMARK    8  A    between atoms: N_28  and  C_29
REMARK    9  A    between atoms: C_29  and  C_30
REMARK   10  A    between atoms: C_33  and  O_36
REMARK   11  A    between atoms: O_36  and  C_37
REMARK                            x       y       z     vdW  Elec       q    Type
REMARK                         _______ _______ _______ _____ _____    ______ ____
ROOT
ATOM      1  N   UNL     1       1.539  -4.504  -0.798  0.00  0.00    -0.289 NA
ATOM      2  C   UNL     1       2.443  -4.345  -1.957  0.00  0.00    +0.084 C 
ATOM      3  C   UNL     1       2.907  -5.759  -2.370  0.00  0.00    +0.002 C 
ATOM      4  C   UNL     1       2.701  -6.585  -1.063  0.00  0.00    -0.041 C 
ATOM      5  C   UNL     1       1.425  -5.941  -0.513  0.00  0.00    +0.130 C 
ATOM      6  C   UNL     1       1.059  -6.266   0.864  0.00  0.00    +0.229 C 
ATOM      7  O   UNL     1      -0.127  -6.482   0.999  0.00  0.00    -0.274 OA
ATOM      8  N   UNL     1       1.727  -6.377   1.982  0.00  0.00    -0.316 N 
ATOM      9  C   UNL     1       3.166  -6.377   2.165  0.00  0.00    +0.089 C 
ATOM     10  C   UNL     1       3.867  -7.078   1.026  0.00  0.00    -0.051 C 
ATOM     11  N   UNL     1       3.852  -6.362  -0.217  0.00  0.00    +0.384 N 
ATOM     12  C   UNL     1       5.058  -6.706  -0.983  0.00  0.00    -0.095 C 
ATOM     13  H   UNL     1       1.196  -6.471   2.788  0.00  0.00    +0.149 HD
ATOM     14  H   UNL     1       3.895  -5.379   0.004  0.00  0.00    -0.081 HD
ENDROOT
BRANCH   1  15
ATOM     15  C   UNL     1       0.222  -3.916  -1.072  0.00  0.00    +0.120 C 
BRANCH  15  20
ATOM     16  C   UNL     1       0.678   1.843  -1.243  0.00  0.00    +0.044 C 
ATOM     17  C   UNL     1       0.559   0.341  -1.198  0.00  0.00    -0.050 A 
ATOM     18  C   UNL     1       0.727  -0.400  -2.353  0.00  0.00    +0.003 A 
ATOM     19  C   UNL     1       0.618  -1.778  -2.312  0.00  0.00    +0.005 A 
ATOM     20  C   UNL     1       0.341  -2.414  -1.117  0.00  0.00    -0.033 A 
ATOM     21  C   UNL     1       0.174  -1.673   0.038  0.00  0.00    +0.005 A 
ATOM     22  C   UNL     1       0.288  -0.296  -0.002  0.00  0.00    +0.003 A 
ENDBRANCH  15  20
ENDBRANCH   1  15
BRANCH  10  23
ATOM     23  C   UNL     1       5.326  -7.313   1.421  0.00  0.00    -0.005 C 
BRANCH  23  24
ATOM     24  C   UNL     1       5.380  -8.186   2.677  0.00  0.00    +0.094 C 
BRANCH  24  25
ATOM     25  C   UNL     1       6.815  -8.376   3.095  0.00  0.00    +0.213 C 
ATOM     26  O   UNL     1       7.707  -7.864   2.452  0.00  0.00    -0.276 OA
ATOM     27  N   UNL     1       7.107  -9.116   4.183  0.00  0.00    -0.311 N 
ATOM     28  H   UNL     1       6.394  -9.525   4.697  0.00  0.00    +0.149 HD
BRANCH  27  29
ATOM     29  C   UNL     1       8.503  -9.300   4.590  0.00  0.00    +0.139 C 
BRANCH  29  30
ATOM     30  C   UNL     1       8.556 -10.160   5.827  0.00  0.00    -0.030 A 
ATOM     31  C   UNL     1       8.505  -9.574   7.078  0.00  0.00    +0.009 A 
ATOM     32  C   UNL     1       8.553 -10.360   8.213  0.00  0.00    +0.046 A 
ATOM     33  C   UNL     1       8.654 -11.739   8.097  0.00  0.00    +0.120 A 
ATOM     34  C   UNL     1       8.704 -12.325   6.840  0.00  0.00    +0.046 A 
ATOM     35  C   UNL     1       8.650 -11.534   5.708  0.00  0.00    +0.009 A 
BRANCH  33  36
ATOM     36  O   UNL     1       8.702 -12.514   9.212  0.00  0.00    -0.495 OA
ATOM     37  C   UNL     1       8.805 -13.926   9.016  0.00  0.00    +0.277 C 
ENDBRANCH  33  36
ENDBRANCH  29  30
ENDBRANCH  27  29
ENDBRANCH  24  25
ENDBRANCH  23  24
ENDBRANCH  10  23
TORSDOF 8
