REMARK  Name = ZINC06852546
REMARK  13 active torsions:
REMARK  status: ('A' for Active; 'I' for Inactive)
REMARK    1  A    between atoms: C_1  and  C_2
REMARK    2  A    between atoms: C_6  and  C_22
REMARK    3  A    between atoms: C_6  and  C_23
REMARK    4  A    between atoms: C_13  and  C_15
REMARK    5  A    between atoms: C_15  and  C_16
REMARK    6  A    between atoms: C_16  and  C_17
REMARK    7  A    between atoms: N_25  and  C_26
REMARK    8  A    between atoms: C_26  and  C_27
REMARK    9  A    between atoms: C_27  and  C_28
REMARK   10  A    between atoms: C_28  and  C_29
REMARK   11  A    between atoms: C_29  and  C_30
REMARK   12  A    between atoms: C_30  and  C_31
REMARK   13  A    between atoms: C_31  and  N_72
REMARK                            x       y       z     vdW  Elec       q    Type
REMARK                         _______ _______ _______ _____ _____    ______ ____
ROOT
ATOM      1  C   UNL     1       0.263   0.452  -2.210  0.00  0.00    +0.012 C 
ATOM      2  C   UNL     1       0.961  -0.035  -0.930  0.00  0.00    -0.022 C 
ATOM      3  C   UNL     1       1.065  -1.560  -0.986  0.00  0.00    +0.007 C 
ATOM      4  C   UNL     1       1.994  -1.968  -2.132  0.00  0.00    +0.002 C 
ATOM      5  C   UNL     1       3.393  -1.433  -1.847  0.00  0.00    +0.016 C 
ATOM      6  C   UNL     1       3.400   0.088  -1.717  0.00  0.00    +0.047 C 
ATOM      7  C   UNL     1       2.332   0.597  -0.765  0.00  0.00    +0.010 C 
ATOM      8  C   UNL     1       2.234   2.123  -0.806  0.00  0.00    +0.009 C 
ATOM      9  C   UNL     1       1.389   2.604   0.382  0.00  0.00    +0.031 C 
ATOM     10  C   UNL     1       0.064   1.877   0.367  0.00  0.00    -0.073 C 
ATOM     11  C   UNL     1      -1.063   2.542   0.462  0.00  0.00    +0.008 C 
ATOM     12  C   UNL     1       0.058   0.369   0.248  0.00  0.00    +0.021 C 
ATOM     13  C   UNL     1       3.304   0.728  -3.101  0.00  0.00    +0.021 C 
ENDROOT
BRANCH   6  14
ATOM     14  C   UNL     1       4.761   0.466  -1.141  0.00  0.00    +0.219 C 
ATOM     15  O   UNL     1       4.830   1.052  -0.082  0.00  0.00    -0.275 OA
ATOM     16  N   UNL     1       5.887   0.147  -1.810  0.00  0.00    -0.315 N 
ATOM     17  H   UNL     1       5.832  -0.322  -2.657  0.00  0.00    +0.149 HD
BRANCH  16  18
ATOM     18  C   UNL     1       7.194   0.509  -1.257  0.00  0.00    +0.104 C 
BRANCH  18  19
ATOM     19  C   UNL     1       8.298   0.036  -2.205  0.00  0.00    +0.019 C 
BRANCH  19  20
ATOM     20  C   UNL     1       9.663   0.414  -1.627  0.00  0.00    +0.001 C 
BRANCH  20  21
ATOM     21  C   UNL     1      10.767  -0.059  -2.575  0.00  0.00    -0.002 C 
BRANCH  21  22
ATOM     22  C   UNL     1      12.132   0.319  -1.998  0.00  0.00    -0.020 C 
BRANCH  22  23
ATOM     23  C   UNL     1      13.236  -0.154  -2.946  0.00  0.00    -0.086 C 
BRANCH  23  26
ATOM     24  H   UNL     1      14.663  -0.167  -1.462  0.00  0.00    -0.090 HD
ATOM     25  H   UNL     1      15.293  -0.093  -2.999  0.00  0.00    -0.090 HD
ATOM     26  N   UNL     1      14.545   0.234  -2.391  0.00  0.00    +0.378 N 
ATOM     27  H   UNL     1      14.592   1.258  -2.323  0.00  0.00    -0.090 HD
ENDBRANCH  23  26
ENDBRANCH  22  23
ENDBRANCH  21  22
ENDBRANCH  20  21
ENDBRANCH  19  20
ENDBRANCH  18  19
ENDBRANCH  16  18
ENDBRANCH   6  14
BRANCH  12  28
ATOM     28  C   UNL     1       0.521  -0.254   1.560  0.00  0.00    +0.013 C 
BRANCH  28  29
ATOM     29  C   UNL     1      -0.492   0.066   2.661  0.00  0.00    +0.039 C 
BRANCH  29  30
ATOM     30  C   UNL     1      -0.035  -0.550   3.958  0.00  0.00    -0.010 A 
ATOM     31  C   UNL     1       0.791   0.054   4.933  0.00  0.00    +0.044 A 
ATOM     32  C   UNL     1       0.946  -0.843   5.924  0.00  0.00    +0.195 A 
ATOM     33  O   UNL     1       0.261  -1.952   5.602  0.00  0.00    -0.471 OA
ATOM     34  C   UNL     1      -0.340  -1.779   4.413  0.00  0.00    +0.198 A 
ENDBRANCH  29  30
ENDBRANCH  28  29
ENDBRANCH  12  28
TORSDOF 11
