REMARK  Name = ZINC08453241
REMARK  4 active torsions:
REMARK  status: ('A' for Active; 'I' for Inactive)
REMARK    1  A    between atoms: C_1  and  C_2
REMARK    2  A    between atoms: N_8  and  C_9
REMARK    3  A    between atoms: C_9  and  C_10
REMARK    4  A    between atoms: C_12  and  C_26
REMARK                            x       y       z     vdW  Elec       q    Type
REMARK                         _______ _______ _______ _____ _____    ______ ____
ROOT
ATOM      1  C   UNL     1       8.214   2.327   1.363  0.00  0.00    +0.086 C 
ATOM      2  C   UNL     1       6.997   1.507   1.021  0.00  0.00    +0.113 A 
ATOM      3  N   UNL     1       5.862   2.114   0.809  0.00  0.00    -0.199 NA
ATOM      4  C   UNL     1       4.749   1.428   0.502  0.00  0.00    +0.231 A 
ATOM      5  C   UNL     1       4.805   0.055   0.411  0.00  0.00    +0.091 A 
ATOM      6  C   UNL     1       6.032  -0.588   0.641  0.00  0.00    +0.262 A 
ATOM      7  O   UNL     1       6.122  -1.803   0.569  0.00  0.00    -0.267 OA
ATOM      8  N   UNL     1       7.110   0.166   0.943  0.00  0.00    -0.293 N 
ATOM      9  C   UNL     1       3.583  -0.750   0.072  0.00  0.00    +0.100 C 
ATOM     10  C   UNL     1       2.342   0.078   0.266  0.00  0.00    +0.092 A 
ATOM     11  C   UNL     1       2.419   1.436   0.361  0.00  0.00    +0.152 A 
ATOM     12  C   UNL     1       1.164   2.183   0.549  0.00  0.00    +0.060 A 
ATOM     13  C   UNL     1       1.167   3.575   0.656  0.00  0.00    +0.015 A 
ATOM     14  C   UNL     1      -0.022   4.247   0.833  0.00  0.00    +0.001 A 
ATOM     15  C   UNL     1      -1.216   3.545   0.904  0.00  0.00    +0.004 A 
ATOM     16  C   UNL     1      -1.232   2.170   0.806  0.00  0.00    +0.047 A 
ATOM     17  C   UNL     1      -0.043   1.471   0.622  0.00  0.00    +0.143 A 
ATOM     18  O   UNL     1      -0.053   0.127   0.520  0.00  0.00    -0.422 OA
ATOM     19  C   UNL     1       1.088  -0.549   0.350  0.00  0.00    +0.345 A 
ATOM     20  O   UNL     1       1.037  -1.763   0.264  0.00  0.00    -0.245 OA
ATOM     21  O   UNL     1       3.592   2.088   0.286  0.00  0.00    -0.436 OA
ENDROOT
BRANCH   9  22
ATOM     22  C   UNL     1       3.666  -1.195  -1.366  0.00  0.00    -0.035 A 
ATOM     23  C   UNL     1       3.722  -0.255  -2.378  0.00  0.00    +0.006 A 
ATOM     24  C   UNL     1       3.804  -0.662  -3.696  0.00  0.00    +0.020 A 
ATOM     25  C   UNL     1       3.819  -2.011  -4.003  0.00  0.00    +0.041 A 
ATOM     26  C   UNL     1       3.757  -2.951  -2.990  0.00  0.00    +0.020 A 
ATOM     27  C   UNL     1       3.681  -2.543  -1.672  0.00  0.00    +0.006 A 
ATOM     28 CL   UNL     1       3.914  -2.524  -5.659  0.00  0.00    -0.084 Cl
ENDBRANCH   9  22
BRANCH   8  29
ATOM     29  C   UNL     1       8.405  -0.473   1.187  0.00  0.00    +0.153 C 
BRANCH  29  30
ATOM     30  C   UNL     1       9.138  -0.637  -0.119  0.00  0.00    -0.013 C 
ATOM     31  C   UNL     1      10.346  -0.149  -0.258  0.00  0.00    +0.005 C 
ENDBRANCH  29  30
ENDBRANCH   8  29
TORSDOF 3
