REMARK  Name = ZINC63625033
REMARK  7 active torsions:
REMARK  status: ('A' for Active; 'I' for Inactive)
REMARK    1  A    between atoms: C_1  and  C_2
REMARK    2  A    between atoms: C_5  and  C_34
REMARK    3  A    between atoms: C_6  and  S_8
REMARK    4  A    between atoms: S_8  and  N_11
REMARK    5  A    between atoms: C_24  and  C_26
REMARK    6  A    between atoms: C_29  and  S_32
REMARK    7  A    between atoms: S_32  and  C_33
REMARK                            x       y       z     vdW  Elec       q    Type
REMARK                         _______ _______ _______ _____ _____    ______ ____
ROOT
ATOM      1  N   UNL     1      -1.331  -3.898   2.602  0.00  0.00    -0.167 NA
ATOM      2  C   UNL     1      -2.583  -3.295   3.072  0.00  0.00    +0.114 C 
ATOM      3  C   UNL     1      -3.636  -3.360   1.950  0.00  0.00    +0.050 C 
ATOM      4  C   UNL     1      -3.572  -4.755   1.377  0.00  0.00    -0.035 C 
ATOM      5  C   UNL     1      -4.519  -5.661   1.166  0.00  0.00    -0.001 A 
ATOM      6  C   UNL     1      -5.983  -5.600   1.308  0.00  0.00    +0.010 A 
ATOM      7  C   UNL     1      -6.661  -6.742   1.019  0.00  0.00    +0.001 A 
ATOM      8  C   UNL     1      -6.037  -7.924   0.609  0.00  0.00    +0.002 A 
ATOM      9  C   UNL     1      -4.698  -8.068   0.444  0.00  0.00    +0.026 A 
ATOM     10  C   UNL     1      -3.879  -6.932   0.709  0.00  0.00    +0.043 A 
ATOM     11  N   UNL     1      -2.591  -6.783   0.612  0.00  0.00    -0.376 N 
ATOM     12  C   UNL     1      -2.262  -5.393   0.932  0.00  0.00    +0.129 C 
ATOM     13  C   UNL     1      -1.302  -5.286   2.116  0.00  0.00    +0.136 C 
ATOM     14  H   UNL     1      -1.956  -7.475   0.369  0.00  0.00    +0.160 HD
ENDROOT
BRANCH  13  15
ATOM     15  C   UNL     1      -1.744  -6.221   3.212  0.00  0.00    -0.026 A 
ATOM     16  C   UNL     1      -2.983  -6.056   3.802  0.00  0.00    +0.006 A 
ATOM     17  C   UNL     1      -3.391  -6.910   4.808  0.00  0.00    +0.015 A 
ATOM     18  C   UNL     1      -2.554  -7.937   5.227  0.00  0.00    +0.008 A 
ATOM     19  C   UNL     1      -1.309  -8.100   4.631  0.00  0.00    +0.015 A 
ATOM     20  C   UNL     1      -0.910  -7.245   3.623  0.00  0.00    +0.006 A 
BRANCH  18  21
ATOM     21  S   UNL     1      -3.070  -9.029   6.510  0.00  0.00    -0.129 S 
ATOM     22  C   UNL     1      -1.674 -10.172   6.700  0.00  0.00    +0.090 C 
ENDBRANCH  18  21
ENDBRANCH  13  15
BRANCH   1  23
ATOM     23  S   UNL     1       0.063  -3.004   2.613  0.00  0.00    +0.062 S 
ATOM     24  O   UNL     1       1.137  -3.926   2.497  0.00  0.00    -0.153 OA
ATOM     25  O   UNL     1      -0.047  -2.095   3.700  0.00  0.00    -0.153 OA
BRANCH  23  31
ATOM     26  C   UNL     1      -1.754  -1.889  -2.159  0.00  0.00    +0.044 C 
ATOM     27  C   UNL     1      -0.799  -1.568  -1.039  0.00  0.00    -0.049 A 
ATOM     28  C   UNL     1       0.084  -0.511  -1.165  0.00  0.00    +0.004 A 
ATOM     29  C   UNL     1       0.960  -0.216  -0.137  0.00  0.00    +0.005 A 
ATOM     30  C   UNL     1       0.953  -0.977   1.016  0.00  0.00    -0.024 A 
ATOM     31  C   UNL     1       0.070  -2.033   1.143  0.00  0.00    +0.109 A 
ATOM     32  C   UNL     1      -0.809  -2.326   0.117  0.00  0.00    +0.032 A 
ATOM     33  C   UNL     1       1.909  -0.656   2.136  0.00  0.00    +0.046 C 
ENDBRANCH  23  31
ENDBRANCH   1  23
TORSDOF 4
