REMARK  Name = ZINC35427266
REMARK  6 active torsions:
REMARK  status: ('A' for Active; 'I' for Inactive)
REMARK    1  A    between atoms: C_1  and  C_2
REMARK    2  A    between atoms: C_5  and  O_37
REMARK    3  A    between atoms: C_6  and  N_8
REMARK    4  A    between atoms: C_23  and  C_25
REMARK    5  A    between atoms: N_33  and  C_36
REMARK    6  A    between atoms: O_37  and  C_38
REMARK                            x       y       z     vdW  Elec       q    Type
REMARK                         _______ _______ _______ _____ _____    ______ ____
ROOT
ATOM      1  N   UNL     1       0.047  -2.760   2.394  0.00  0.00    -0.266 N 
ATOM      2  C   UNL     1       0.148  -2.106   3.568  0.00  0.00    +0.308 C 
ATOM      3  O   UNL     1       0.138  -0.891   3.591  0.00  0.00    -0.252 OA
ATOM      4  N   UNL     1       0.261  -2.801   4.718  0.00  0.00    -0.268 N 
ATOM      5  C   UNL     1       0.282  -4.274   4.731  0.00  0.00    +0.148 C 
ATOM      6  C   UNL     1      -0.499  -4.861   5.886  0.00  0.00    +0.004 A 
ATOM      7  C   UNL     1      -1.709  -5.561   5.719  0.00  0.00    -0.034 A 
ATOM      8  C   UNL     1      -2.313  -6.058   6.832  0.00  0.00    -0.021 A 
ATOM      9  S   UNL     1      -1.231  -5.576   8.152  0.00  0.00    -0.077 S 
ATOM     10  C   UNL     1      -0.042  -4.724   7.160  0.00  0.00    +0.090 A 
ATOM     11  N   UNL     1       1.109  -4.026   7.505  0.00  0.00    -0.312 N 
ATOM     12  C   UNL     1       2.131  -4.337   8.335  0.00  0.00    +0.092 A 
ATOM     13  C   UNL     1       3.045  -3.343   8.263  0.00  0.00    +0.020 A 
ATOM     14  C   UNL     1       2.549  -2.373   7.365  0.00  0.00    +0.025 A 
ATOM     15  C   UNL     1       1.354  -2.800   6.933  0.00  0.00    +0.049 A 
ATOM     16  C   UNL     1       0.374  -2.119   6.030  0.00  0.00    +0.155 C 
ATOM     17  C   UNL     1      -3.594  -6.823   6.891  0.00  0.00    -0.036 C 
ATOM     18  N   UNL     1      -4.298  -6.645   5.607  0.00  0.00    +0.381 N 
ATOM     19  C   UNL     1      -3.374  -6.923   4.500  0.00  0.00    -0.074 C 
ATOM     20  C   UNL     1      -2.359  -5.786   4.356  0.00  0.00    +0.018 C 
ATOM     21  C   UNL     1      -5.436  -7.572   5.540  0.00  0.00    -0.096 C 
ATOM     22  H   UNL     1      -0.007  -3.728   2.380  0.00  0.00    +0.156 HD
ATOM     23  H   UNL     1      -4.633  -5.696   5.536  0.00  0.00    -0.082 HD
ENDROOT
BRANCH   1  29
ATOM     24  C   UNL     1      -1.305   1.252  -0.108  0.00  0.00    +0.044 C 
ATOM     25  C   UNL     1      -0.629  -0.093  -0.050  0.00  0.00    -0.048 A 
ATOM     26  C   UNL     1      -0.036  -0.616  -1.185  0.00  0.00    +0.007 A 
ATOM     27  C   UNL     1       0.586  -1.850  -1.137  0.00  0.00    +0.048 A 
ATOM     28  C   UNL     1       0.617  -2.566   0.048  0.00  0.00    +0.141 A 
ATOM     29  C   UNL     1       0.020  -2.039   1.191  0.00  0.00    +0.077 A 
ATOM     30  C   UNL     1      -0.597  -0.798   1.138  0.00  0.00    +0.030 A 
BRANCH  28  31
ATOM     31  O   UNL     1       1.228  -3.780   0.096  0.00  0.00    -0.493 OA
ATOM     32  C   UNL     1       1.818  -4.257  -1.115  0.00  0.00    +0.277 C 
ENDBRANCH  28  31
ENDBRANCH   1  29
BRANCH  16  33
ATOM     33  C   UNL     1      -0.977  -2.109   6.697  0.00  0.00    -0.021 A 
ATOM     34  C   UNL     1      -1.067  -2.109   8.076  0.00  0.00    +0.008 A 
ATOM     35  C   UNL     1      -2.305  -2.100   8.689  0.00  0.00    +0.038 A 
ATOM     36  C   UNL     1      -3.457  -2.091   7.921  0.00  0.00    +0.123 A 
ATOM     37  C   UNL     1      -3.366  -2.092   6.539  0.00  0.00    +0.038 A 
ATOM     38  C   UNL     1      -2.127  -2.096   5.928  0.00  0.00    +0.008 A 
ATOM     39  F   UNL     1      -4.669  -2.083   8.519  0.00  0.00    -0.205 F 
ENDBRANCH  16  33
TORSDOF 3
