REMARK  Name = ZINC04087246
REMARK  8 active torsions:
REMARK  status: ('A' for Active; 'I' for Inactive)
REMARK    1  A    between atoms: C_1  and  C_2
REMARK    2  A    between atoms: C_2  and  C_3
REMARK    3  A    between atoms: C_2  and  N_49
REMARK    4  A    between atoms: C_9  and  N_14
REMARK    5  A    between atoms: C_10  and  C_11
REMARK    6  A    between atoms: C_15  and  C_17
REMARK    7  A    between atoms: C_17  and  O_18
REMARK    8  A    between atoms: O_18  and  C_19
REMARK                            x       y       z     vdW  Elec       q    Type
REMARK                         _______ _______ _______ _____ _____    ______ ____
ROOT
ATOM      1  C   UNL     1       3.606  12.623  -0.409  0.00  0.00    -0.073 C 
ATOM      2  C   UNL     1       4.448  11.416   0.016  0.00  0.00    +0.018 C 
ATOM      3  C   UNL     1       3.547  10.187   0.020  0.00  0.00    -0.027 A 
ATOM      4  C   UNL     1       2.202  10.331   0.034  0.00  0.00    -0.021 A 
ATOM      5  S   UNL     1       1.571   8.678   0.032  0.00  0.00    -0.079 S 
ATOM      6  C   UNL     1       3.070   7.807   0.013  0.00  0.00    +0.084 A 
ATOM      7  C   UNL     1       4.023   8.816   0.015  0.00  0.00    +0.068 A 
ATOM      8  C   UNL     1       1.447  11.623   0.050  0.00  0.00    -0.035 C 
ATOM      9  N   UNL     1       2.395  12.697   0.434  0.00  0.00    +0.384 N 
ATOM     10  H   UNL     1       2.664  12.570   1.417  0.00  0.00    -0.081 HD
ENDROOT
BRANCH   7  11
ATOM     11  C   UNL     1       5.457   8.509   0.008  0.00  0.00    +0.244 C 
ATOM     12  O   UNL     1       6.048   8.388  -1.050  0.00  0.00    -0.270 OA
ATOM     13  N   UNL     1       6.120   8.361   1.171  0.00  0.00    -0.325 N 
ATOM     14  H   UNL     1       5.649   8.458   2.014  0.00  0.00    +0.145 HD
ATOM     15  H   UNL     1       7.069   8.158   1.166  0.00  0.00    +0.145 HD
ENDBRANCH   7  11
BRANCH   6  16
ATOM     16  N   UNL     1       3.268   6.435   0.004  0.00  0.00    -0.277 N 
ATOM     17  C   UNL     1       2.209   5.601   0.010  0.00  0.00    +0.255 C 
ATOM     18  O   UNL     1       1.083   6.051   0.023  0.00  0.00    -0.272 OA
ATOM     19  H   UNL     1       4.169   6.075  -0.006  0.00  0.00    +0.155 HD
BRANCH  17  20
ATOM     20  C   UNL     1       2.425   4.109   0.001  0.00  0.00    +0.324 C 
BRANCH  20  21
ATOM     21  O   UNL     1       1.159   3.445   0.009  0.00  0.00    -0.483 OA
BRANCH  21  22
ATOM     22  C   UNL     1       1.176   2.086   0.002  0.00  0.00    +0.121 A 
ATOM     23  C   UNL     1      -0.017   1.377   0.010  0.00  0.00    +0.047 A 
ATOM     24  C   UNL     1       0.002  -0.004   0.002  0.00  0.00    +0.023 A 
ATOM     25  C   UNL     1       1.209  -0.680  -0.013  0.00  0.00    +0.041 A 
ATOM     26  C   UNL     1       2.399   0.025  -0.020  0.00  0.00    +0.023 A 
ATOM     27  C   UNL     1       2.385   1.406  -0.012  0.00  0.00    +0.047 A 
ATOM     28 CL   UNL     1       1.230  -2.416  -0.023  0.00  0.00    -0.084 Cl
ENDBRANCH  21  22
ENDBRANCH  20  21
ENDBRANCH  17  20
ENDBRANCH   6  16
BRANCH   9  30
ATOM     29  C   UNL     1       1.319  14.237  -1.172  0.00  0.00    -0.014 C 
ATOM     30  C   UNL     1       1.751  14.019   0.279  0.00  0.00    -0.074 C 
ATOM     31  C   UNL     1       0.524  14.085   1.192  0.00  0.00    -0.014 C 
ENDBRANCH   9  30
TORSDOF 6
