REMARK  Name = ZINC21686051
REMARK  8 active torsions:
REMARK  status: ('A' for Active; 'I' for Inactive)
REMARK    1  A    between atoms: C_1  and  C_2
REMARK    2  A    between atoms: C_5  and  S_8
REMARK    3  A    between atoms: S_8  and  C_9
REMARK    4  A    between atoms: C_9  and  C_10
REMARK    5  A    between atoms: C_10  and  C_11
REMARK    6  A    between atoms: C_11  and  C_12
REMARK    7  A    between atoms: N_14  and  C_15
REMARK    8  A    between atoms: C_17  and  C_30
REMARK                            x       y       z     vdW  Elec       q    Type
REMARK                         _______ _______ _______ _____ _____    ______ ____
ROOT
ATOM      1  C   UNL     1      -2.947  -2.336   0.018  0.00  0.00    +0.131 A 
ATOM      2  C   UNL     1      -4.083  -1.586   0.032  0.00  0.00    +0.068 A 
ATOM      3  C   UNL     1      -5.175  -2.460   0.038  0.00  0.00    +0.062 A 
ATOM      4  N   UNL     1      -4.724  -3.688   0.028  0.00  0.00    -0.168 NA
ATOM      5  N   UNL     1      -3.324  -3.646   0.009  0.00  0.00    -0.194 N 
ATOM      6  C   UNL     1      -2.472  -4.744  -0.012  0.00  0.00    +0.197 A 
ATOM      7  N   UNL     1      -2.774  -6.020  -0.021  0.00  0.00    -0.220 NA
ATOM      8  C   UNL     1      -1.834  -6.989  -0.042  0.00  0.00    +0.099 A 
ATOM      9  C   UNL     1      -0.493  -6.542  -0.054  0.00  0.00    +0.042 A 
ATOM     10  S   UNL     1      -0.685  -4.775  -0.040  0.00  0.00    -0.048 S 
ATOM     11  C   UNL     1       0.575  -7.403  -0.075  0.00  0.00    +0.017 A 
ATOM     12  C   UNL     1       0.353  -8.768  -0.087  0.00  0.00    +0.003 A 
ATOM     13  C   UNL     1      -0.950  -9.244  -0.076  0.00  0.00    +0.022 A 
ATOM     14  C   UNL     1      -2.025  -8.392  -0.055  0.00  0.00    +0.067 A 
ATOM     15 CL   UNL     1      -3.635  -9.040  -0.042  0.00  0.00    -0.081 Cl
ATOM     16  C   UNL     1      -6.626  -2.054   0.053  0.00  0.00    +0.067 C 
ENDROOT
BRANCH   1  19
ATOM     17  C   UNL     1      -1.412  -0.526   0.013  0.00  0.00    +0.218 C 
ATOM     18  O   UNL     1      -2.344   0.250   0.026  0.00  0.00    -0.275 OA
ATOM     19  N   UNL     1      -1.640  -1.854   0.008  0.00  0.00    -0.270 N 
ATOM     20  H   UNL     1      -0.794  -2.557  -0.004  0.00  0.00    +0.156 HD
BRANCH  17  21
ATOM     21  C   UNL     1       0.002  -0.004   0.002  0.00  0.00    +0.097 C 
BRANCH  21  22
ATOM     22  C   UNL     1      -0.019   1.526   0.010  0.00  0.00    +0.020 C 
BRANCH  22  23
ATOM     23  C   UNL     1       1.417   2.055  -0.000  0.00  0.00    +0.075 C 
BRANCH  23  24
ATOM     24  S   UNL     1       1.392   3.869   0.009  0.00  0.00    -0.125 S 
BRANCH  24  29
ATOM     25  C   UNL     1       7.228   5.409  -0.037  0.00  0.00    +0.044 C 
ATOM     26  C   UNL     1       5.771   5.025  -0.026  0.00  0.00    -0.050 A 
ATOM     27  C   UNL     1       4.799   6.008  -0.011  0.00  0.00    +0.004 A 
ATOM     28  C   UNL     1       3.462   5.659  -0.001  0.00  0.00    +0.015 A 
ATOM     29  C   UNL     1       3.096   4.319  -0.004  0.00  0.00    +0.008 A 
ATOM     30  C   UNL     1       4.076   3.333  -0.013  0.00  0.00    +0.015 A 
ATOM     31  C   UNL     1       5.410   3.690  -0.030  0.00  0.00    +0.004 A 
ENDBRANCH  24  29
ENDBRANCH  23  24
ENDBRANCH  22  23
ENDBRANCH  21  22
ENDBRANCH  17  21
ENDBRANCH   1  19
TORSDOF 6
