REMARK  Name = ZINC33437864
REMARK  7 active torsions:
REMARK  status: ('A' for Active; 'I' for Inactive)
REMARK    1  A    between atoms: C_1  and  N_2
REMARK    2  A    between atoms: N_5  and  C_8
REMARK    3  A    between atoms: C_9  and  N_15
REMARK    4  A    between atoms: C_16  and  C_18
REMARK    5  A    between atoms: C_18  and  S_19
REMARK    6  A    between atoms: S_19  and  C_20
REMARK    7  A    between atoms: C_23  and  C_25
REMARK                            x       y       z     vdW  Elec       q    Type
REMARK                         _______ _______ _______ _____ _____    ______ ____
ROOT
ATOM      1  N   UNL     1       0.380  -5.248  -0.042  0.00  0.00    -0.283 N 
ATOM      2  C   UNL     1       0.013  -6.540  -0.152  0.00  0.00    +0.228 C 
ATOM      3  O   UNL     1       0.857  -7.411  -0.169  0.00  0.00    -0.275 OA
ATOM      4  H   UNL     1      -0.296  -4.556   0.037  0.00  0.00    +0.155 HD
ENDROOT
BRANCH   1   6
ATOM      5  C   UNL     1       2.157  -3.710  -0.631  0.00  0.00    +0.070 A 
ATOM      6  C   UNL     1       1.738  -4.903  -0.042  0.00  0.00    +0.056 A 
ATOM      7  C   UNL     1       2.670  -5.746   0.544  0.00  0.00    +0.025 A 
ATOM      8  C   UNL     1       4.009  -5.404   0.544  0.00  0.00    +0.003 A 
ATOM      9  C   UNL     1       4.426  -4.222  -0.039  0.00  0.00    +0.022 A 
ATOM     10  C   UNL     1       3.504  -3.377  -0.632  0.00  0.00    +0.064 A 
ATOM     11 CL   UNL     1       4.032  -1.897  -1.371  0.00  0.00    -0.082 Cl
BRANCH   5  16
ATOM     12  C   UNL     1       0.196   0.644  -3.279  0.00  0.00    -0.096 C 
ATOM     13  N   UNL     1       0.169  -0.646  -2.576  0.00  0.00    +0.380 N 
ATOM     14  C   UNL     1       0.984  -1.620  -3.314  0.00  0.00    -0.060 C 
ATOM     15  C   UNL     1       0.865  -2.994  -2.646  0.00  0.00    +0.086 C 
ATOM     16  N   UNL     1       1.222  -2.855  -1.226  0.00  0.00    -0.331 N 
ATOM     17  C   UNL     1       0.569  -1.791  -0.448  0.00  0.00    +0.086 C 
ATOM     18  C   UNL     1       0.702  -0.473  -1.219  0.00  0.00    -0.060 C 
ATOM     19  H   UNL     1      -0.782  -0.979  -2.523  0.00  0.00    -0.082 HD
ENDBRANCH   5  16
ENDBRANCH   1   6
BRANCH   2  20
ATOM     20  C   UNL     1      -1.446  -6.902  -0.253  0.00  0.00    +0.175 C 
BRANCH  20  21
ATOM     21  S   UNL     1      -1.614  -8.704  -0.388  0.00  0.00    -0.056 S 
BRANCH  21  22
ATOM     22  C   UNL     1      -3.353  -8.963  -0.496  0.00  0.00    +0.278 A 
ATOM     23  N   UNL     1      -4.280  -8.032  -0.485  0.00  0.00    -0.101 NA
ATOM     24  N   UNL     1      -5.440  -8.581  -0.582  0.00  0.00    -0.106 NA
ATOM     25  C   UNL     1      -5.300  -9.884  -0.659  0.00  0.00    +0.250 A 
ATOM     26  O   UNL     1      -3.976 -10.152  -0.612  0.00  0.00    -0.411 OA
BRANCH  25  27
ATOM     27  C   UNL     1      -6.387 -10.872  -0.780  0.00  0.00    +0.046 A 
ATOM     28  C   UNL     1      -6.106 -12.230  -0.847  0.00  0.00    +0.014 A 
ATOM     29  C   UNL     1      -7.131 -13.159  -0.961  0.00  0.00    +0.001 A 
ATOM     30  C   UNL     1      -8.438 -12.783  -1.012  0.00  0.00    +0.008 A 
ATOM     31  C   UNL     1      -8.796 -11.426  -0.950  0.00  0.00    -0.017 A 
ATOM     32  C   UNL     1      -7.783 -10.444  -0.827  0.00  0.00    -0.006 A 
ATOM     33  C   UNL     1      -8.136  -9.090  -0.759  0.00  0.00    +0.009 A 
ATOM     34  C   UNL     1      -9.451  -8.734  -0.806  0.00  0.00    +0.001 A 
ATOM     35  C   UNL     1     -10.450  -9.698  -0.921  0.00  0.00    +0.001 A 
ATOM     36  C   UNL     1     -10.141 -11.022  -1.001  0.00  0.00    +0.008 A 
ENDBRANCH  25  27
ENDBRANCH  21  22
ENDBRANCH  20  21
ENDBRANCH   2  20
TORSDOF 6
