REMARK  Name = ZINC24172102
REMARK  12 active torsions:
REMARK  status: ('A' for Active; 'I' for Inactive)
REMARK    1  A    between atoms: C_1  and  C_2
REMARK    2  A    between atoms: C_2  and  C_3
REMARK    3  A    between atoms: C_3  and  C_30
REMARK    4  A    between atoms: N_6  and  N_10
REMARK    5  A    between atoms: C_11  and  C_13
REMARK    6  A    between atoms: C_13  and  S_14
REMARK    7  A    between atoms: S_14  and  C_15
REMARK    8  A    between atoms: C_18  and  C_21
REMARK    9  A    between atoms: N_19  and  N_20
REMARK   10  A    between atoms: C_24  and  O_27
REMARK   11  A    between atoms: O_27  and  C_28
REMARK   12  A    between atoms: C_28  and  C_29
REMARK                            x       y       z     vdW  Elec       q    Type
REMARK                         _______ _______ _______ _____ _____    ______ ____
ROOT
ATOM      1  N   UNL     1      -2.144  -0.058   0.300  0.00  0.00    -0.223 N 
ATOM      2  C   UNL     1      -2.295  -0.762  -0.839  0.00  0.00    +0.240 C 
ATOM      3  O   UNL     1      -1.583  -0.532  -1.793  0.00  0.00    -0.273 OA
ATOM      4  H   UNL     1      -2.791  -0.266   1.165  0.00  0.00    +0.174 HD
ENDROOT
BRANCH   1   8
ATOM      5  C   UNL     1      -0.077   2.947   0.462  0.00  0.00    +0.139 C 
ATOM      6  C   UNL     1      -1.423   2.261   0.343  0.00  0.00    +0.268 C 
ATOM      7  O   UNL     1      -2.508   2.792   0.230  0.00  0.00    -0.271 OA
ATOM      8  N   UNL     1      -1.164   0.940   0.382  0.00  0.00    -0.137 N 
ATOM      9  C   UNL     1       0.146   0.697   0.508  0.00  0.00    +0.327 C 
ATOM     10  O   UNL     1       0.624  -0.418   0.566  0.00  0.00    -0.251 OA
ATOM     11  N   UNL     1       0.874   1.827   0.565  0.00  0.00    -0.280 N 
ATOM     12  H   UNL     1       1.951   2.027   0.664  0.00  0.00    +0.152 HD
BRANCH   5  13
ATOM     13  C   UNL     1      -0.025   3.801   1.703  0.00  0.00    -0.015 A 
ATOM     14  C   UNL     1      -0.401   5.130   1.643  0.00  0.00    +0.006 A 
ATOM     15  C   UNL     1      -0.358   5.913   2.782  0.00  0.00    +0.000 A 
ATOM     16  C   UNL     1       0.070   5.369   3.978  0.00  0.00    +0.000 A 
ATOM     17  C   UNL     1       0.452   4.042   4.037  0.00  0.00    +0.000 A 
ATOM     18  C   UNL     1       0.404   3.258   2.899  0.00  0.00    +0.006 A 
ENDBRANCH   5  13
BRANCH   5  20
ATOM     19  C   UNL     1       0.207   2.884  -2.019  0.00  0.00    +0.007 C 
ATOM     20  C   UNL     1       0.212   3.787  -0.784  0.00  0.00    +0.037 C 
ENDBRANCH   5  20
ENDBRANCH   1   8
BRANCH   2  21
ATOM     21  C   UNL     1      -3.350  -1.835  -0.927  0.00  0.00    +0.174 C 
BRANCH  21  22
ATOM     22  S   UNL     1      -3.304  -2.593  -2.571  0.00  0.00    -0.075 S 
BRANCH  22  23
ATOM     23  C   UNL     1      -4.600  -3.774  -2.399  0.00  0.00    +0.209 A 
ATOM     24  N   UNL     1      -5.334  -3.976  -1.329  0.00  0.00    -0.121 NA
ATOM     25  N   UNL     1      -6.189  -4.910  -1.549  0.00  0.00    -0.127 NA
ATOM     26  C   UNL     1      -6.047  -5.368  -2.771  0.00  0.00    +0.182 A 
ATOM     27  N   UNL     1      -5.024  -4.655  -3.353  0.00  0.00    -0.224 N 
BRANCH  26  28
ATOM     28  C   UNL     1      -6.836  -6.447  -3.402  0.00  0.00    +0.021 A 
ATOM     29  C   UNL     1      -8.052  -6.843  -2.842  0.00  0.00    +0.015 A 
ATOM     30  C   UNL     1      -8.789  -7.845  -3.437  0.00  0.00    +0.046 A 
ATOM     31  C   UNL     1      -8.316  -8.469  -4.585  0.00  0.00    +0.121 A 
ATOM     32  C   UNL     1      -7.104  -8.081  -5.141  0.00  0.00    +0.046 A 
ATOM     33  C   UNL     1      -6.365  -7.076  -4.556  0.00  0.00    +0.015 A 
BRANCH  31  34
ATOM     34  O   UNL     1      -9.042  -9.460  -5.165  0.00  0.00    -0.492 OA
BRANCH  34  35
ATOM     35  C   UNL     1     -10.279  -9.809  -4.540  0.00  0.00    +0.225 C 
ATOM     36  C   UNL     1     -10.949 -10.935  -5.330  0.00  0.00    +0.048 C 
ENDBRANCH  34  35
ENDBRANCH  31  34
ENDBRANCH  26  28
BRANCH  27  37
ATOM     37  N   UNL     1      -4.537  -4.798  -4.621  0.00  0.00    -0.295 N 
ATOM     38  H   UNL     1      -4.970  -5.551  -5.296  0.00  0.00    +0.163 HD
ATOM     39  H   UNL     1      -3.710  -4.160  -4.967  0.00  0.00    +0.163 HD
ENDBRANCH  27  37
ENDBRANCH  22  23
ENDBRANCH  21  22
ENDBRANCH   2  21
TORSDOF 10
