REMARK  Name = ZINC08651354
REMARK  9 active torsions:
REMARK  status: ('A' for Active; 'I' for Inactive)
REMARK    1  A    between atoms: C_1  and  C_2
REMARK    2  A    between atoms: C_2  and  C_3
REMARK    3  A    between atoms: C_2  and  C_4
REMARK    4  A    between atoms: C_4  and  N_5
REMARK    5  A    between atoms: C_6  and  C_23
REMARK    6  A    between atoms: C_9  and  S_10
REMARK    7  A    between atoms: S_10  and  C_11
REMARK    8  A    between atoms: C_11  and  C_12
REMARK    9  A    between atoms: N_14  and  C_15
REMARK                            x       y       z     vdW  Elec       q    Type
REMARK                         _______ _______ _______ _____ _____    ______ ____
ROOT
ATOM      1  N   UNL     1       1.920  -0.247   2.071  0.00  0.00    -0.302 N 
ATOM      2  C   UNL     1       2.444   0.520   3.086  0.00  0.00    +0.168 A 
ATOM      3  N   UNL     1       1.964   0.049   4.213  0.00  0.00    -0.128 NA
ATOM      4  N   UNL     1       1.187  -0.947   3.976  0.00  0.00    -0.122 NA
ATOM      5  C   UNL     1       1.118  -1.169   2.683  0.00  0.00    +0.192 A 
ENDROOT
BRANCH   2   6
ATOM      6  C   UNL     1       3.372   1.661   2.935  0.00  0.00    +0.054 A 
ATOM      7  C   UNL     1       4.511   1.538   2.137  0.00  0.00    +0.014 A 
ATOM      8  C   UNL     1       5.373   2.606   2.000  0.00  0.00    +0.001 A 
ATOM      9  C   UNL     1       5.112   3.798   2.652  0.00  0.00    +0.003 A 
ATOM     10  C   UNL     1       3.987   3.929   3.445  0.00  0.00    +0.039 A 
ATOM     11  C   UNL     1       3.111   2.869   3.587  0.00  0.00    +0.134 A 
ATOM     12  F   UNL     1       2.009   2.999   4.357  0.00  0.00    -0.205 F 
ENDBRANCH   2   6
BRANCH   1  13
ATOM     13  C   UNL     1       2.166  -0.102   0.634  0.00  0.00    +0.129 C 
BRANCH  13  15
ATOM     14  C   UNL     1      -0.223   0.455   0.160  0.00  0.00    +0.009 C 
ATOM     15  C   UNL     1       1.219   0.954   0.059  0.00  0.00    +0.003 C 
ATOM     16  C   UNL     1       1.570   1.208  -1.408  0.00  0.00    +0.009 C 
ENDBRANCH  13  15
ENDBRANCH   1  13
BRANCH   5  17
ATOM     17  S   UNL     1       0.171  -2.423   1.886  0.00  0.00    -0.077 S 
BRANCH  17  18
ATOM     18  C   UNL     1      -0.592  -3.205   3.329  0.00  0.00    +0.173 C 
BRANCH  18  19
ATOM     19  C   UNL     1      -1.473  -4.341   2.877  0.00  0.00    +0.228 C 
ATOM     20  O   UNL     1      -1.575  -4.596   1.696  0.00  0.00    -0.275 OA
ATOM     21  N   UNL     1      -2.147  -5.073   3.786  0.00  0.00    -0.282 N 
ATOM     22  H   UNL     1      -2.129  -4.821   4.722  0.00  0.00    +0.155 HD
BRANCH  21  23
ATOM     23  C   UNL     1      -2.875  -6.198   3.378  0.00  0.00    +0.070 A 
ATOM     24  C   UNL     1      -3.759  -6.106   2.310  0.00  0.00    +0.064 A 
ATOM     25  C   UNL     1      -4.473  -7.219   1.908  0.00  0.00    +0.022 A 
ATOM     26  C   UNL     1      -4.314  -8.421   2.572  0.00  0.00    +0.003 A 
ATOM     27  C   UNL     1      -3.439  -8.515   3.639  0.00  0.00    +0.022 A 
ATOM     28  C   UNL     1      -2.719  -7.407   4.044  0.00  0.00    +0.064 A 
ATOM     29 CL   UNL     1      -1.620  -7.527   5.383  0.00  0.00    -0.082 Cl
ATOM     30 CL   UNL     1      -3.963  -4.596   1.479  0.00  0.00    -0.082 Cl
ENDBRANCH  21  23
ENDBRANCH  18  19
ENDBRANCH  17  18
ENDBRANCH   5  17
TORSDOF 7
