REMARK  Name = ZINC59170545
REMARK  8 active torsions:
REMARK  status: ('A' for Active; 'I' for Inactive)
REMARK    1  A    between atoms: C_1  and  C_2
REMARK    2  A    between atoms: C_2  and  O_3
REMARK    3  A    between atoms: O_3  and  C_4
REMARK    4  A    between atoms: N_12  and  C_13
REMARK    5  A    between atoms: C_16  and  S_19
REMARK    6  A    between atoms: S_19  and  N_22
REMARK    7  A    between atoms: C_23  and  C_25
REMARK    8  A    between atoms: N_27  and  C_28
REMARK                            x       y       z     vdW  Elec       q    Type
REMARK                         _______ _______ _______ _____ _____    ______ ____
ROOT
ATOM      1  C   UNL     1      -1.637  -1.475  -0.015  0.00  0.00    +0.163 A 
ATOM      2  C   UNL     1      -0.594  -2.034   0.704  0.00  0.00    +0.049 A 
ATOM      3  C   UNL     1      -0.822  -3.093   1.570  0.00  0.00    +0.004 A 
ATOM      4  C   UNL     1      -2.089  -3.606   1.726  0.00  0.00    +0.012 A 
ATOM      5  C   UNL     1      -3.155  -3.055   1.005  0.00  0.00    +0.022 A 
ATOM      6  C   UNL     1      -2.927  -1.975   0.134  0.00  0.00    +0.179 A 
ATOM      7  O   UNL     1      -3.961  -1.432  -0.554  0.00  0.00    -0.435 OA
ATOM      8  C   UNL     1      -5.014  -2.244  -0.828  0.00  0.00    +0.212 A 
ATOM      9  N   UNL     1      -5.616  -2.203  -1.997  0.00  0.00    -0.325 N 
ATOM     10  C   UNL     1      -5.462  -3.175   0.226  0.00  0.00    +0.098 A 
ATOM     11  C   UNL     1      -4.512  -3.588   1.148  0.00  0.00    +0.030 A 
ATOM     12  H   UNL     1      -6.293  -2.861  -2.217  0.00  0.00    +0.169 HD
ENDROOT
BRANCH   9  13
ATOM     13  C   UNL     1      -5.286  -1.232  -2.902  0.00  0.00    +0.042 A 
ATOM     14  C   UNL     1      -5.142   0.094  -2.488  0.00  0.00    +0.027 A 
ATOM     15  C   UNL     1      -4.810   1.068  -3.406  0.00  0.00    +0.030 A 
ATOM     16  C   UNL     1      -4.618   0.734  -4.735  0.00  0.00    +0.105 A 
ATOM     17  C   UNL     1      -4.759  -0.578  -5.153  0.00  0.00    +0.030 A 
ATOM     18  C   UNL     1      -5.085  -1.563  -4.245  0.00  0.00    +0.027 A 
BRANCH  16  19
ATOM     19  S   UNL     1      -4.193   1.984  -5.901  0.00  0.00    +0.056 S 
ATOM     20  O   UNL     1      -4.603   1.508  -7.176  0.00  0.00    -0.153 OA
ATOM     21  O   UNL     1      -4.656   3.215  -5.364  0.00  0.00    -0.153 OA
BRANCH  19  22
ATOM     22  N   UNL     1      -2.540   2.077  -5.940  0.00  0.00    -0.204 NA
ATOM     23  H   UNL     1      -2.009   1.494  -5.375  0.00  0.00    +0.144 HD
ATOM     24  H   UNL     1      -2.104   2.713  -6.527  0.00  0.00    +0.144 HD
ENDBRANCH  19  22
ENDBRANCH  16  19
ENDBRANCH   9  13
BRANCH  10  25
ATOM     25  C   UNL     1      -6.854  -3.652   0.289  0.00  0.00    +0.253 C 
ATOM     26  O   UNL     1      -7.164  -4.519   1.084  0.00  0.00    -0.270 OA
ATOM     27  N   UNL     1      -7.783  -3.129  -0.534  0.00  0.00    -0.281 N 
ATOM     28  H   UNL     1      -7.526  -2.477  -1.204  0.00  0.00    +0.155 HD
BRANCH  27  29
ATOM     29  C   UNL     1      -9.120  -3.526  -0.422  0.00  0.00    +0.035 A 
ATOM     30  C   UNL     1      -9.430  -4.836  -0.082  0.00  0.00    +0.023 A 
ATOM     31  C   UNL     1     -10.750  -5.226   0.028  0.00  0.00    +0.003 A 
ATOM     32  C   UNL     1     -11.764  -4.313  -0.201  0.00  0.00    +0.020 A 
ATOM     33  C   UNL     1     -11.459  -3.007  -0.542  0.00  0.00    +0.043 A 
ATOM     34  C   UNL     1     -10.139  -2.610  -0.646  0.00  0.00    +0.043 A 
ATOM     35 CL   UNL     1     -12.734  -1.865  -0.830  0.00  0.00    -0.083 Cl
ENDBRANCH  27  29
ENDBRANCH  10  25
BRANCH   1  36
ATOM     36  O   UNL     1      -1.402  -0.436  -0.860  0.00  0.00    -0.489 OA
BRANCH  36  38
ATOM     37  C   UNL     1       0.014   1.190  -1.952  0.00  0.00    +0.048 C 
ATOM     38  C   UNL     1      -0.053   0.025  -0.962  0.00  0.00    +0.226 C 
ENDBRANCH  36  38
ENDBRANCH   1  36
TORSDOF 7
