REMARK  Name = ZINC37628631
REMARK  8 active torsions:
REMARK  status: ('A' for Active; 'I' for Inactive)
REMARK    1  A    between atoms: C_1  and  S_2
REMARK    2  A    between atoms: S_2  and  N_5
REMARK    3  A    between atoms: N_5  and  C_6
REMARK    4  A    between atoms: C_10  and  N_12
REMARK    5  A    between atoms: C_13  and  C_15
REMARK    6  A    between atoms: C_15  and  N_16
REMARK    7  A    between atoms: C_17  and  C_19
REMARK    8  A    between atoms: C_19  and  N_20
REMARK                            x       y       z     vdW  Elec       q    Type
REMARK                         _______ _______ _______ _____ _____    ______ ____
ROOT
ATOM      1  N   UNL     1       5.397  -1.358  -2.706  0.00  0.00    -0.283 N 
ATOM      2  C   UNL     1       4.975  -2.204  -3.667  0.00  0.00    +0.234 C 
ATOM      3  O   UNL     1       3.826  -2.159  -4.052  0.00  0.00    -0.274 OA
ATOM      4  H   UNL     1       6.334  -1.339  -2.454  0.00  0.00    +0.155 HD
ENDROOT
BRANCH   1   9
ATOM      5  C   UNL     1       2.226   0.044  -1.468  0.00  0.00    +0.050 A 
ATOM      6  C   UNL     1       2.682   1.182  -0.814  0.00  0.00    +0.026 A 
ATOM      7  C   UNL     1       4.033   1.472  -0.789  0.00  0.00    +0.024 A 
ATOM      8  C   UNL     1       4.934   0.632  -1.416  0.00  0.00    +0.062 A 
ATOM      9  C   UNL     1       4.484  -0.508  -2.072  0.00  0.00    +0.054 A 
ATOM     10  C   UNL     1       3.129  -0.804  -2.093  0.00  0.00    +0.049 A 
ATOM     11 CL   UNL     1       6.631   1.000  -1.383  0.00  0.00    -0.082 Cl
BRANCH   5  12
ATOM     12  N   UNL     1       0.860  -0.248  -1.493  0.00  0.00    -0.221 N 
ATOM     13  H   UNL     1       0.435  -0.512  -2.324  0.00  0.00    +0.173 HD
BRANCH  12  15
ATOM     14  C   UNL     1       0.719  -1.347   1.027  0.00  0.00    +0.218 C 
ATOM     15  S   UNL     1      -0.034  -0.144  -0.102  0.00  0.00    +0.040 S 
ATOM     16  O   UNL     1      -1.337  -0.572  -0.476  0.00  0.00    -0.155 OA
ATOM     17  O   UNL     1       0.186   1.177   0.372  0.00  0.00    -0.155 OA
ENDBRANCH  12  15
ENDBRANCH   5  12
ENDBRANCH   1   9
BRANCH   2  18
ATOM     18  C   UNL     1       5.931  -3.206  -4.262  0.00  0.00    +0.200 C 
BRANCH  18  19
ATOM     19  N   UNL     1       5.236  -4.001  -5.277  0.00  0.00    -0.308 N 
ATOM     20  C   UNL     1       5.897  -4.966  -5.947  0.00  0.00    +0.196 C 
ATOM     21  O   UNL     1       7.068  -5.175  -5.709  0.00  0.00    -0.278 OA
ATOM     22  H   UNL     1       4.299  -3.834  -5.466  0.00  0.00    +0.149 HD
BRANCH  20  23
ATOM     23  C   UNL     1       5.182  -5.784  -6.990  0.00  0.00    +0.011 C 
BRANCH  23  24
ATOM     24  N   UNL     1       6.114  -6.760  -7.571  0.00  0.00    +0.384 N 
ATOM     25  H   UNL     1       6.888  -6.274  -7.997  0.00  0.00    -0.089 HD
ATOM     26  H   UNL     1       6.458  -7.369  -6.844  0.00  0.00    -0.089 HD
ATOM     27  H   UNL     1       5.635  -7.308  -8.270  0.00  0.00    -0.089 HD
ENDBRANCH  23  24
ENDBRANCH  20  23
ENDBRANCH  18  19
ENDBRANCH   2  18
TORSDOF 7
