REMARK  Name = ZINC45356126
REMARK  9 active torsions:
REMARK  status: ('A' for Active; 'I' for Inactive)
REMARK    1  A    between atoms: C_1  and  C_2
REMARK    2  A    between atoms: C_2  and  C_4
REMARK    3  A    between atoms: C_2  and  N_14
REMARK    4  A    between atoms: C_7  and  S_10
REMARK    5  A    between atoms: S_10  and  N_13
REMARK    6  A    between atoms: N_14  and  C_15
REMARK    7  A    between atoms: N_14  and  C_16
REMARK    8  A    between atoms: C_16  and  C_17
REMARK    9  A    between atoms: N_19  and  C_20
REMARK                            x       y       z     vdW  Elec       q    Type
REMARK                         _______ _______ _______ _____ _____    ______ ____
ROOT
ATOM      1  N   UNL     1       0.726  -0.491   1.181  0.00  0.00    +0.388 N 
ATOM      2  C   UNL     1       0.029  -0.016   2.384  0.00  0.00    -0.095 C 
ATOM      3  H   UNL     1       1.673  -0.142   1.182  0.00  0.00    -0.081 HD
ENDROOT
BRANCH   1   5
ATOM      4  C   UNL     1       0.006   1.525  -0.008  0.00  0.00    -0.008 C 
ATOM      5  C   UNL     1       0.026  -0.005  -0.015  0.00  0.00    -0.041 C 
BRANCH   5   6
ATOM      6  C   UNL     1       0.741  -0.492  -1.248  0.00  0.00    -0.061 A 
ATOM      7  C   UNL     1       2.122  -0.514  -1.284  0.00  0.00    +0.004 A 
ATOM      8  C   UNL     1       2.778  -0.961  -2.415  0.00  0.00    +0.029 A 
ATOM      9  C   UNL     1       2.052  -1.387  -3.512  0.00  0.00    +0.105 A 
ATOM     10  C   UNL     1       0.670  -1.366  -3.477  0.00  0.00    +0.029 A 
ATOM     11  C   UNL     1       0.015  -0.923  -2.343  0.00  0.00    +0.004 A 
BRANCH   9  12
ATOM     12  S   UNL     1       2.888  -1.956  -4.955  0.00  0.00    +0.056 S 
ATOM     13  O   UNL     1       1.987  -1.785  -6.040  0.00  0.00    -0.153 OA
ATOM     14  O   UNL     1       4.179  -1.364  -4.936  0.00  0.00    -0.153 OA
BRANCH  12  15
ATOM     15  N   UNL     1       3.113  -3.587  -4.779  0.00  0.00    -0.204 NA
ATOM     16  H   UNL     1       2.797  -4.037  -3.980  0.00  0.00    +0.144 HD
ATOM     17  H   UNL     1       3.561  -4.093  -5.475  0.00  0.00    +0.144 HD
ENDBRANCH  12  15
ENDBRANCH   9  12
ENDBRANCH   5   6
ENDBRANCH   1   5
BRANCH   1  18
ATOM     18  C   UNL     1       0.745  -1.960   1.175  0.00  0.00    +0.019 C 
BRANCH  18  19
ATOM     19  C   UNL     1       1.568  -2.457   2.335  0.00  0.00    +0.201 C 
ATOM     20  O   UNL     1       2.088  -1.666   3.093  0.00  0.00    -0.278 OA
ATOM     21  N   UNL     1       1.726  -3.781   2.530  0.00  0.00    -0.286 N 
ATOM     22  H   UNL     1       1.247  -4.414   1.974  0.00  0.00    +0.155 HD
BRANCH  21  23
ATOM     23  C   UNL     1       2.584  -4.243   3.537  0.00  0.00    +0.052 A 
ATOM     24  C   UNL     1       3.630  -3.445   3.979  0.00  0.00    +0.027 A 
ATOM     25  C   UNL     1       4.475  -3.902   4.972  0.00  0.00    +0.040 A 
ATOM     26  C   UNL     1       4.279  -5.155   5.527  0.00  0.00    +0.125 A 
ATOM     27  C   UNL     1       3.236  -5.954   5.088  0.00  0.00    +0.060 A 
ATOM     28  C   UNL     1       2.385  -5.498   4.099  0.00  0.00    +0.065 A 
ATOM     29 CL   UNL     1       1.073  -6.496   3.554  0.00  0.00    -0.082 Cl
ATOM     30  F   UNL     1       5.106  -5.600   6.498  0.00  0.00    -0.205 F 
ENDBRANCH  21  23
ENDBRANCH  18  19
ENDBRANCH   1  18
TORSDOF 7
