REMARK  Name = ZINC04354028
REMARK  12 active torsions:
REMARK  status: ('A' for Active; 'I' for Inactive)
REMARK    1  A    between atoms: C_1  and  C_2
REMARK    2  A    between atoms: C_2  and  C_3
REMARK    3  A    between atoms: C_2  and  C_4
REMARK    4  A    between atoms: C_4  and  C_6
REMARK    5  A    between atoms: C_4  and  N_18
REMARK    6  A    between atoms: C_8  and  C_11
REMARK    7  A    between atoms: C_19  and  C_21
REMARK    8  A    between atoms: C_21  and  C_22
REMARK    9  A    between atoms: C_22  and  C_23
REMARK   10  A    between atoms: C_23  and  C_24
REMARK   11  A    between atoms: C_24  and  C_25
REMARK   12  A    between atoms: C_25  and  N_26
REMARK                            x       y       z     vdW  Elec       q    Type
REMARK                         _______ _______ _______ _____ _____    ______ ____
ROOT
ATOM      1  C   UNL     1      -1.433  -0.534   0.013  0.00  0.00    +0.164 C 
ENDROOT
BRANCH   1   2
ATOM      2  C   UNL     1      -2.162  -0.034  -1.208  0.00  0.00    +0.248 A 
ATOM      3  N   UNL     1      -3.053   0.915  -1.227  0.00  0.00    -0.190 NA
ATOM      4  C   UNL     1      -3.498   1.104  -2.482  0.00  0.00    +0.202 A 
ATOM      5  N   UNL     1      -2.883   0.262  -3.276  0.00  0.00    -0.056 NA
ATOM      6  O   UNL     1      -1.999  -0.489  -2.457  0.00  0.00    -0.336 OA
BRANCH   4   7
ATOM      7  C   UNL     1      -4.518   2.099  -2.899  0.00  0.00    +0.023 A 
ATOM      8  C   UNL     1      -5.096   2.944  -1.954  0.00  0.00    +0.013 A 
ATOM      9  C   UNL     1      -6.043   3.868  -2.347  0.00  0.00    +0.016 A 
ATOM     10  C   UNL     1      -6.419   3.955  -3.676  0.00  0.00    +0.018 A 
ATOM     11  C   UNL     1      -5.848   3.118  -4.618  0.00  0.00    +0.016 A 
ATOM     12  C   UNL     1      -4.895   2.195  -4.237  0.00  0.00    +0.013 A 
ATOM     13 BR   UNL     1      -7.718   5.223  -4.207  0.00  0.00    -0.050 Br
ENDBRANCH   4   7
ENDBRANCH   1   2
BRANCH   1  14
ATOM     14  N   UNL     1      -1.413  -1.998   0.005  0.00  0.00    -0.304 N 
ATOM     15  C   UNL     1      -1.292  -2.677   1.163  0.00  0.00    +0.214 C 
ATOM     16  O   UNL     1      -1.198  -2.075   2.212  0.00  0.00    -0.276 OA
ATOM     17  H   UNL     1      -1.488  -2.480  -0.834  0.00  0.00    +0.149 HD
BRANCH  15  18
ATOM     18  C   UNL     1      -1.271  -4.184   1.155  0.00  0.00    +0.096 C 
BRANCH  18  19
ATOM     19  C   UNL     1      -1.125  -4.700   2.587  0.00  0.00    +0.009 C 
BRANCH  19  20
ATOM     20  C   UNL     1      -1.104  -6.230   2.579  0.00  0.00    -0.001 C 
BRANCH  20  21
ATOM     21  C   UNL     1      -0.958  -6.746   4.012  0.00  0.00    -0.020 C 
BRANCH  21  22
ATOM     22  C   UNL     1      -0.937  -8.276   4.004  0.00  0.00    -0.086 C 
BRANCH  22  23
ATOM     23  N   UNL     1      -0.796  -8.771   5.379  0.00  0.00    +0.378 N 
ATOM     24  H   UNL     1       0.065  -8.425   5.775  0.00  0.00    -0.090 HD
ATOM     25  H   UNL     1      -1.575  -8.448   5.934  0.00  0.00    -0.090 HD
ATOM     26  H   UNL     1      -0.783  -9.780   5.374  0.00  0.00    -0.090 HD
ENDBRANCH  22  23
ENDBRANCH  21  22
ENDBRANCH  20  21
ENDBRANCH  19  20
ENDBRANCH  18  19
ENDBRANCH  15  18
ENDBRANCH   1  14
BRANCH   1  28
ATOM     27  C   UNL     1      -0.019   1.526   0.010  0.00  0.00    +0.009 C 
ATOM     28  C   UNL     1       0.002  -0.004   0.002  0.00  0.00    +0.012 C 
ATOM     29  C   UNL     1       0.742  -0.511   1.242  0.00  0.00    +0.009 C 
ENDBRANCH   1  28
TORSDOF 10
