REMARK  Name = ZINC20868801
REMARK  9 active torsions:
REMARK  status: ('A' for Active; 'I' for Inactive)
REMARK    1  A    between atoms: C_1  and  C_2
REMARK    2  A    between atoms: C_2  and  C_3
REMARK    3  A    between atoms: C_3  and  C_4
REMARK    4  A    between atoms: C_3  and  C_11
REMARK    5  A    between atoms: C_3  and  O_26
REMARK    6  A    between atoms: C_7  and  O_10
REMARK    7  A    between atoms: C_11  and  C_13
REMARK    8  A    between atoms: C_11  and  C_20
REMARK    9  A    between atoms: C_13  and  N_14
REMARK                            x       y       z     vdW  Elec       q    Type
REMARK                         _______ _______ _______ _____ _____    ______ ____
ROOT
ATOM      1  C   UNL     1      -1.375   2.168   0.064  0.00  0.00    +0.039 C 
ENDROOT
BRANCH   1   2
ATOM      2  C   UNL     1      -0.101   1.363   0.081  0.00  0.00    -0.043 A 
ATOM      3  C   UNL     1       1.105   1.983   0.351  0.00  0.00    +0.004 A 
ATOM      4  C   UNL     1       2.274   1.247   0.360  0.00  0.00    +0.000 A 
ATOM      5  C   UNL     1       2.238  -0.111   0.100  0.00  0.00    +0.000 A 
ATOM      6  C   UNL     1       1.033  -0.731  -0.170  0.00  0.00    +0.000 A 
ATOM      7  C   UNL     1      -0.137   0.006  -0.180  0.00  0.00    +0.004 A 
ENDBRANCH   1   2
BRANCH   1   8
ATOM      8  C   UNL     1      -1.379   3.091  -1.156  0.00  0.00    +0.096 C 
BRANCH   8   9
ATOM      9  C   UNL     1      -1.321   2.263  -2.414  0.00  0.00    -0.015 A 
ATOM     10  C   UNL     1      -1.872   0.995  -2.430  0.00  0.00    +0.010 A 
ATOM     11  C   UNL     1      -1.825   0.235  -3.584  0.00  0.00    +0.046 A 
ATOM     12  C   UNL     1      -1.215   0.742  -4.722  0.00  0.00    +0.117 A 
ATOM     13  C   UNL     1      -0.659   2.013  -4.701  0.00  0.00    +0.046 A 
ATOM     14  C   UNL     1      -0.713   2.770  -3.547  0.00  0.00    +0.010 A 
BRANCH  12  15
ATOM     15  O   UNL     1      -1.164  -0.005  -5.856  0.00  0.00    -0.507 OA
ATOM     16  H   UNL     1      -0.680   0.398  -6.759  0.00  0.00    +0.292 HD
ENDBRANCH  12  15
ENDBRANCH   8   9
BRANCH   8  18
ATOM     17  C   UNL     1      -2.721   4.763  -2.439  0.00  0.00    +0.007 C 
ATOM     18  C   UNL     1      -2.658   3.931  -1.157  0.00  0.00    +0.037 C 
ENDBRANCH   8  18
BRANCH   8  19
ATOM     19  O   UNL     1      -0.242   3.956  -1.103  0.00  0.00    -0.383 OA
ATOM     20  H   UNL     1       0.772   3.530  -1.095  0.00  0.00    +0.211 HD
ENDBRANCH   8  19
ENDBRANCH   1   8
BRANCH   1  21
ATOM     21  C   UNL     1      -1.465   3.007   1.339  0.00  0.00    -0.068 C 
BRANCH  21  22
ATOM     22  N   UNL     1      -1.582   2.119   2.503  0.00  0.00    +0.380 N 
ATOM     23  C   UNL     1      -2.850   1.379   2.475  0.00  0.00    -0.079 C 
ATOM     24  C   UNL     1      -2.874   0.362   3.618  0.00  0.00    -0.019 C 
ATOM     25  C   UNL     1      -2.720   1.096   4.952  0.00  0.00    -0.004 C 
ATOM     26  C   UNL     1      -1.415   1.897   4.937  0.00  0.00    -0.019 C 
ATOM     27  C   UNL     1      -1.433   2.870   3.756  0.00  0.00    -0.079 C 
ATOM     28  H   UNL     1      -0.765   1.384   2.453  0.00  0.00    -0.082 HD
ENDBRANCH  21  22
ENDBRANCH   1  21
TORSDOF 8
