REMARK  Name = ZINC67540362
REMARK  11 active torsions:
REMARK  status: ('A' for Active; 'I' for Inactive)
REMARK    1  A    between atoms: C_1  and  C_2
REMARK    2  A    between atoms: C_2  and  C_3
REMARK    3  A    between atoms: C_2  and  C_4
REMARK    4  A    between atoms: C_7  and  C_10
REMARK    5  A    between atoms: C_10  and  N_11
REMARK    6  A    between atoms: C_15  and  C_18
REMARK    7  A    between atoms: C_15  and  O_28
REMARK    8  A    between atoms: C_18  and  N_19
REMARK    9  A    between atoms: N_19  and  C_20
REMARK   10  A    between atoms: C_20  and  C_21
REMARK   11  A    between atoms: C_21  and  C_22
REMARK                            x       y       z     vdW  Elec       q    Type
REMARK                         _______ _______ _______ _____ _____    ______ ____
ROOT
ATOM      1  N   UNL     1      -6.301  -1.033  -0.633  0.00  0.00    -0.295 N 
ATOM      2  C   UNL     1      -6.936   0.012   0.160  0.00  0.00    +0.108 C 
ATOM      3  C   UNL     1      -8.148   0.581  -0.580  0.00  0.00    +0.022 C 
ATOM      4  C   UNL     1      -7.722   0.959  -2.003  0.00  0.00    +0.044 C 
ATOM      5  C   UNL     1      -7.393  -0.327  -2.767  0.00  0.00    +0.127 C 
ATOM      6  C   UNL     1      -6.472  -1.184  -1.946  0.00  0.00    +0.246 C 
ATOM      7  O   UNL     1      -5.854  -2.064  -2.508  0.00  0.00    -0.273 OA
ENDROOT
BRANCH   5   8
ATOM      8  O   UNL     1      -8.600  -1.042  -3.036  0.00  0.00    -0.381 OA
ATOM      9  H   UNL     1      -9.091  -1.298  -2.243  0.00  0.00    +0.211 HD
ENDBRANCH   5   8
BRANCH   1  10
ATOM     10  C   UNL     1      -5.413  -1.974   0.057  0.00  0.00    +0.143 C 
BRANCH  10  14
ATOM     11  C   UNL     1      -1.425  -0.444   0.040  0.00  0.00    -0.045 A 
ATOM     12  C   UNL     1      -2.281  -0.130   1.079  0.00  0.00    +0.004 A 
ATOM     13  C   UNL     1      -3.572  -0.625   1.084  0.00  0.00    +0.005 A 
ATOM     14  C   UNL     1      -4.007  -1.433   0.050  0.00  0.00    -0.030 A 
ATOM     15  C   UNL     1      -3.151  -1.747  -0.989  0.00  0.00    +0.005 A 
ATOM     16  C   UNL     1      -1.861  -1.249  -0.996  0.00  0.00    +0.004 A 
BRANCH  11  18
ATOM     17  C   UNL     1      -0.058   1.625   0.037  0.00  0.00    +0.012 C 
ATOM     18  C   UNL     1      -0.018   0.095   0.034  0.00  0.00    +0.013 C 
ATOM     19  C   UNL     1       0.722  -0.398   1.279  0.00  0.00    +0.012 C 
ENDBRANCH  11  18
ENDBRANCH  10  14
ENDBRANCH   1  10
BRANCH   5  20
ATOM     20  C   UNL     1      -6.708   0.028  -4.088  0.00  0.00    -0.038 C 
BRANCH  20  21
ATOM     21  N   UNL     1      -7.601   0.876  -4.889  0.00  0.00    +0.382 N 
ATOM     22  H   UNL     1      -8.490   0.413  -5.005  0.00  0.00    -0.086 HD
ATOM     23  H   UNL     1      -7.740   1.758  -4.419  0.00  0.00    -0.086 HD
BRANCH  21  24
ATOM     24  C   UNL     1      -6.998   1.114  -6.208  0.00  0.00    -0.075 C 
BRANCH  24  25
ATOM     25  C   UNL     1      -7.928   1.997  -7.042  0.00  0.00    +0.055 C 
BRANCH  25  26
ATOM     26  C   UNL     1      -7.309   2.241  -8.394  0.00  0.00    +0.105 A 
ATOM     27  N   UNL     1      -7.894   1.990  -9.585  0.00  0.00    -0.348 N 
ATOM     28  H   UNL     1      -8.781   1.623  -9.724  0.00  0.00    +0.166 HD
ATOM     29  C   UNL     1      -7.002   2.350 -10.559  0.00  0.00    +0.104 A 
ATOM     30  C   UNL     1      -5.903   2.809  -9.930  0.00  0.00    +0.130 A 
ATOM     31  N   UNL     1      -6.121   2.737  -8.608  0.00  0.00    -0.241 NA
ENDBRANCH  25  26
ENDBRANCH  24  25
ENDBRANCH  21  24
ENDBRANCH  20  21
ENDBRANCH   5  20
TORSDOF 9
