REMARK  Name = ZINC42955720
REMARK  11 active torsions:
REMARK  status: ('A' for Active; 'I' for Inactive)
REMARK    1  A    between atoms: C_1  and  C_2
REMARK    2  A    between atoms: C_2  and  C_3
REMARK    3  A    between atoms: C_3  and  C_5
REMARK    4  A    between atoms: C_3  and  N_23
REMARK    5  A    between atoms: C_5  and  C_7
REMARK    6  A    between atoms: C_5  and  N_14
REMARK    7  A    between atoms: N_14  and  C_15
REMARK    8  A    between atoms: N_14  and  C_20
REMARK    9  A    between atoms: C_15  and  C_16
REMARK   10  A    between atoms: C_20  and  C_21
REMARK   11  A    between atoms: C_20  and  C_22
REMARK                            x       y       z     vdW  Elec       q    Type
REMARK                         _______ _______ _______ _____ _____    ______ ____
ROOT
ATOM      1  C   UNL     1      -0.554  -1.746  -0.607  0.00  0.00    +0.073 C 
ENDROOT
BRANCH   1   2
ATOM      2  C   UNL     1       0.714  -2.358  -0.070  0.00  0.00    -0.032 A 
ATOM      3  C   UNL     1       1.737  -2.699  -0.936  0.00  0.00    +0.006 A 
ATOM      4  C   UNL     1       2.900  -3.260  -0.444  0.00  0.00    +0.015 A 
ATOM      5  C   UNL     1       3.041  -3.481   0.914  0.00  0.00    +0.018 A 
ATOM      6  C   UNL     1       2.017  -3.140   1.780  0.00  0.00    +0.015 A 
ATOM      7  C   UNL     1       0.856  -2.574   1.288  0.00  0.00    +0.006 A 
ATOM      8 BR   UNL     1       4.632  -4.249   1.588  0.00  0.00    -0.050 Br
ENDBRANCH   1   2
BRANCH   1   9
ATOM      9  C   UNL     1      -0.301  -0.280  -0.966  0.00  0.00    -0.053 C 
BRANCH   9  10
ATOM     10  N   UNL     1       0.240   0.424   0.204  0.00  0.00    +0.381 N 
ATOM     11  H   UNL     1       0.407   1.391  -0.033  0.00  0.00    -0.090 HD
ATOM     12  H   UNL     1      -0.423   0.373   0.963  0.00  0.00    -0.090 HD
ATOM     13  H   UNL     1       1.107  -0.008   0.485  0.00  0.00    -0.090 HD
ENDBRANCH   9  10
BRANCH   9  15
ATOM     14  C   UNL     1       0.863   1.252  -2.559  0.00  0.00    +0.002 C 
ATOM     15  C   UNL     1       0.704  -0.204  -2.117  0.00  0.00    -0.018 C 
ENDBRANCH   9  15
ENDBRANCH   1   9
BRANCH   1  16
ATOM     16  N   UNL     1      -0.982  -2.477  -1.807  0.00  0.00    -0.287 NA
BRANCH  16  17
ATOM     17  C   UNL     1      -1.507  -3.804  -1.456  0.00  0.00    +0.051 C 
ATOM     18  C   UNL     1      -0.358  -4.700  -0.991  0.00  0.00    +0.024 C 
ATOM     19  C   UNL     1      -2.534  -3.664  -0.331  0.00  0.00    +0.024 C 
ENDBRANCH  16  17
BRANCH  16  20
ATOM     20  C   UNL     1      -1.970  -1.704  -2.571  0.00  0.00    +0.199 C 
BRANCH  20  21
ATOM     21  C   UNL     1      -2.031  -2.231  -4.006  0.00  0.00    +0.402 C 
ATOM     22  F   UNL     1      -2.497  -3.550  -4.000  0.00  0.00    -0.169 F 
ATOM     23  F   UNL     1      -2.899  -1.433  -4.759  0.00  0.00    -0.169 F 
ATOM     24  F   UNL     1      -0.752  -2.191  -4.572  0.00  0.00    -0.169 F 
ENDBRANCH  20  21
ENDBRANCH  16  20
ENDBRANCH   1  16
TORSDOF 8
