REMARK  Name = ZINC34692104
REMARK  7 active torsions:
REMARK  status: ('A' for Active; 'I' for Inactive)
REMARK    1  A    between atoms: C_1  and  O_2
REMARK    2  A    between atoms: O_2  and  C_3
REMARK    3  A    between atoms: C_7  and  N_9
REMARK    4  A    between atoms: C_16  and  C_19
REMARK    5  A    between atoms: C_19  and  N_20
REMARK    6  A    between atoms: C_27  and  C_29
REMARK    7  A    between atoms: C_32  and  C_35
REMARK                            x       y       z     vdW  Elec       q    Type
REMARK                         _______ _______ _______ _____ _____    ______ ____
ROOT
ATOM      1  N   UNL     1       2.024  -9.519   6.453  0.00  0.00    +0.382 N 
ATOM      2  C   UNL     1       0.860  -8.818   6.991  0.00  0.00    -0.077 C 
ATOM      3  C   UNL     1      -0.375  -9.664   6.774  0.00  0.00    +0.000 C 
ATOM      4  C   UNL     1      -0.633 -10.525   8.024  0.00  0.00    +0.106 C 
ATOM      5  N   UNL     1       0.633 -11.047   8.579  0.00  0.00    -0.299 N 
ATOM      6  C   UNL     1       1.698 -11.553   7.738  0.00  0.00    +0.089 C 
ATOM      7  C   UNL     1       2.657 -10.403   7.356  0.00  0.00    -0.059 C 
ATOM      8  C   UNL     1       0.803 -11.052   9.916  0.00  0.00    +0.247 C 
ATOM      9  O   UNL     1       1.871 -11.382  10.392  0.00  0.00    -0.270 OA
ATOM     10  H   UNL     1       1.730 -10.046   5.645  0.00  0.00    -0.082 HD
ENDROOT
BRANCH   8  11
ATOM     11  C   UNL     1      -0.311 -10.655  10.804  0.00  0.00    +0.037 A 
ATOM     12  C   UNL     1      -1.614 -11.069  10.523  0.00  0.00    +0.013 A 
ATOM     13  C   UNL     1      -2.648 -10.696  11.356  0.00  0.00    +0.013 A 
ATOM     14  C   UNL     1      -2.397  -9.913  12.468  0.00  0.00    +0.055 A 
ATOM     15  C   UNL     1      -1.107  -9.499  12.753  0.00  0.00    +0.013 A 
ATOM     16  C   UNL     1      -0.063  -9.870  11.931  0.00  0.00    +0.013 A 
BRANCH  14  17
ATOM     17  C   UNL     1      -3.531  -9.509  13.373  0.00  0.00    +0.417 C 
ATOM     18  F   UNL     1      -3.693 -10.471  14.376  0.00  0.00    -0.166 F 
ATOM     19  F   UNL     1      -3.244  -8.271  13.957  0.00  0.00    -0.166 F 
ATOM     20  F   UNL     1      -4.711  -9.410  12.627  0.00  0.00    -0.166 F 
ENDBRANCH  14  17
ENDBRANCH   8  11
BRANCH   1  21
ATOM     21  C   UNL     1       3.008  -8.518   6.019  0.00  0.00    -0.045 C 
BRANCH  21  29
ATOM     22  N   UNL     1       2.422  -4.206   1.866  0.00  0.00    -0.269 N 
ATOM     23  C   UNL     1       2.986  -4.761   2.957  0.00  0.00    +0.307 C 
ATOM     24  O   UNL     1       3.496  -4.054   3.805  0.00  0.00    -0.252 OA
ATOM     25  N   UNL     1       2.986  -6.101   3.108  0.00  0.00    -0.281 N 
ATOM     26  C   UNL     1       2.482  -6.983   2.044  0.00  0.00    +0.137 C 
ATOM     27  C   UNL     1       1.477  -7.961   2.663  0.00  0.00    +0.179 C 
ATOM     28  O   UNL     1       2.078  -8.605   3.789  0.00  0.00    -0.375 OA
ATOM     29  C   UNL     1       2.436  -7.715   4.849  0.00  0.00    +0.119 C 
ATOM     30  C   UNL     1       3.495  -6.724   4.340  0.00  0.00    +0.139 C 
ATOM     31  H   UNL     1       1.975  -4.767   1.213  0.00  0.00    +0.156 HD
BRANCH  22  36
ATOM     32  C   UNL     1       2.705  -0.930   0.213  0.00  0.00    +0.122 A 
ATOM     33  C   UNL     1       2.603  -0.078   1.304  0.00  0.00    +0.046 A 
ATOM     34  C   UNL     1       2.442  -0.597   2.575  0.00  0.00    +0.005 A 
ATOM     35  C   UNL     1       2.381  -1.964   2.763  0.00  0.00    +0.023 A 
ATOM     36  C   UNL     1       2.483  -2.821   1.675  0.00  0.00    +0.038 A 
ATOM     37  C   UNL     1       2.639  -2.302   0.398  0.00  0.00    +0.069 A 
BRANCH  32  39
ATOM     38  C   UNL     1       2.922   1.004  -1.152  0.00  0.00    +0.277 C 
ATOM     39  O   UNL     1       2.863  -0.419  -1.036  0.00  0.00    -0.495 OA
ENDBRANCH  32  39
ENDBRANCH  22  36
ENDBRANCH  21  29
ENDBRANCH   1  21
TORSDOF 6
