REMARK  Name = ZINC67341803
REMARK  1 active torsions:
REMARK  status: ('A' for Active; 'I' for Inactive)
REMARK    1  A    between atoms: C_1  and  C_2
REMARK                            x       y       z     vdW  Elec       q    Type
REMARK                         _______ _______ _______ _____ _____    ______ ____
ROOT
ATOM      1  C   UNL     1      -0.018   1.503   0.010  0.00  0.00    +0.044 C 
ATOM      2  C   UNL     1       0.002  -0.004   0.002  0.00  0.00    -0.050 A 
ATOM      3  C   UNL     1       0.006  -0.687  -1.206  0.00  0.00    +0.005 A 
ATOM      4  C   UNL     1       0.025  -2.063  -1.234  0.00  0.00    +0.026 A 
ATOM      5  C   UNL     1       0.040  -2.782  -0.041  0.00  0.00    +0.049 A 
ATOM      6  C   UNL     1       0.035  -2.084   1.180  0.00  0.00    +0.026 A 
ATOM      7  C   UNL     1       0.023  -0.689   1.184  0.00  0.00    +0.015 A 
ATOM      8  C   UNL     1       0.048  -3.100   2.240  0.00  0.00    +0.104 A 
ATOM      9  C   UNL     1       0.069  -4.341   1.605  0.00  0.00    +0.131 A 
ATOM     10  N   UNL     1       0.059  -4.132   0.233  0.00  0.00    -0.349 N 
ATOM     11  H   UNL     1       0.064  -4.835  -0.435  0.00  0.00    +0.166 HD
ATOM     12  C   UNL     1       0.106  -5.505   2.394  0.00  0.00    +0.279 A 
ATOM     13  O   UNL     1       0.069  -6.602   1.862  0.00  0.00    -0.265 OA
ATOM     14  N   UNL     1       0.182  -5.408   3.749  0.00  0.00    -0.280 N 
ATOM     15  C   UNL     1       0.051  -4.137   4.300  0.00  0.00    +0.173 A 
ATOM     16  N   UNL     1       0.030  -3.052   3.581  0.00  0.00    -0.221 NA
ATOM     17  S   UNL     1      -0.124  -4.388   6.069  0.00  0.00    -0.080 S 
ATOM     18  C   UNL     1      -0.507  -6.179   5.979  0.00  0.00    +0.100 C 
ATOM     19  C   UNL     1       0.410  -6.432   4.731  0.00  0.00    +0.128 C 
ATOM     20  C   UNL     1       0.360  -7.925   4.447  0.00  0.00    +0.192 C 
ATOM     21  S   UNL     1       0.637  -8.527   6.181  0.00  0.00    -0.028 S 
ATOM     22  O   UNL     1       2.031  -8.709   6.391  0.00  0.00    -0.174 OA
ATOM     23  O   UNL     1      -0.257  -9.599   6.448  0.00  0.00    -0.174 OA
ATOM     24  C   UNL     1       0.062  -7.024   7.119  0.00  0.00    +0.182 C 
ENDROOT
TORSDOF 0
