REMARK  Name = ZINC43259899
REMARK  10 active torsions:
REMARK  status: ('A' for Active; 'I' for Inactive)
REMARK    1  A    between atoms: C_1  and  C_2
REMARK    2  A    between atoms: C_2  and  C_3
REMARK    3  A    between atoms: C_3  and  C_5
REMARK    4  A    between atoms: C_3  and  N_22
REMARK    5  A    between atoms: C_5  and  C_7
REMARK    6  A    between atoms: C_5  and  N_13
REMARK    7  A    between atoms: N_13  and  C_14
REMARK    8  A    between atoms: N_13  and  C_15
REMARK    9  A    between atoms: C_15  and  C_16
REMARK   10  A    between atoms: C_19  and  C_21
REMARK                            x       y       z     vdW  Elec       q    Type
REMARK                         _______ _______ _______ _____ _____    ______ ____
ROOT
ATOM      1  C   UNL     1       0.629  -2.003  -1.460  0.00  0.00    +0.079 C 
ENDROOT
BRANCH   1   2
ATOM      2  C   UNL     1       1.467  -2.666  -2.523  0.00  0.00    +0.006 A 
ATOM      3  C   UNL     1       2.701  -3.215  -2.419  0.00  0.00    +0.014 A 
ATOM      4  C   UNL     1       3.284  -3.774  -3.541  0.00  0.00    +0.023 A 
ATOM      5  C   UNL     1       2.603  -3.756  -4.713  0.00  0.00    +0.055 A 
ATOM      6  S   UNL     1       1.086  -2.938  -4.246  0.00  0.00    -0.085 S 
ATOM      7 BR   UNL     1       3.121  -4.430  -6.402  0.00  0.00    -0.043 Br
ENDBRANCH   1   2
BRANCH   1   8
ATOM      8  N   UNL     1      -0.774  -2.405  -1.621  0.00  0.00    -0.292 NA
ATOM      9  C   UNL     1      -0.900  -3.867  -1.688  0.00  0.00    +0.105 C 
BRANCH   8  10
ATOM     10  C   UNL     1      -1.607  -1.853  -0.543  0.00  0.00    +0.159 C 
BRANCH  10  11
ATOM     11  C   UNL     1      -3.060  -1.953  -0.930  0.00  0.00    +0.119 A 
ATOM     12  C   UNL     1      -3.875  -2.990  -0.665  0.00  0.00    +0.046 A 
ATOM     13  C   UNL     1      -5.141  -2.664  -1.204  0.00  0.00    +0.044 A 
ATOM     14  C   UNL     1      -5.023  -1.448  -1.767  0.00  0.00    +0.102 A 
ATOM     15  O   UNL     1      -3.762  -1.019  -1.592  0.00  0.00    -0.464 OA
ATOM     16  C   UNL     1      -6.122  -0.691  -2.468  0.00  0.00    +0.086 C 
ENDBRANCH  10  11
ENDBRANCH   8  10
ENDBRANCH   1   8
BRANCH   1  17
ATOM     17  C   UNL     1       0.744  -0.483  -1.594  0.00  0.00    -0.053 C 
BRANCH  17  18
ATOM     18  N   UNL     1       0.253  -0.070  -2.915  0.00  0.00    +0.381 N 
ATOM     19  H   UNL     1       0.329   0.932  -3.004  0.00  0.00    -0.090 HD
ATOM     20  H   UNL     1       0.806  -0.514  -3.634  0.00  0.00    -0.090 HD
ATOM     21  H   UNL     1      -0.712  -0.345  -3.017  0.00  0.00    -0.090 HD
ENDBRANCH  17  18
BRANCH  17  23
ATOM     22  C   UNL     1       2.306   1.460  -1.429  0.00  0.00    +0.002 C 
ATOM     23  C   UNL     1       2.208  -0.067  -1.441  0.00  0.00    -0.018 C 
ENDBRANCH  17  23
ENDBRANCH   1  17
TORSDOF 7
