REMARK  Name = ZINC13010931
REMARK  10 active torsions:
REMARK  status: ('A' for Active; 'I' for Inactive)
REMARK    1  A    between atoms: C_1  and  C_2
REMARK    2  A    between atoms: C_2  and  C_4
REMARK    3  A    between atoms: C_2  and  O_15
REMARK    4  A    between atoms: N_6  and  C_7
REMARK    5  A    between atoms: C_8  and  C_12
REMARK    6  A    between atoms: O_15  and  C_16
REMARK    7  A    between atoms: C_16  and  C_18
REMARK    8  A    between atoms: C_22  and  S_24
REMARK    9  A    between atoms: S_24  and  N_27
REMARK   10  A    between atoms: N_27  and  C_28
REMARK                            x       y       z     vdW  Elec       q    Type
REMARK                         _______ _______ _______ _____ _____    ______ ____
ROOT
ATOM      1  C   UNL     1       5.187  -3.144  -1.027  0.00  0.00    +0.062 C 
ATOM      2  C   UNL     1       4.643  -2.869   0.376  0.00  0.00    +0.259 C 
ENDROOT
BRANCH   2   3
ATOM      3  C   UNL     1       4.431  -4.175   1.098  0.00  0.00    +0.258 C 
ATOM      4  O   UNL     1       3.311  -4.521   1.409  0.00  0.00    -0.271 OA
ATOM      5  N   UNL     1       5.486  -4.958   1.398  0.00  0.00    -0.276 N 
ATOM      6  H   UNL     1       6.382  -4.681   1.149  0.00  0.00    +0.155 HD
BRANCH   5   7
ATOM      7  C   UNL     1       5.291  -6.160   2.061  0.00  0.00    +0.084 A 
ATOM      8  C   UNL     1       6.242  -7.096   2.449  0.00  0.00    +0.065 A 
ATOM      9  C   UNL     1       5.756  -8.269   3.135  0.00  0.00    +0.022 A 
ATOM     10  C   UNL     1       4.429  -8.359   3.333  0.00  0.00    +0.048 A 
ATOM     11  S   UNL     1       3.803  -6.861   2.602  0.00  0.00    -0.081 S 
BRANCH   8  12
ATOM     12  C   UNL     1       7.670  -6.901   2.176  0.00  0.00    +0.244 C 
ATOM     13  O   UNL     1       8.047  -5.899   1.597  0.00  0.00    -0.270 OA
ATOM     14  N   UNL     1       8.564  -7.831   2.566  0.00  0.00    -0.325 N 
ATOM     15  H   UNL     1       8.263  -8.630   3.027  0.00  0.00    +0.145 HD
ATOM     16  H   UNL     1       9.508  -7.702   2.386  0.00  0.00    +0.145 HD
ENDBRANCH   8  12
ENDBRANCH   5   7
ENDBRANCH   2   3
BRANCH   2  17
ATOM     17  O   UNL     1       3.380  -2.161   0.276  0.00  0.00    -0.449 OA
BRANCH  17  18
ATOM     18  C   UNL     1       3.433  -0.815   0.255  0.00  0.00    +0.340 C 
ATOM     19  O   UNL     1       4.505  -0.248   0.319  0.00  0.00    -0.245 OA
BRANCH  18  20
ATOM     20  C   UNL     1       2.187  -0.028   0.154  0.00  0.00    +0.061 A 
ATOM     21  C   UNL     1       0.952  -0.677   0.081  0.00  0.00    +0.016 A 
ATOM     22  C   UNL     1      -0.207   0.063  -0.013  0.00  0.00    +0.023 A 
ATOM     23  C   UNL     1      -0.149   1.447  -0.034  0.00  0.00    +0.067 A 
ATOM     24  C   UNL     1       1.072   2.096   0.039  0.00  0.00    +0.124 A 
ATOM     25  C   UNL     1       2.239   1.367   0.133  0.00  0.00    +0.045 A 
ATOM     26 CL   UNL     1      -1.613   2.372  -0.159  0.00  0.00    -0.082 Cl
BRANCH  24  27
ATOM     27  S   UNL     1       1.135   3.857   0.012  0.00  0.00    +0.060 S 
ATOM     28  O   UNL     1       0.195   4.312   0.976  0.00  0.00    -0.153 OA
ATOM     29  O   UNL     1       2.509   4.215   0.060  0.00  0.00    -0.153 OA
BRANCH  27  30
ATOM     30  N   UNL     1       0.571   4.344  -1.467  0.00  0.00    -0.193 NA
ATOM     31  C   UNL     1       1.295   3.976  -2.685  0.00  0.00    +0.127 C 
ATOM     32  H   UNL     1      -0.240   4.874  -1.526  0.00  0.00    +0.148 HD
ENDBRANCH  27  30
ENDBRANCH  24  27
ENDBRANCH  18  20
ENDBRANCH  17  18
ENDBRANCH   2  17
TORSDOF 8
