REMARK  Name = ZINC34748784
REMARK  9 active torsions:
REMARK  status: ('A' for Active; 'I' for Inactive)
REMARK    1  A    between atoms: C_1  and  C_2
REMARK    2  A    between atoms: C_3  and  C_37
REMARK    3  A    between atoms: N_9  and  C_29
REMARK    4  A    between atoms: N_15  and  C_18
REMARK    5  A    between atoms: C_18  and  C_19
REMARK    6  A    between atoms: N_21  and  C_22
REMARK    7  A    between atoms: C_22  and  C_23
REMARK    8  A    between atoms: C_29  and  C_30
REMARK    9  A    between atoms: C_30  and  C_31
REMARK                            x       y       z     vdW  Elec       q    Type
REMARK                         _______ _______ _______ _____ _____    ______ ____
ROOT
ATOM      1  C   UNL     1       1.036   0.746  -0.577  0.00  0.00    +0.045 C 
ATOM      2  C   UNL     1      -0.147   0.127   0.122  0.00  0.00    -0.026 A 
ATOM      3  C   UNL     1      -1.395   0.395  -0.290  0.00  0.00    -0.008 A 
ATOM      4  S   UNL     1      -2.412  -0.550   0.828  0.00  0.00    -0.073 S 
ATOM      5  C   UNL     1      -1.131  -1.278   1.817  0.00  0.00    +0.117 A 
ATOM      6  C   UNL     1       0.051  -0.771   1.247  0.00  0.00    +0.075 A 
ATOM      7  C   UNL     1       1.271  -1.205   1.855  0.00  0.00    +0.264 A 
ATOM      8  O   UNL     1       2.346  -0.814   1.432  0.00  0.00    -0.267 OA
ATOM      9  N   UNL     1       1.217  -2.050   2.901  0.00  0.00    -0.280 N 
ATOM     10  C   UNL     1       0.025  -2.498   3.388  0.00  0.00    +0.202 A 
ATOM     11  N   UNL     1      -1.114  -2.107   2.854  0.00  0.00    -0.208 NA
ATOM     12  N   UNL     1       0.011  -3.361   4.456  0.00  0.00    -0.304 N 
ATOM     13  C   UNL     1      -0.123  -2.858   5.832  0.00  0.00    +0.089 C 
ATOM     14  C   UNL     1      -1.242  -3.639   6.528  0.00  0.00    -0.059 C 
ATOM     15  N   UNL     1      -0.966  -5.078   6.432  0.00  0.00    +0.387 N 
ATOM     16  C   UNL     1      -1.002  -5.502   5.027  0.00  0.00    -0.059 C 
ATOM     17  C   UNL     1       0.123  -4.814   4.256  0.00  0.00    +0.089 C 
ATOM     18  C   UNL     1      -1.832   1.283  -1.426  0.00  0.00    +0.052 C 
ATOM     19  H   UNL     1      -0.052  -5.270   6.817  0.00  0.00    -0.081 HD
ENDROOT
BRANCH  15  20
ATOM     20  C   UNL     1      -1.979  -5.821   7.193  0.00  0.00    +0.019 C 
BRANCH  20  21
ATOM     21  C   UNL     1      -1.629  -7.287   7.199  0.00  0.00    +0.197 C 
ATOM     22  O   UNL     1      -0.632  -7.674   6.626  0.00  0.00    -0.278 OA
ATOM     23  N   UNL     1      -2.422  -8.167   7.841  0.00  0.00    -0.313 N 
ATOM     24  H   UNL     1      -3.219  -7.857   8.299  0.00  0.00    +0.149 HD
BRANCH  23  25
ATOM     25  C   UNL     1      -2.081  -9.592   7.846  0.00  0.00    +0.139 C 
BRANCH  25  26
ATOM     26  C   UNL     1      -3.121 -10.354   8.627  0.00  0.00    -0.030 A 
ATOM     27  C   UNL     1      -2.963 -10.543   9.987  0.00  0.00    +0.005 A 
ATOM     28  C   UNL     1      -3.917 -11.242  10.703  0.00  0.00    +0.000 A 
ATOM     29  C   UNL     1      -5.029 -11.752  10.058  0.00  0.00    +0.000 A 
ATOM     30  C   UNL     1      -5.186 -11.563   8.698  0.00  0.00    +0.000 A 
ATOM     31  C   UNL     1      -4.235 -10.860   7.983  0.00  0.00    +0.005 A 
ENDBRANCH  25  26
ENDBRANCH  23  25
ENDBRANCH  20  21
ENDBRANCH  15  20
BRANCH   9  32
ATOM     32  C   UNL     1       2.463  -2.498   3.528  0.00  0.00    +0.133 C 
BRANCH  32  33
ATOM     33  C   UNL     1       2.917  -1.461   4.557  0.00  0.00    +0.057 C 
BRANCH  33  34
ATOM     34  C   UNL     1       4.258  -1.862   5.116  0.00  0.00    -0.046 A 
ATOM     35  C   UNL     1       4.329  -2.588   6.290  0.00  0.00    +0.004 A 
ATOM     36  C   UNL     1       5.559  -2.956   6.803  0.00  0.00    +0.000 A 
ATOM     37  C   UNL     1       6.718  -2.598   6.141  0.00  0.00    +0.000 A 
ATOM     38  C   UNL     1       6.648  -1.871   4.967  0.00  0.00    +0.000 A 
ATOM     39  C   UNL     1       5.418  -1.507   4.452  0.00  0.00    +0.004 A 
ENDBRANCH  33  34
ENDBRANCH  32  33
ENDBRANCH   9  32
TORSDOF 7
