REMARK  Name = ZINC44768071
REMARK  12 active torsions:
REMARK  status: ('A' for Active; 'I' for Inactive)
REMARK    1  A    between atoms: C_1  and  C_2
REMARK    2  A    between atoms: C_2  and  C_3
REMARK    3  A    between atoms: C_3  and  C_4
REMARK    4  A    between atoms: C_3  and  C_6
REMARK    5  A    between atoms: C_3  and  C_9
REMARK    6  A    between atoms: C_4  and  C_5
REMARK    7  A    between atoms: C_6  and  N_8
REMARK    8  A    between atoms: N_11  and  C_12
REMARK    9  A    between atoms: C_12  and  C_13
REMARK   10  A    between atoms: C_13  and  C_14
REMARK   11  A    between atoms: C_14  and  N_15
REMARK   12  A    between atoms: C_20  and  C_22
REMARK                            x       y       z     vdW  Elec       q    Type
REMARK                         _______ _______ _______ _____ _____    ______ ____
ROOT
ATOM      1  C   UNL     1      -2.139  -0.048   1.253  0.00  0.00    +0.225 C 
ATOM      2  O   UNL     1      -3.135   0.637   1.155  0.00  0.00    -0.275 OA
ATOM      3  N   UNL     1      -1.662  -0.373   2.471  0.00  0.00    -0.315 N 
ATOM      4  H   UNL     1      -0.865  -0.921   2.549  0.00  0.00    +0.149 HD
ENDROOT
BRANCH   1   5
ATOM      5  C   UNL     1      -1.433  -0.534   0.013  0.00  0.00    +0.091 C 
BRANCH   5   7
ATOM      6  C   UNL     1      -0.019   1.526   0.010  0.00  0.00    +0.005 C 
ATOM      7  C   UNL     1       0.002  -0.004   0.002  0.00  0.00    +0.019 C 
ENDBRANCH   5   7
BRANCH   5   8
ATOM      8  C   UNL     1      -2.173  -0.027  -1.227  0.00  0.00    +0.019 C 
ATOM      9  C   UNL     1      -1.457  -0.520  -2.486  0.00  0.00    +0.005 C 
ENDBRANCH   5   8
BRANCH   5  10
ATOM     10  C   UNL     1      -1.413  -2.041   0.005  0.00  0.00    +0.061 C 
ATOM     11  S   UNL     1      -0.017  -2.821  -0.013  0.00  0.00    -0.040 S 
BRANCH  10  12
ATOM     12  N   UNL     1      -2.571  -2.730   0.012  0.00  0.00    -0.355 N 
ATOM     13  H   UNL     1      -3.417  -2.257   0.023  0.00  0.00    +0.143 HD
ATOM     14  H   UNL     1      -2.558  -3.700   0.007  0.00  0.00    +0.143 HD
ENDBRANCH  10  12
ENDBRANCH   5  10
ENDBRANCH   1   5
BRANCH   3  15
ATOM     15  C   UNL     1      -2.348   0.099   3.676  0.00  0.00    +0.102 C 
BRANCH  15  16
ATOM     16  C   UNL     1      -1.608  -0.408   4.915  0.00  0.00    +0.000 C 
BRANCH  16  17
ATOM     17  C   UNL     1      -2.324   0.086   6.174  0.00  0.00    -0.077 C 
BRANCH  17  18
ATOM     18  N   UNL     1      -1.614  -0.401   7.364  0.00  0.00    +0.381 N 
ATOM     19  C   UNL     1      -0.273   0.196   7.411  0.00  0.00    -0.078 C 
ATOM     20  C   UNL     1       0.500  -0.369   8.604  0.00  0.00    -0.019 C 
ATOM     21  C   UNL     1      -0.252  -0.039   9.896  0.00  0.00    -0.003 C 
ATOM     22  C   UNL     1      -1.673  -0.603   9.806  0.00  0.00    -0.016 C 
ATOM     23  C   UNL     1      -2.366  -0.029   8.568  0.00  0.00    -0.072 C 
ATOM     24  C   UNL     1      -3.787  -0.589   8.474  0.00  0.00    -0.013 C 
ATOM     25  H   UNL     1      -1.531  -1.406   7.318  0.00  0.00    -0.081 HD
ENDBRANCH  17  18
ENDBRANCH  16  17
ENDBRANCH  15  16
ENDBRANCH   3  15
TORSDOF 9
