REMARK  Name = ZINC23338441
REMARK  11 active torsions:
REMARK  status: ('A' for Active; 'I' for Inactive)
REMARK    1  A    between atoms: C_1  and  C_2
REMARK    2  A    between atoms: C_2  and  C_3
REMARK    3  A    between atoms: C_2  and  C_4
REMARK    4  A    between atoms: C_4  and  N_5
REMARK    5  A    between atoms: C_7  and  N_24
REMARK    6  A    between atoms: C_10  and  C_12
REMARK    7  A    between atoms: N_14  and  C_15
REMARK    8  A    between atoms: C_15  and  C_16
REMARK    9  A    between atoms: C_16  and  C_17
REMARK   10  A    between atoms: N_24  and  C_25
REMARK   11  A    between atoms: C_25  and  C_26
REMARK                            x       y       z     vdW  Elec       q    Type
REMARK                         _______ _______ _______ _____ _____    ______ ____
ROOT
ATOM      1  N   UNL     1      -5.298   6.882  -2.014  0.00  0.00    +0.389 N 
ATOM      2  C   UNL     1      -4.045   6.368  -1.403  0.00  0.00    -0.059 C 
ATOM      3  C   UNL     1      -4.276   4.837  -1.357  0.00  0.00    +0.036 C 
ATOM      4  C   UNL     1      -5.033   4.561  -2.676  0.00  0.00    +0.010 C 
ATOM      5  C   UNL     1      -5.659   5.912  -3.071  0.00  0.00    +0.021 C 
ATOM      6  H   UNL     1      -6.102   6.987  -1.272  0.00  0.00    -0.081 HD
ENDROOT
BRANCH   5   7
ATOM      7  C   UNL     1      -7.157   5.778  -3.155  0.00  0.00    +0.200 C 
ATOM      8  O   UNL     1      -7.867   6.436  -2.424  0.00  0.00    -0.278 OA
ATOM      9  N   UNL     1      -7.709   4.927  -4.042  0.00  0.00    -0.316 N 
ATOM     10  H   UNL     1      -7.066   4.330  -4.705  0.00  0.00    +0.149 HD
BRANCH   9  11
ATOM     11  C   UNL     1      -9.166   4.797  -4.124  0.00  0.00    +0.109 C 
BRANCH  11  12
ATOM     12  C   UNL     1      -9.527   3.774  -5.203  0.00  0.00    +0.056 C 
BRANCH  12  13
ATOM     13  C   UNL     1     -11.026   3.640  -5.287  0.00  0.00    -0.011 A 
ATOM     14  C   UNL     1     -11.724   4.298  -6.282  0.00  0.00    +0.006 A 
ATOM     15  C   UNL     1     -13.099   4.175  -6.360  0.00  0.00    +0.000 A 
ATOM     16  C   UNL     1     -13.777   3.394  -5.442  0.00  0.00    +0.003 A 
ATOM     17  C   UNL     1     -13.081   2.735  -4.447  0.00  0.00    +0.038 A 
ATOM     18  C   UNL     1     -11.704   2.854  -4.371  0.00  0.00    +0.127 A 
ATOM     19  F   UNL     1     -11.022   2.206  -3.401  0.00  0.00    -0.205 F 
ENDBRANCH  12  13
ENDBRANCH  11  12
ENDBRANCH   9  11
ENDBRANCH   5   7
BRANCH   3  20
ATOM     20  N   UNL     1      -2.994   4.119  -1.333  0.00  0.00    -0.311 NA
ATOM     21  H   UNL     1      -3.106   3.152  -1.846  0.00  0.00    +0.122 HD
BRANCH  20  22
ATOM     22  C   UNL     1      -2.554   3.872   0.046  0.00  0.00    +0.122 C 
BRANCH  22  23
ATOM     23  C   UNL     1      -1.240   3.136   0.030  0.00  0.00    +0.037 A 
ATOM     24  C   UNL     1      -1.221   1.752   0.017  0.00  0.00    +0.131 A 
ATOM     25  C   UNL     1      -0.013   1.076   0.008  0.00  0.00    +0.039 A 
ATOM     26  C   UNL     1       1.175   1.783   0.000  0.00  0.00    +0.006 A 
ATOM     27  C   UNL     1       1.158   3.165   0.009  0.00  0.00    +0.039 A 
ATOM     28  C   UNL     1      -0.050   3.843   0.023  0.00  0.00    +0.131 A 
ATOM     29  F   UNL     1      -0.066   5.194   0.030  0.00  0.00    -0.205 F 
ATOM     30  F   UNL     1      -2.382   1.060   0.019  0.00  0.00    -0.205 F 
ENDBRANCH  22  23
ENDBRANCH  20  22
ENDBRANCH   3  20
BRANCH   1  31
ATOM     31  C   UNL     1      -5.097   8.223  -2.578  0.00  0.00    -0.075 C 
BRANCH  31  33
ATOM     32  C   UNL     1      -4.640  10.616  -2.024  0.00  0.00    +0.005 C 
ATOM     33  C   UNL     1      -4.973   9.241  -1.442  0.00  0.00    -0.034 C 
ATOM     34  C   UNL     1      -6.297   9.317  -0.679  0.00  0.00    +0.005 C 
ENDBRANCH  31  33
ENDBRANCH   1  31
TORSDOF 9
