REMARK  Name = ZINC06884896
REMARK  10 active torsions:
REMARK  status: ('A' for Active; 'I' for Inactive)
REMARK    1  A    between atoms: C_4  and  C_7
REMARK    2  A    between atoms: N_9  and  C_10
REMARK    3  A    between atoms: C_10  and  C_11
REMARK    4  A    between atoms: C_11  and  C_12
REMARK    5  A    between atoms: C_12  and  C_13
REMARK    6  A    between atoms: C_13  and  C_14
REMARK    7  A    between atoms: C_14  and  C_16
REMARK    8  A    between atoms: C_14  and  N_60
REMARK    9  A    between atoms: N_18  and  N_19
REMARK   10  A    between atoms: C_20  and  C_21
REMARK                            x       y       z     vdW  Elec       q    Type
REMARK                         _______ _______ _______ _____ _____    ______ ____
ROOT
ATOM      1  C   UNL     1      -3.861  -6.271   0.076  0.00  0.00    +0.021 C 
ENDROOT
BRANCH   1   7
ATOM      2  C   UNL     1      -2.079  -5.908   1.674  0.00  0.00    -0.078 C 
ATOM      3  C   UNL     1      -1.607  -6.236   3.092  0.00  0.00    -0.019 C 
ATOM      4  C   UNL     1      -1.338  -7.739   3.200  0.00  0.00    -0.004 C 
ATOM      5  C   UNL     1      -2.613  -8.506   2.838  0.00  0.00    -0.019 C 
ATOM      6  C   UNL     1      -3.056  -8.112   1.427  0.00  0.00    -0.078 C 
ATOM      7  N   UNL     1      -3.322  -6.658   1.396  0.00  0.00    +0.387 N 
ATOM      8  H   UNL     1      -4.016  -6.431   2.119  0.00  0.00    -0.081 HD
ENDBRANCH   1   7
BRANCH   1   9
ATOM      9  C   UNL     1      -5.194  -6.944  -0.122  0.00  0.00    +0.219 C 
ATOM     10  O   UNL     1      -5.806  -7.372   0.835  0.00  0.00    -0.276 OA
ATOM     11  N   UNL     1      -5.708  -7.071  -1.361  0.00  0.00    -0.208 N 
ATOM     12  H   UNL     1      -5.219  -6.729  -2.126  0.00  0.00    +0.177 HD
BRANCH  11  13
ATOM     13  N   UNL     1      -6.948  -7.697  -1.545  0.00  0.00    -0.187 NA
ATOM     14  C   UNL     1      -7.444  -7.819  -2.741  0.00  0.00    +0.145 C 
BRANCH  14  15
ATOM     15  C   UNL     1      -8.741  -8.475  -2.934  0.00  0.00    +0.032 A 
ATOM     16  C   UNL     1      -9.438  -8.704  -4.108  0.00  0.00    +0.017 A 
ATOM     17  C   UNL     1     -10.652  -9.346  -4.033  0.00  0.00    +0.008 A 
ATOM     18  C   UNL     1     -11.126  -9.732  -2.820  0.00  0.00    +0.046 A 
ATOM     19  S   UNL     1      -9.832  -9.192  -1.716  0.00  0.00    -0.096 S 
ENDBRANCH  14  15
ENDBRANCH  11  13
ENDBRANCH   1   9
BRANCH   1  20
ATOM     20  C   UNL     1      -4.045  -4.753   0.038  0.00  0.00    -0.006 C 
BRANCH  20  21
ATOM     21  C   UNL     1      -4.949  -4.321   1.195  0.00  0.00    +0.000 C 
BRANCH  21  22
ATOM     22  C   UNL     1      -5.030  -2.793   1.235  0.00  0.00    +0.019 C 
BRANCH  22  23
ATOM     23  C   UNL     1      -5.934  -2.361   2.391  0.00  0.00    +0.104 C 
BRANCH  23  26
ATOM     24  C   UNL     1      -6.757  -0.288   3.373  0.00  0.00    +0.244 C 
ATOM     25  O   UNL     1      -7.365  -0.951   4.190  0.00  0.00    -0.270 OA
ATOM     26  N   UNL     1      -6.012  -0.898   2.430  0.00  0.00    -0.311 N 
ATOM     27  H   UNL     1      -5.527  -0.370   1.778  0.00  0.00    +0.149 HD
BRANCH  24  31
ATOM     28  C   UNL     1      -6.982   3.952   3.485  0.00  0.00    +0.000 A 
ATOM     29  C   UNL     1      -7.675   3.201   4.418  0.00  0.00    +0.001 A 
ATOM     30  C   UNL     1      -7.606   1.823   4.386  0.00  0.00    +0.013 A 
ATOM     31  C   UNL     1      -6.835   1.188   3.412  0.00  0.00    +0.037 A 
ATOM     32  C   UNL     1      -6.134   1.952   2.478  0.00  0.00    +0.013 A 
ATOM     33  C   UNL     1      -6.215   3.329   2.516  0.00  0.00    +0.001 A 
ENDBRANCH  24  31
ENDBRANCH  23  26
ENDBRANCH  22  23
ENDBRANCH  21  22
ENDBRANCH  20  21
ENDBRANCH   1  20
TORSDOF 10
