REMARK  Name = ZINC13057145
REMARK  14 active torsions:
REMARK  status: ('A' for Active; 'I' for Inactive)
REMARK    1  A    between atoms: C_1  and  C_2
REMARK    2  A    between atoms: C_2  and  O_3
REMARK    3  A    between atoms: O_3  and  C_4
REMARK    4  A    between atoms: C_4  and  C_6
REMARK    5  A    between atoms: C_7  and  C_35
REMARK    6  A    between atoms: C_8  and  C_24
REMARK    7  A    between atoms: C_10  and  N_11
REMARK    8  A    between atoms: C_12  and  C_14
REMARK    9  A    between atoms: C_14  and  N_69
REMARK   10  A    between atoms: C_16  and  C_23
REMARK   11  A    between atoms: C_19  and  C_22
REMARK   12  A    between atoms: N_26  and  C_27
REMARK   13  A    between atoms: C_30  and  C_34
REMARK   14  A    between atoms: C_32  and  C_33
REMARK                            x       y       z     vdW  Elec       q    Type
REMARK                         _______ _______ _______ _____ _____    ______ ____
ROOT
ATOM      1  C   UNL     1       5.253  -2.711   0.353  0.00  0.00    +0.091 A 
ATOM      2  C   UNL     1       3.935  -2.286   0.282  0.00  0.00    -0.015 A 
ATOM      3  C   UNL     1       3.706  -0.942   0.175  0.00  0.00    +0.080 A 
ATOM      4  S   UNL     1       5.353  -0.260   0.187  0.00  0.00    -0.068 S 
ATOM      5  C   UNL     1       6.255  -1.735   0.321  0.00  0.00    +0.087 A 
ATOM      6  C   UNL     1       2.795  -3.271   0.318  0.00  0.00    +0.046 C 
ENDROOT
BRANCH   5   7
ATOM      7  N   UNL     1       7.624  -1.904   0.382  0.00  0.00    -0.281 N 
ATOM      8  C   UNL     1       8.438  -0.831   0.337  0.00  0.00    +0.201 C 
ATOM      9  O   UNL     1       7.968   0.283   0.242  0.00  0.00    -0.278 OA
ATOM     10  H   UNL     1       8.000  -2.795   0.458  0.00  0.00    +0.155 HD
BRANCH   8  11
ATOM     11  C   UNL     1       9.932  -1.015   0.404  0.00  0.00    +0.019 C 
BRANCH  11  19
ATOM     12  C   UNL     1      12.024   0.181   0.634  0.00  0.00    -0.075 C 
ATOM     13  C   UNL     1      12.647   1.578   0.698  0.00  0.00    -0.031 C 
ATOM     14  C   UNL     1      12.441   2.285  -0.644  0.00  0.00    +0.003 C 
ATOM     15  C   UNL     1      10.943   2.348  -0.954  0.00  0.00    -0.031 C 
ATOM     16  C   UNL     1      10.370   0.930  -0.970  0.00  0.00    -0.075 C 
ATOM     17  C   UNL     1      10.732   3.000  -2.322  0.00  0.00    +0.005 C 
ATOM     18  C   UNL     1      14.145   1.456   0.989  0.00  0.00    +0.005 C 
ATOM     19  N   UNL     1      10.578   0.313   0.357  0.00  0.00    +0.386 N 
ATOM     20  H   UNL     1      10.155   0.915   1.074  0.00  0.00    -0.081 HD
ENDBRANCH  11  19
ENDBRANCH   8  11
ENDBRANCH   5   7
BRANCH   3  21
ATOM     21  C   UNL     1       2.426  -0.237   0.080  0.00  0.00    +0.255 C 
ATOM     22  O   UNL     1       1.383  -0.866   0.087  0.00  0.00    -0.269 OA
ATOM     23  N   UNL     1       2.402   1.107  -0.015  0.00  0.00    -0.281 N 
ATOM     24  H   UNL     1       3.233   1.603  -0.086  0.00  0.00    +0.155 HD
BRANCH  23  25
ATOM     25  C   UNL     1       1.180   1.787  -0.010  0.00  0.00    +0.037 A 
ATOM     26  C   UNL     1       0.064   1.216  -0.608  0.00  0.00    +0.024 A 
ATOM     27  C   UNL     1      -1.140   1.892  -0.607  0.00  0.00    +0.005 A 
ATOM     28  C   UNL     1      -1.238   3.131  -0.000  0.00  0.00    -0.050 A 
ATOM     29  C   UNL     1      -0.130   3.702   0.596  0.00  0.00    +0.008 A 
ATOM     30  C   UNL     1       1.079   3.034   0.593  0.00  0.00    -0.029 A 
ATOM     31  C   UNL     1       2.287   3.657   1.244  0.00  0.00    +0.045 C 
ATOM     32  C   UNL     1      -2.556   3.863   0.005  0.00  0.00    +0.044 C 
ENDBRANCH  23  25
ENDBRANCH   3  21
BRANCH   1  33
ATOM     33  C   UNL     1       5.587  -4.136   0.464  0.00  0.00    +0.342 C 
ATOM     34  O   UNL     1       5.687  -4.653   1.560  0.00  0.00    -0.245 OA
BRANCH  33  35
ATOM     35  O   UNL     1       5.781  -4.871  -0.649  0.00  0.00    -0.461 OA
BRANCH  35  37
ATOM     36  C   UNL     1       6.290  -6.940  -1.830  0.00  0.00    +0.048 C 
ATOM     37  C   UNL     1       6.107  -6.274  -0.464  0.00  0.00    +0.229 C 
ENDBRANCH  35  37
ENDBRANCH  33  35
ENDBRANCH   1  33
TORSDOF 8
