REMARK  Name = ZINC45549635
REMARK  6 active torsions:
REMARK  status: ('A' for Active; 'I' for Inactive)
REMARK    1  A    between atoms: C_3  and  S_10
REMARK    2  A    between atoms: C_6  and  N_7
REMARK    3  A    between atoms: S_10  and  C_11
REMARK    4  A    between atoms: C_11  and  C_12
REMARK    5  A    between atoms: C_12  and  C_14
REMARK    6  A    between atoms: C_12  and  N_17
REMARK                            x       y       z     vdW  Elec       q    Type
REMARK                         _______ _______ _______ _____ _____    ______ ____
ROOT
ATOM      1  C   UNL     1       5.172   1.019  -0.042  0.00  0.00    +0.067 C 
ENDROOT
BRANCH   1   2
ATOM      2  S   UNL     1       3.897   2.308  -0.023  0.00  0.00    -0.126 S 
BRANCH   2   5
ATOM      3  C   UNL     1      -0.017   1.379   0.010  0.00  0.00    +0.034 A 
ATOM      4  C   UNL     1       1.169   2.087   0.002  0.00  0.00    +0.017 A 
ATOM      5  C   UNL     1       2.381   1.409  -0.013  0.00  0.00    +0.008 A 
ATOM      6  C   UNL     1       2.396   0.019  -0.021  0.00  0.00    +0.017 A 
ATOM      7  C   UNL     1       1.207  -0.683  -0.013  0.00  0.00    +0.034 A 
ATOM      8  C   UNL     1       0.002  -0.004   0.002  0.00  0.00    +0.126 A 
BRANCH   8   9
ATOM      9  N   UNL     1      -1.270  -0.760   0.010  0.00  0.00    +0.056 N 
ATOM     10  O   UNL     1      -2.325  -0.168   0.023  0.00  0.00    -0.126 OA
ATOM     11  O   UNL     1      -1.256  -1.969   0.003  0.00  0.00    -0.126 OA
ENDBRANCH   8   9
ENDBRANCH   2   5
ENDBRANCH   1   2
BRANCH   1  12
ATOM     12  C   UNL     1       6.556   1.671  -0.052  0.00  0.00    +0.023 C 
BRANCH  12  13
ATOM     13  C   UNL     1       7.613   0.605  -0.192  0.00  0.00    +0.197 C 
ATOM     14  O   UNL     1       8.216   0.218   0.786  0.00  0.00    -0.278 OA
ATOM     15  N   UNL     1       7.887   0.083  -1.403  0.00  0.00    -0.331 N 
ATOM     16  H   UNL     1       7.404   0.393  -2.186  0.00  0.00    +0.145 HD
ATOM     17  H   UNL     1       8.567  -0.603  -1.493  0.00  0.00    +0.145 HD
ENDBRANCH  12  13
BRANCH  12  18
ATOM     18  N   UNL     1       6.762   2.403   1.205  0.00  0.00    +0.386 N 
ATOM     19  H   UNL     1       6.698   1.762   1.981  0.00  0.00    -0.089 HD
ATOM     20  H   UNL     1       7.675   2.833   1.198  0.00  0.00    -0.089 HD
ATOM     21  H   UNL     1       6.055   3.116   1.298  0.00  0.00    -0.089 HD
ENDBRANCH  12  18
ENDBRANCH   1  12
TORSDOF 6
