REMARK  Name = ZINC19803798
REMARK  8 active torsions:
REMARK  status: ('A' for Active; 'I' for Inactive)
REMARK    1  A    between atoms: C_1  and  C_2
REMARK    2  A    between atoms: C_2  and  C_3
REMARK    3  A    between atoms: C_3  and  C_4
REMARK    4  A    between atoms: C_4  and  N_5
REMARK    5  A    between atoms: N_8  and  C_9
REMARK    6  A    between atoms: C_9  and  C_19
REMARK    7  A    between atoms: C_10  and  C_18
REMARK    8  A    between atoms: C_15  and  C_17
REMARK                            x       y       z     vdW  Elec       q    Type
REMARK                         _______ _______ _______ _____ _____    ______ ____
ROOT
ATOM      1  C   UNL     1      -3.113  -3.750   0.012  0.00  0.00    +0.142 C 
ATOM      2  C   UNL     1      -2.501  -4.368  -1.247  0.00  0.00    +0.021 C 
ATOM      3  C   UNL     1      -3.137  -3.736  -2.487  0.00  0.00    +0.006 C 
ATOM      4  C   UNL     1      -4.645  -3.995  -2.474  0.00  0.00    +0.001 C 
ATOM      5  C   UNL     1      -5.258  -3.377  -1.215  0.00  0.00    +0.006 C 
ATOM      6  C   UNL     1      -4.621  -4.008   0.025  0.00  0.00    +0.021 C 
ATOM      7  C   UNL     1      -5.234  -3.390   1.283  0.00  0.00    +0.010 C 
ATOM      8  C   UNL     1      -2.760  -5.876  -1.252  0.00  0.00    +0.010 C 
ENDROOT
BRANCH   1  12
ATOM      9  N   UNL     1      -1.372  -0.511   0.012  0.00  0.00    -0.299 N 
ATOM     10  C   UNL     1      -1.601  -1.839   0.007  0.00  0.00    +0.300 C 
ATOM     11  O   UNL     1      -0.666  -2.617  -0.006  0.00  0.00    -0.253 OA
ATOM     12  N   UNL     1      -2.865  -2.306   0.017  0.00  0.00    -0.283 N 
ATOM     13  H   UNL     1      -2.218   0.192   0.024  0.00  0.00    +0.150 HD
ATOM     14  H   UNL     1      -3.711  -1.603   0.029  0.00  0.00    +0.151 HD
BRANCH   9  15
ATOM     15  C   UNL     1       0.002  -0.004   0.002  0.00  0.00    +0.106 C 
BRANCH  15  16
ATOM     16  C   UNL     1      -0.019   1.526   0.010  0.00  0.00    +0.018 C 
BRANCH  16  18
ATOM     17  C   UNL     1       1.396   3.585   0.008  0.00  0.00    +0.004 C 
ATOM     18  C   UNL     1       1.417   2.055  -0.000  0.00  0.00    -0.002 C 
ENDBRANCH  16  18
ENDBRANCH  15  16
ENDBRANCH   9  15
ENDBRANCH   1  12
BRANCH   1  19
ATOM     19  C   UNL     1      -2.486  -4.372   1.233  0.00  0.00    +0.379 C 
ATOM     20  O   UNL     1      -3.025  -5.306   1.779  0.00  0.00    -0.244 OA
ATOM     21  O   UNL     1      -1.330  -3.888   1.714  0.00  0.00    -0.244 OA
ENDBRANCH   1  19
TORSDOF 5
