REMARK  Name = ZINC49132386
REMARK  7 active torsions:
REMARK  status: ('A' for Active; 'I' for Inactive)
REMARK    1  A    between atoms: C_1  and  C_2
REMARK    2  A    between atoms: C_2  and  C_4
REMARK    3  A    between atoms: C_2  and  N_14
REMARK    4  A    between atoms: C_15  and  C_17
REMARK    5  A    between atoms: N_19  and  C_20
REMARK    6  A    between atoms: C_23  and  C_26
REMARK    7  A    between atoms: C_26  and  C_27
REMARK                            x       y       z     vdW  Elec       q    Type
REMARK                         _______ _______ _______ _____ _____    ______ ____
ROOT
ATOM      1  N   UNL     1       0.711  -0.485   1.190  0.00  0.00    -0.301 N 
ATOM      2  C   UNL     1       0.052  -0.627   2.357  0.00  0.00    +0.300 C 
ATOM      3  O   UNL     1      -1.126  -0.347   2.427  0.00  0.00    -0.265 OA
ATOM      4  H   UNL     1       1.653  -0.709   1.134  0.00  0.00    +0.150 HD
ENDROOT
BRANCH   2   5
ATOM      5  C   UNL     1       0.773  -1.130   3.565  0.00  0.00    +0.303 C 
ATOM      6  O   UNL     1       1.952  -1.411   3.495  0.00  0.00    -0.265 OA
ATOM      7  N   UNL     1       0.114  -1.272   4.732  0.00  0.00    -0.278 N 
ATOM      8  H   UNL     1      -0.810  -0.986   4.806  0.00  0.00    +0.155 HD
BRANCH   7   9
ATOM      9  C   UNL     1       0.762  -1.833   5.836  0.00  0.00    +0.034 A 
ATOM     10  C   UNL     1       0.057  -2.638   6.722  0.00  0.00    +0.023 A 
ATOM     11  C   UNL     1       0.700  -3.190   7.812  0.00  0.00    +0.006 A 
ATOM     12  C   UNL     1       2.044  -2.943   8.022  0.00  0.00    -0.039 A 
ATOM     13  C   UNL     1       2.749  -2.142   7.142  0.00  0.00    +0.006 A 
ATOM     14  C   UNL     1       2.114  -1.592   6.047  0.00  0.00    +0.023 A 
BRANCH  12  15
ATOM     15  C   UNL     1       2.742  -3.548   9.213  0.00  0.00    +0.130 C 
BRANCH  15  16
ATOM     16  C   UNL     1       3.306  -4.893   8.835  0.00  0.00    +0.215 C 
ATOM     17  O   UNL     1       3.156  -5.319   7.709  0.00  0.00    -0.276 OA
ATOM     18  N   UNL     1       3.978  -5.623   9.747  0.00  0.00    -0.329 N 
ATOM     19  H   UNL     1       4.098  -5.282  10.648  0.00  0.00    +0.145 HD
ATOM     20  H   UNL     1       4.341  -6.489   9.504  0.00  0.00    +0.145 HD
ENDBRANCH  15  16
ENDBRANCH  12  15
ENDBRANCH   7   9
ENDBRANCH   2   5
BRANCH   1  22
ATOM     21  C   UNL     1      -0.005   1.538   0.018  0.00  0.00    +0.033 C 
ATOM     22  C   UNL     1       0.005   0.008   0.005  0.00  0.00    +0.101 C 
BRANCH  22  23
ATOM     23  C   UNL     1       0.705  -0.480  -1.237  0.00  0.00    -0.027 A 
ATOM     24  C   UNL     1       2.086  -0.511  -1.287  0.00  0.00    +0.006 A 
ATOM     25  C   UNL     1       2.720  -0.956  -2.429  0.00  0.00    +0.004 A 
ATOM     26  C   UNL     1       1.981  -1.375  -3.528  0.00  0.00    -0.044 A 
ATOM     27  C   UNL     1       0.606  -1.348  -3.476  0.00  0.00    -0.044 A 
ATOM     28  C   UNL     1      -0.030  -0.902  -2.325  0.00  0.00    +0.009 A 
ATOM     29  C   UNL     1      -0.258  -1.802  -4.624  0.00  0.00    +0.035 C 
ATOM     30  C   UNL     1       0.551  -1.850  -5.919  0.00  0.00    +0.005 C 
ATOM     31  C   UNL     1       1.829  -2.657  -5.662  0.00  0.00    +0.005 C 
ATOM     32  C   UNL     1       2.738  -1.841  -4.745  0.00  0.00    +0.035 C 
ENDBRANCH  22  23
ENDBRANCH   1  22
TORSDOF 6
