REMARK  Name = ZINC49694364
REMARK  3 active torsions:
REMARK  status: ('A' for Active; 'I' for Inactive)
REMARK    1  A    between atoms: C_1  and  C_2
REMARK    2  A    between atoms: C_14  and  C_15
REMARK    3  A    between atoms: C_18  and  O_21
REMARK                            x       y       z     vdW  Elec       q    Type
REMARK                         _______ _______ _______ _____ _____    ______ ____
ROOT
ATOM      1  C   UNL     1      -1.811  -0.684   0.697  0.00  0.00    +0.007 C 
ATOM      2  C   UNL     1      -1.340  -2.130   0.527  0.00  0.00    -0.011 C 
ATOM      3  C   UNL     1      -0.487  -2.243  -0.739  0.00  0.00    +0.022 C 
ATOM      4  C   UNL     1      -0.046  -3.698  -0.923  0.00  0.00    +0.107 C 
ATOM      5  N   UNL     1       0.630  -4.147   0.301  0.00  0.00    -0.308 N 
ATOM      6  C   UNL     1      -0.065  -3.999   1.587  0.00  0.00    +0.107 C 
ATOM      7  C   UNL     1      -0.506  -2.540   1.744  0.00  0.00    +0.022 C 
ATOM      8  C   UNL     1       1.900  -4.699   0.245  0.00  0.00    +0.182 C 
ATOM      9  N   UNL     1       2.643  -5.152   1.223  0.00  0.00    -0.149 NA
ATOM     10  N   UNL     1       3.892  -5.683   0.979  0.00  0.00    -0.152 N 
ATOM     11  C   UNL     1       4.733  -6.282   1.940  0.00  0.00    +0.132 C 
ATOM     12  N   UNL     1       4.294  -6.785   3.064  0.00  0.00    -0.385 N 
ATOM     13  C   UNL     1       6.171  -6.283   1.549  0.00  0.00    +0.079 C 
ATOM     14  C   UNL     1       7.177  -6.172   2.482  0.00  0.00    +0.024 C 
ATOM     15  C   UNL     1       6.460  -6.412   0.099  0.00  0.00    +0.273 C 
ATOM     16  O   UNL     1       7.523  -6.867  -0.292  0.00  0.00    -0.268 OA
ATOM     17  N   UNL     1       5.515  -6.011  -0.773  0.00  0.00    -0.152 NA
ATOM     18  C   UNL     1       4.340  -5.647  -0.322  0.00  0.00    +0.182 C 
ATOM     19  S   UNL     1       2.938  -4.982  -1.182  0.00  0.00    -0.018 S 
ATOM     20  H   UNL     1       3.361  -6.687   3.308  0.00  0.00    +0.157 HD
ATOM     21  H   UNL     1       4.902  -7.258   3.654  0.00  0.00    +0.157 HD
ENDROOT
BRANCH  14  22
ATOM     22  C   UNL     1       6.852  -5.862   3.876  0.00  0.00    -0.024 A 
ATOM     23  C   UNL     1       7.611  -6.417   4.916  0.00  0.00    +0.011 A 
ATOM     24  C   UNL     1       7.302  -6.123   6.215  0.00  0.00    +0.046 A 
ATOM     25  C   UNL     1       6.238  -5.276   6.505  0.00  0.00    +0.117 A 
ATOM     26  C   UNL     1       5.482  -4.722   5.478  0.00  0.00    +0.046 A 
ATOM     27  C   UNL     1       5.784  -5.003   4.175  0.00  0.00    +0.011 A 
BRANCH  25  28
ATOM     28  O   UNL     1       5.936  -4.989   7.797  0.00  0.00    -0.507 OA
ATOM     29  H   UNL     1       6.394  -4.212   8.144  0.00  0.00    +0.292 HD
ENDBRANCH  25  28
ENDBRANCH  14  22
TORSDOF 2
