REMARK  Name = ZINC63627852
REMARK  5 active torsions:
REMARK  status: ('A' for Active; 'I' for Inactive)
REMARK    1  A    between atoms: C_1  and  C_2
REMARK    2  A    between atoms: N_4  and  C_5
REMARK    3  A    between atoms: C_8  and  C_11
REMARK    4  A    between atoms: N_13  and  C_14
REMARK    5  A    between atoms: C_17  and  C_20
REMARK                            x       y       z     vdW  Elec       q    Type
REMARK                         _______ _______ _______ _____ _____    ______ ____
ROOT
ATOM      1  C   UNL     1      -0.124  -8.315  -1.889  0.00  0.00    +0.034 A 
ATOM      2  C   UNL     1      -0.091  -8.977  -0.669  0.00  0.00    +0.023 A 
ATOM      3  C   UNL     1      -0.027 -10.357  -0.634  0.00  0.00    +0.008 A 
ATOM      4  C   UNL     1       0.004 -11.078  -1.814  0.00  0.00    -0.021 A 
ATOM      5  C   UNL     1      -0.029 -10.422  -3.030  0.00  0.00    +0.008 A 
ATOM      6  C   UNL     1      -0.099  -9.043  -3.072  0.00  0.00    +0.023 A 
ENDROOT
BRANCH   4   7
ATOM      7  C   UNL     1       0.074 -12.583  -1.773  0.00  0.00    +0.133 C 
ATOM      8  C   UNL     1      -1.288 -13.176  -2.060  0.00  0.00    +0.012 C 
ATOM      9  C   UNL     1      -1.142 -13.924  -3.178  0.00  0.00    -0.004 A 
ATOM     10  C   UNL     1      -2.080 -14.742  -3.956  0.00  0.00    +0.010 A 
ATOM     11  C   UNL     1      -1.630 -15.390  -5.055  0.00  0.00    +0.001 A 
ATOM     12  C   UNL     1      -0.294 -15.299  -5.468  0.00  0.00    +0.002 A 
ATOM     13  C   UNL     1       0.626 -14.567  -4.806  0.00  0.00    +0.026 A 
ATOM     14  C   UNL     1       0.264 -13.844  -3.636  0.00  0.00    +0.043 A 
ATOM     15  N   UNL     1       0.961 -13.077  -2.831  0.00  0.00    -0.374 N 
ATOM     16  H   UNL     1       1.905 -12.871  -2.921  0.00  0.00    +0.161 HD
ENDBRANCH   4   7
BRANCH   1  19
ATOM     17  C   UNL     1      -0.868  -6.302  -2.914  0.00  0.00    +0.248 C 
ATOM     18  O   UNL     1      -1.502  -6.959  -3.718  0.00  0.00    -0.270 OA
ATOM     19  N   UNL     1      -0.188  -6.919  -1.927  0.00  0.00    -0.282 N 
ATOM     20  H   UNL     1       0.256  -6.394  -1.243  0.00  0.00    +0.155 HD
BRANCH  17  24
ATOM     21  C   UNL     1      -0.797  -2.067  -3.217  0.00  0.00    +0.033 A 
ATOM     22  C   UNL     1      -1.522  -2.817  -4.138  0.00  0.00    +0.024 A 
ATOM     23  C   UNL     1      -1.547  -4.190  -4.043  0.00  0.00    +0.015 A 
ATOM     24  C   UNL     1      -0.843  -4.831  -3.020  0.00  0.00    +0.037 A 
ATOM     25  C   UNL     1      -0.115  -4.075  -2.096  0.00  0.00    +0.015 A 
ATOM     26  C   UNL     1      -0.090  -2.702  -2.200  0.00  0.00    +0.024 A 
BRANCH  21  30
ATOM     27  C   UNL     1      -1.883   1.496  -3.729  0.00  0.00    +0.109 C 
ATOM     28  C   UNL     1      -1.874  -0.011  -3.721  0.00  0.00    +0.214 C 
ATOM     29  O   UNL     1      -2.857  -0.626  -4.079  0.00  0.00    -0.276 OA
ATOM     30  N   UNL     1      -0.774  -0.676  -3.316  0.00  0.00    -0.286 N 
ATOM     31  H   UNL     1       0.034  -0.187  -3.093  0.00  0.00    +0.155 HD
ENDBRANCH  21  30
ENDBRANCH  17  24
ENDBRANCH   1  19
TORSDOF 4
