REMARK  Name = ZINC16491374
REMARK  7 active torsions:
REMARK  status: ('A' for Active; 'I' for Inactive)
REMARK    1  A    between atoms: C_4  and  S_7
REMARK    2  A    between atoms: S_7  and  N_10
REMARK    3  A    between atoms: N_10  and  C_11
REMARK    4  A    between atoms: N_10  and  C_24
REMARK    5  A    between atoms: C_11  and  C_12
REMARK    6  A    between atoms: N_14  and  C_15
REMARK    7  A    between atoms: C_18  and  C_21
REMARK                            x       y       z     vdW  Elec       q    Type
REMARK                         _______ _______ _______ _____ _____    ______ ____
ROOT
ATOM      1  N   UNL     1       4.334  -1.261  -1.941  0.00  0.00    -0.193 N 
ENDROOT
BRANCH   1   2
ATOM      2  C   UNL     1       3.954  -2.310  -2.784  0.00  0.00    +0.070 A 
ATOM      3  C   UNL     1       4.814  -3.379  -2.997  0.00  0.00    +0.027 A 
ATOM      4  C   UNL     1       4.436  -4.413  -3.830  0.00  0.00    +0.022 A 
ATOM      5  C   UNL     1       3.200  -4.386  -4.452  0.00  0.00    +0.042 A 
ATOM      6  C   UNL     1       2.339  -3.323  -4.242  0.00  0.00    +0.042 A 
ATOM      7  C   UNL     1       2.710  -2.288  -3.405  0.00  0.00    +0.065 A 
ATOM      8 CL   UNL     1       1.628  -0.958  -3.134  0.00  0.00    -0.082 Cl
ATOM      9 CL   UNL     1       2.727  -5.689  -5.498  0.00  0.00    -0.083 Cl
ENDBRANCH   1   2
BRANCH   1  10
ATOM     10  S   UNL     1       3.876  -1.269  -0.350  0.00  0.00    +0.075 S 
ATOM     11  O   UNL     1       4.814  -0.462   0.348  0.00  0.00    -0.150 OA
ATOM     12  O   UNL     1       3.632  -2.626  -0.004  0.00  0.00    -0.150 OA
BRANCH  10  16
ATOM     13  C   UNL     1      -0.108   0.865  -0.095  0.00  0.00    +0.000 A 
ATOM     14  C   UNL     1       1.068   1.579   0.036  0.00  0.00    +0.002 A 
ATOM     15  C   UNL     1       2.285   0.927  -0.042  0.00  0.00    +0.029 A 
ATOM     16  C   UNL     1       2.325  -0.439  -0.250  0.00  0.00    +0.109 A 
ATOM     17  C   UNL     1       1.149  -1.153  -0.381  0.00  0.00    +0.029 A 
ATOM     18  C   UNL     1      -0.068  -0.501  -0.303  0.00  0.00    +0.002 A 
ENDBRANCH  10  16
ENDBRANCH   1  10
BRANCH   1  19
ATOM     19  C   UNL     1       5.139  -0.155  -2.466  0.00  0.00    +0.227 C 
BRANCH  19  20
ATOM     20  C   UNL     1       6.598  -0.530  -2.420  0.00  0.00    +0.236 C 
ATOM     21  O   UNL     1       6.933  -1.615  -1.991  0.00  0.00    -0.274 OA
ATOM     22  N   UNL     1       7.532   0.339  -2.855  0.00  0.00    -0.284 N 
ATOM     23  H   UNL     1       7.261   1.174  -3.268  0.00  0.00    +0.155 HD
BRANCH  22  24
ATOM     24  C   UNL     1       8.886   0.038  -2.712  0.00  0.00    +0.033 A 
ATOM     25  C   UNL     1       9.322  -0.686  -1.607  0.00  0.00    +0.024 A 
ATOM     26  C   UNL     1      10.658  -0.989  -1.465  0.00  0.00    +0.015 A 
ATOM     27  C   UNL     1      11.576  -0.558  -2.426  0.00  0.00    +0.037 A 
ATOM     28  C   UNL     1      11.135   0.174  -3.532  0.00  0.00    +0.015 A 
ATOM     29  C   UNL     1       9.797   0.469  -3.671  0.00  0.00    +0.024 A 
BRANCH  27  30
ATOM     30  C   UNL     1      13.010  -0.876  -2.275  0.00  0.00    +0.242 C 
ATOM     31  O   UNL     1      13.808  -0.502  -3.112  0.00  0.00    -0.270 OA
ATOM     32  N   UNL     1      13.434  -1.583  -1.208  0.00  0.00    -0.325 N 
ATOM     33  H   UNL     1      12.797  -1.882  -0.540  0.00  0.00    +0.145 HD
ATOM     34  H   UNL     1      14.376  -1.792  -1.108  0.00  0.00    +0.145 HD
ENDBRANCH  27  30
ENDBRANCH  22  24
ENDBRANCH  19  20
ENDBRANCH   1  19
TORSDOF 7
