REMARK  Name = ZINC43287370
REMARK  12 active torsions:
REMARK  status: ('A' for Active; 'I' for Inactive)
REMARK    1  A    between atoms: C_1  and  C_2
REMARK    2  A    between atoms: C_2  and  C_3
REMARK    3  A    between atoms: C_3  and  C_5
REMARK    4  A    between atoms: C_3  and  N_20
REMARK    5  A    between atoms: C_5  and  C_7
REMARK    6  A    between atoms: C_5  and  N_13
REMARK    7  A    between atoms: N_13  and  C_14
REMARK    8  A    between atoms: N_13  and  C_17
REMARK    9  A    between atoms: C_14  and  C_15
REMARK   10  A    between atoms: C_15  and  O_16
REMARK   11  A    between atoms: C_17  and  C_18
REMARK   12  A    between atoms: C_17  and  C_19
REMARK                            x       y       z     vdW  Elec       q    Type
REMARK                         _______ _______ _______ _____ _____    ______ ____
ROOT
ATOM      1  C   UNL     1       0.716  -2.080  -1.387  0.00  0.00    +0.079 C 
ENDROOT
BRANCH   1   2
ATOM      2  C   UNL     1       1.434  -2.781  -2.512  0.00  0.00    +0.006 A 
ATOM      3  C   UNL     1       0.926  -3.301  -3.656  0.00  0.00    +0.028 A 
ATOM      4  C   UNL     1       1.784  -3.906  -4.556  0.00  0.00    +0.025 A 
ATOM      5  C   UNL     1       3.108  -3.960  -4.267  0.00  0.00    +0.060 A 
ATOM      6  S   UNL     1       3.175  -3.134  -2.686  0.00  0.00    -0.099 S 
ATOM      7 BR   UNL     1       1.121  -4.646  -6.165  0.00  0.00    -0.050 Br
ENDBRANCH   1   2
BRANCH   1   8
ATOM      8  C   UNL     1       1.058  -0.589  -1.414  0.00  0.00    -0.053 C 
BRANCH   8   9
ATOM      9  N   UNL     1       0.777  -0.046  -2.751  0.00  0.00    +0.381 N 
ATOM     10  H   UNL     1       1.337  -0.532  -3.435  0.00  0.00    -0.090 HD
ATOM     11  H   UNL     1      -0.200  -0.171  -2.966  0.00  0.00    -0.090 HD
ATOM     12  H   UNL     1       1.003   0.937  -2.768  0.00  0.00    -0.090 HD
ENDBRANCH   8   9
BRANCH   8  14
ATOM     13  C   UNL     1       0.613   1.623  -0.342  0.00  0.00    +0.002 C 
ATOM     14  C   UNL     1       0.209   0.148  -0.376  0.00  0.00    -0.018 C 
ENDBRANCH   8  14
ENDBRANCH   1   8
BRANCH   1  15
ATOM     15  N   UNL     1       1.137  -2.656  -0.103  0.00  0.00    -0.292 NA
BRANCH  15  16
ATOM     16  C   UNL     1       2.231  -1.875   0.490  0.00  0.00    +0.051 C 
ATOM     17  C   UNL     1       2.456  -2.327   1.934  0.00  0.00    +0.024 C 
ATOM     18  C   UNL     1       3.512  -2.096  -0.318  0.00  0.00    +0.024 C 
ENDBRANCH  15  16
BRANCH  15  19
ATOM     19  C   UNL     1       1.520  -4.065  -0.259  0.00  0.00    +0.113 C 
BRANCH  19  20
ATOM     20  C   UNL     1       0.261  -4.928  -0.358  0.00  0.00    +0.171 C 
BRANCH  20  21
ATOM     21  O   UNL     1      -0.455  -4.591  -1.548  0.00  0.00    -0.394 OA
ATOM     22  H   UNL     1      -1.267  -5.100  -1.676  0.00  0.00    +0.209 HD
ENDBRANCH  20  21
ENDBRANCH  19  20
ENDBRANCH  15  19
ENDBRANCH   1  15
TORSDOF 9
