REMARK  Name = ZINC20764901
REMARK  6 active torsions:
REMARK  status: ('A' for Active; 'I' for Inactive)
REMARK    1  A    between atoms: C_1  and  C_2
REMARK    2  A    between atoms: C_5  and  C_8
REMARK    3  A    between atoms: C_10  and  C_24
REMARK    4  A    between atoms: C_13  and  C_16
REMARK    5  A    between atoms: C_21  and  O_22
REMARK    6  A    between atoms: C_28  and  N_30
REMARK                            x       y       z     vdW  Elec       q    Type
REMARK                         _______ _______ _______ _____ _____    ______ ____
ROOT
ATOM      1  C   UNL     1       0.059  -4.249  -0.021  0.00  0.00    +0.040 C 
ATOM      2  N   UNL     1       0.083  -4.865   1.100  0.00  0.00    -0.299 NA
ATOM      3  C   UNL     1       0.110  -6.316   1.237  0.00  0.00    +0.081 C 
ATOM      4  N   UNL     1      -0.302  -6.963  -0.014  0.00  0.00    +0.401 N 
ATOM      5  C   UNL     1       0.469  -6.420  -1.146  0.00  0.00    -0.028 C 
ATOM      6  C   UNL     1       0.056  -4.958  -1.347  0.00  0.00    +0.044 C 
ATOM      7  H   UNL     1      -0.122  -8.046   0.057  0.00  0.00    -0.081 HD
ATOM      8  H   UNL     1      -1.373  -6.780  -0.187  0.00  0.00    -0.081 HD
ENDROOT
BRANCH   1  13
ATOM      9  C   UNL     1      -0.018   1.503   0.010  0.00  0.00    +0.044 C 
ATOM     10  C   UNL     1       0.002  -0.004   0.002  0.00  0.00    -0.050 A 
ATOM     11  C   UNL     1      -0.006  -0.686  -1.202  0.00  0.00    +0.004 A 
ATOM     12  C   UNL     1       0.019  -2.065  -1.217  0.00  0.00    +0.010 A 
ATOM     13  C   UNL     1       0.039  -2.773  -0.013  0.00  0.00    -0.004 A 
ATOM     14  C   UNL     1       0.041  -2.078   1.198  0.00  0.00    +0.010 A 
ATOM     15  C   UNL     1       0.023  -0.699   1.198  0.00  0.00    +0.004 A 
ENDBRANCH   1  13
BRANCH   5  16
ATOM     16  C   UNL     1       0.166  -7.210  -2.393  0.00  0.00    -0.018 A 
ATOM     17  C   UNL     1      -1.022  -7.907  -2.499  0.00  0.00    +0.020 A 
ATOM     18  C   UNL     1      -1.300  -8.632  -3.643  0.00  0.00    +0.018 A 
ATOM     19  C   UNL     1      -0.389  -8.661  -4.684  0.00  0.00    +0.019 A 
ATOM     20  C   UNL     1       0.800  -7.966  -4.582  0.00  0.00    +0.047 A 
ATOM     21  C   UNL     1       1.078  -7.233  -3.438  0.00  0.00    +0.119 A 
ATOM     22 BR   UNL     1      -2.927  -9.585  -3.785  0.00  0.00    -0.050 Br
BRANCH  21  23
ATOM     23  O   UNL     1       2.245  -6.543  -3.338  0.00  0.00    -0.507 OA
ATOM     24  H   UNL     1       2.968  -6.562  -4.167  0.00  0.00    +0.292 HD
ENDBRANCH  21  23
ENDBRANCH   5  16
BRANCH   3  25
ATOM     25  C   UNL     1       1.510  -6.751   1.584  0.00  0.00    -0.038 A 
ATOM     26  C   UNL     1       1.957  -8.004   1.207  0.00  0.00    +0.005 A 
ATOM     27  C   UNL     1       3.243  -8.402   1.521  0.00  0.00    +0.022 A 
ATOM     28  C   UNL     1       4.079  -7.551   2.222  0.00  0.00    +0.071 A 
ATOM     29  C   UNL     1       3.629  -6.300   2.604  0.00  0.00    +0.145 A 
ATOM     30  C   UNL     1       2.344  -5.901   2.285  0.00  0.00    +0.038 A 
ATOM     31 CL   UNL     1       5.692  -8.053   2.622  0.00  0.00    -0.081 Cl
BRANCH  29  32
ATOM     32  N   UNL     1       4.522  -5.389   3.354  0.00  0.00    +0.058 N 
ATOM     33  O   UNL     1       4.125  -4.288   3.691  0.00  0.00    -0.126 OA
ATOM     34  O   UNL     1       5.654  -5.742   3.635  0.00  0.00    -0.126 OA
ENDBRANCH  29  32
ENDBRANCH   3  25
TORSDOF 5
