REMARK  Name = ZINC63752333
REMARK  9 active torsions:
REMARK  status: ('A' for Active; 'I' for Inactive)
REMARK    1  A    between atoms: C_1  and  C_2
REMARK    2  A    between atoms: C_5  and  C_8
REMARK    3  A    between atoms: N_10  and  C_11
REMARK    4  A    between atoms: C_14  and  C_33
REMARK    5  A    between atoms: C_19  and  C_21
REMARK    6  A    between atoms: N_23  and  C_24
REMARK    7  A    between atoms: C_24  and  C_25
REMARK    8  A    between atoms: C_29  and  O_31
REMARK    9  A    between atoms: O_31  and  C_32
REMARK                            x       y       z     vdW  Elec       q    Type
REMARK                         _______ _______ _______ _____ _____    ______ ____
ROOT
ATOM      1  C   UNL     1      -0.012  -6.289   1.137  0.00  0.00    +0.051 C 
ATOM      2  C   UNL     1      -0.016  -7.122   0.030  0.00  0.00    +0.018 A 
ATOM      3  C   UNL     1       0.060  -6.864  -1.359  0.00  0.00    +0.015 A 
ATOM      4  C   UNL     1       0.033  -7.898  -2.236  0.00  0.00    -0.050 A 
ATOM      5  C   UNL     1      -0.069  -9.223  -1.805  0.00  0.00    +0.005 A 
ATOM      6  C   UNL     1      -0.147  -9.544  -0.490  0.00  0.00    +0.026 A 
ATOM      7  C   UNL     1      -0.124  -8.517   0.489  0.00  0.00    +0.045 A 
ATOM      8  N   UNL     1      -0.185  -8.566   1.805  0.00  0.00    -0.369 N 
ATOM      9  C   UNL     1      -0.116  -7.202   2.338  0.00  0.00    +0.211 C 
ATOM     10  C   UNL     1       0.116  -7.610  -3.713  0.00  0.00    +0.044 C 
ATOM     11  H   UNL     1      -0.259  -9.374   2.335  0.00  0.00    +0.161 HD
ENDROOT
BRANCH   1  14
ATOM     12  C   UNL     1      -0.449  -4.219   0.124  0.00  0.00    +0.248 C 
ATOM     13  O   UNL     1      -0.966  -4.791  -0.815  0.00  0.00    -0.270 OA
ATOM     14  N   UNL     1       0.073  -4.931   1.142  0.00  0.00    -0.282 N 
ATOM     15  H   UNL     1       0.509  -4.475   1.879  0.00  0.00    +0.155 HD
BRANCH  12  20
ATOM     16  C   UNL     1      -0.230   1.530   0.223  0.00  0.00    +0.044 C 
ATOM     17  C   UNL     1      -0.287   0.024   0.197  0.00  0.00    -0.050 A 
ATOM     18  C   UNL     1      -0.876  -0.624  -0.874  0.00  0.00    +0.004 A 
ATOM     19  C   UNL     1      -0.932  -2.002  -0.905  0.00  0.00    +0.013 A 
ATOM     20  C   UNL     1      -0.392  -2.743   0.149  0.00  0.00    +0.037 A 
ATOM     21  C   UNL     1       0.201  -2.082   1.226  0.00  0.00    +0.013 A 
ATOM     22  C   UNL     1       0.255  -0.704   1.241  0.00  0.00    +0.004 A 
ENDBRANCH  12  20
ENDBRANCH   1  14
BRANCH   9  23
ATOM     23  C   UNL     1       1.100  -7.045   3.215  0.00  0.00    +0.241 C 
ATOM     24  O   UNL     1       2.000  -7.856   3.155  0.00  0.00    -0.273 OA
ATOM     25  N   UNL     1       1.187  -6.004   4.067  0.00  0.00    -0.309 N 
ATOM     26  H   UNL     1       0.467  -5.355   4.115  0.00  0.00    +0.149 HD
BRANCH  25  27
ATOM     27  C   UNL     1       2.369  -5.852   4.919  0.00  0.00    +0.139 C 
BRANCH  27  28
ATOM     28  C   UNL     1       2.218  -4.617   5.771  0.00  0.00    -0.027 A 
ATOM     29  C   UNL     1       2.675  -3.397   5.306  0.00  0.00    +0.005 A 
ATOM     30  C   UNL     1       2.538  -2.263   6.084  0.00  0.00    +0.004 A 
ATOM     31  C   UNL     1       1.945  -2.346   7.329  0.00  0.00    +0.045 A 
ATOM     32  C   UNL     1       1.486  -3.568   7.798  0.00  0.00    +0.120 A 
ATOM     33  C   UNL     1       1.619  -4.704   7.012  0.00  0.00    +0.050 A 
BRANCH  32  34
ATOM     34  O   UNL     1       0.902  -3.652   9.022  0.00  0.00    -0.495 OA
ATOM     35  C   UNL     1       0.794  -2.441   9.773  0.00  0.00    +0.277 C 
ENDBRANCH  32  34
ENDBRANCH  27  28
ENDBRANCH  25  27
ENDBRANCH   9  23
TORSDOF 6
