REMARK  Name = ZINC39154857
REMARK  11 active torsions:
REMARK  status: ('A' for Active; 'I' for Inactive)
REMARK    1  A    between atoms: C_1  and  C_2
REMARK    2  A    between atoms: C_2  and  C_3
REMARK    3  A    between atoms: C_2  and  C_4
REMARK    4  A    between atoms: C_4  and  C_5
REMARK    5  A    between atoms: C_5  and  C_7
REMARK    6  A    between atoms: C_5  and  N_29
REMARK    7  A    between atoms: C_7  and  O_9
REMARK    8  A    between atoms: O_9  and  C_10
REMARK    9  A    between atoms: C_10  and  C_11
REMARK   10  A    between atoms: C_11  and  C_13
REMARK   11  A    between atoms: C_21  and  C_23
REMARK                            x       y       z     vdW  Elec       q    Type
REMARK                         _______ _______ _______ _____ _____    ______ ____
ROOT
ATOM      1  C   UNL     1      -5.018  -3.102  -3.087  0.00  0.00    +0.199 C 
ATOM      2  O   UNL     1      -4.235  -2.680  -3.914  0.00  0.00    -0.289 OA
ENDROOT
BRANCH   1   3
ATOM      3  C   UNL     1      -6.291  -3.558  -3.488  0.00  0.00    +0.034 C 
ATOM      4  C   UNL     1      -7.294  -4.059  -2.678  0.00  0.00    +0.007 A 
ATOM      5  C   UNL     1      -7.388  -4.273  -1.283  0.00  0.00    +0.010 A 
ATOM      6  C   UNL     1      -8.516  -4.790  -0.747  0.00  0.00    +0.001 A 
ATOM      7  C   UNL     1      -9.632  -5.135  -1.526  0.00  0.00    +0.002 A 
ATOM      8  C   UNL     1      -9.645  -4.971  -2.867  0.00  0.00    +0.026 A 
ATOM      9  C   UNL     1      -8.456  -4.413  -3.531  0.00  0.00    +0.044 A 
ATOM     10  N   UNL     1      -8.200  -4.153  -4.782  0.00  0.00    -0.373 N 
ATOM     11  C   UNL     1      -6.848  -3.595  -4.895  0.00  0.00    +0.144 C 
ATOM     12  H   UNL     1      -8.809  -4.301  -5.522  0.00  0.00    +0.161 HD
BRANCH  11  13
ATOM     13  C   UNL     1      -6.905  -2.202  -5.467  0.00  0.00    -0.021 A 
ATOM     14  C   UNL     1      -7.940  -1.354  -5.119  0.00  0.00    +0.006 A 
ATOM     15  C   UNL     1      -7.993  -0.076  -5.644  0.00  0.00    +0.000 A 
ATOM     16  C   UNL     1      -7.010   0.354  -6.516  0.00  0.00    +0.000 A 
ATOM     17  C   UNL     1      -5.974  -0.494  -6.862  0.00  0.00    +0.000 A 
ATOM     18  C   UNL     1      -5.920  -1.770  -6.334  0.00  0.00    +0.006 A 
ENDBRANCH  11  13
ENDBRANCH   1   3
BRANCH   1  19
ATOM     19  C   UNL     1      -4.629  -3.139  -1.631  0.00  0.00    +0.311 C 
BRANCH  19  20
ATOM     20  O   UNL     1      -3.303  -2.629  -1.479  0.00  0.00    -0.455 OA
BRANCH  20  21
ATOM     21  C   UNL     1      -2.802  -2.594  -0.234  0.00  0.00    +0.328 C 
ATOM     22  O   UNL     1      -3.468  -2.982   0.696  0.00  0.00    -0.249 OA
BRANCH  21  23
ATOM     23  C   UNL     1      -1.410  -2.068   0.003  0.00  0.00    +0.183 C 
BRANCH  23  24
ATOM     24  N   UNL     1      -0.918  -2.555   1.295  0.00  0.00    -0.286 N 
ATOM     25  C   UNL     1      -1.580  -2.247   2.427  0.00  0.00    +0.298 C 
ATOM     26  O   UNL     1      -2.585  -1.564   2.377  0.00  0.00    -0.253 OA
ATOM     27  N   UNL     1      -1.128  -2.694   3.615  0.00  0.00    -0.313 N 
ATOM     28  H   UNL     1      -0.116  -3.099   1.335  0.00  0.00    +0.151 HD
ATOM     29  H   UNL     1      -0.326  -3.239   3.655  0.00  0.00    +0.146 HD
ATOM     30  H   UNL     1      -1.604  -2.472   4.431  0.00  0.00    +0.146 HD
ENDBRANCH  23  24
BRANCH  23  31
ATOM     31  C   UNL     1      -1.436  -0.539   0.011  0.00  0.00    +0.036 C 
BRANCH  31  33
ATOM     32  C   UNL     1       0.800  -0.371  -1.091  0.00  0.00    +0.007 C 
ATOM     33  C   UNL     1      -0.009  -0.005   0.154  0.00  0.00    -0.015 C 
ATOM     34  C   UNL     1      -0.047   1.517   0.309  0.00  0.00    +0.007 C 
ENDBRANCH  31  33
ENDBRANCH  23  31
ENDBRANCH  21  23
ENDBRANCH  20  21
ENDBRANCH  19  20
ENDBRANCH   1  19
TORSDOF 9
