REMARK  Name = ZINC38966634
REMARK  6 active torsions:
REMARK  status: ('A' for Active; 'I' for Inactive)
REMARK    1  A    between atoms: C_1  and  O_2
REMARK    2  A    between atoms: O_2  and  C_3
REMARK    3  A    between atoms: C_8  and  N_9
REMARK    4  A    between atoms: N_9  and  C_10
REMARK    5  A    between atoms: N_13  and  S_14
REMARK    6  A    between atoms: S_14  and  C_17
REMARK                            x       y       z     vdW  Elec       q    Type
REMARK                         _______ _______ _______ _____ _____    ______ ____
ROOT
ATOM      1  C   UNL     1      -0.133  -4.240   0.091  0.00  0.00    +0.237 C 
ATOM      2  C   UNL     1       0.825  -4.813  -0.930  0.00  0.00    +0.192 C 
ATOM      3  N   UNL     1       0.691  -4.529  -2.192  0.00  0.00    -0.110 NA
ATOM      4  N   UNL     1       1.815  -5.618  -0.513  0.00  0.00    -0.226 NA
ATOM      5  C   UNL     1       1.971  -5.920   0.759  0.00  0.00    +0.089 A 
ATOM      6  C   UNL     1       3.029  -6.774   1.163  0.00  0.00    +0.030 A 
ATOM      7  C   UNL     1       3.193  -7.087   2.466  0.00  0.00    +0.002 A 
ATOM      8  C   UNL     1       2.349  -6.598   3.478  0.00  0.00    +0.002 A 
ATOM      9  C   UNL     1       1.311  -5.778   3.202  0.00  0.00    +0.027 A 
ATOM     10  C   UNL     1       1.064  -5.389   1.806  0.00  0.00    +0.063 A 
ATOM     11  N   UNL     1       0.073  -4.599   1.502  0.00  0.00    -0.359 N 
ATOM     12  H   UNL     1      -0.515  -4.255   2.193  0.00  0.00    +0.162 HD
ENDROOT
BRANCH   3  13
ATOM     13  S   UNL     1       1.747  -5.163  -3.299  0.00  0.00    +0.103 S 
ATOM     14  O   UNL     1       3.018  -4.591  -3.022  0.00  0.00    -0.146 OA
ATOM     15  O   UNL     1       1.530  -6.568  -3.309  0.00  0.00    -0.146 OA
BRANCH  13  16
ATOM     16  C   UNL     1       1.260  -4.567  -4.884  0.00  0.00    +0.141 A 
ATOM     17  C   UNL     1       2.084  -3.750  -5.580  0.00  0.00    +0.031 A 
ATOM     18  C   UNL     1       1.732  -3.259  -6.838  0.00  0.00    +0.004 A 
ATOM     19  C   UNL     1       0.550  -3.579  -7.416  0.00  0.00    +0.031 A 
ATOM     20  C   UNL     1      -0.365  -4.432  -6.743  0.00  0.00    +0.102 A 
ATOM     21  C   UNL     1       0.006  -4.950  -5.431  0.00  0.00    +0.127 A 
ATOM     22  N   UNL     1      -0.925  -5.742  -4.898  0.00  0.00    -0.189 NA
ATOM     23  S   UNL     1      -2.116  -5.801  -5.978  0.00  0.00    +0.117 S 
ATOM     24  N   UNL     1      -1.563  -4.851  -7.153  0.00  0.00    -0.191 NA
ENDBRANCH  13  16
ENDBRANCH   3  13
BRANCH   1  25
ATOM     25  N   UNL     1      -0.075  -2.780  -0.013  0.00  0.00    -0.315 N 
ATOM     26  H   UNL     1       0.781  -2.325   0.013  0.00  0.00    +0.149 HD
BRANCH  25  32
ATOM     27  C   UNL     1      -1.199  -0.667  -0.376  0.00  0.00    +0.141 A 
ATOM     28  C   UNL     1      -2.370   0.058  -0.516  0.00  0.00    +0.047 A 
ATOM     29  C   UNL     1      -3.594  -0.580  -0.423  0.00  0.00    +0.004 A 
ATOM     30  C   UNL     1      -3.652  -1.942  -0.192  0.00  0.00    +0.002 A 
ATOM     31  C   UNL     1      -2.487  -2.673  -0.052  0.00  0.00    +0.026 A 
ATOM     32  C   UNL     1      -1.256  -2.041  -0.148  0.00  0.00    +0.071 A 
BRANCH  27  34
ATOM     33  C   UNL     1      -0.012   1.368  -0.700  0.00  0.00    +0.277 C 
ATOM     34  O   UNL     1       0.005  -0.041  -0.466  0.00  0.00    -0.493 OA
ENDBRANCH  27  34
ENDBRANCH  25  32
ENDBRANCH   1  25
TORSDOF 5
