REMARK  Name = ZINC35465207
REMARK  3 active torsions:
REMARK  status: ('A' for Active; 'I' for Inactive)
REMARK    1  A    between atoms: C_1  and  C_2
REMARK    2  A    between atoms: C_8  and  C_30
REMARK    3  A    between atoms: C_25  and  C_29
REMARK                            x       y       z     vdW  Elec       q    Type
REMARK                         _______ _______ _______ _____ _____    ______ ____
ROOT
ATOM      1  C   UNL     1      -0.019   1.530   0.011  0.00  0.00    +0.015 C 
ATOM      2  C   UNL     1       0.002  -0.004   0.002  0.00  0.00    +0.058 C 
ATOM      3  C   UNL     1      -1.438  -0.562   0.038  0.00  0.00    +0.052 C 
ATOM      4  C   UNL     1      -1.343  -1.878   0.824  0.00  0.00    +0.136 C 
ATOM      5  C   UNL     1      -2.627  -2.375   1.492  0.00  0.00    +0.186 C 
ATOM      6  C   UNL     1      -2.538  -2.932   2.914  0.00  0.00    +0.103 C 
ATOM      7  O   UNL     1      -2.610  -3.783   1.796  0.00  0.00    -0.361 OA
ATOM      8  C   UNL     1      -1.323  -2.707   3.762  0.00  0.00    +0.064 C 
ATOM      9  C   UNL     1      -0.028  -2.265   3.117  0.00  0.00    +0.067 C 
ATOM     10  C   UNL     1      -0.096  -1.740   1.703  0.00  0.00    +0.166 C 
ATOM     11  C   UNL     1       0.690  -0.533   1.253  0.00  0.00    +0.171 C 
ATOM     12  O   UNL     1       1.704  -0.082   1.742  0.00  0.00    -0.294 OA
ATOM     13  O   UNL     1      -0.241  -2.753   0.668  0.00  0.00    -0.350 OA
ATOM     14  C   UNL     1       0.628  -1.310   4.074  0.00  0.00    -0.069 C 
ATOM     15  C   UNL     1       0.368  -0.037   4.047  0.00  0.00    +0.008 C 
ATOM     16  C   UNL     1       1.518  -1.808   5.161  0.00  0.00    +0.034 C 
ATOM     17  C   UNL     1       0.661  -2.588   6.161  0.00  0.00    +0.053 C 
ATOM     18  C   UNL     1       0.173  -3.886   5.626  0.00  0.00    +0.204 C 
ATOM     19  C   UNL     1      -1.008  -3.867   4.683  0.00  0.00    -0.013 C 
ATOM     20  C   UNL     1      -1.564  -5.059   4.824  0.00  0.00    +0.037 C 
ATOM     21  C   UNL     1      -0.922  -5.751   5.968  0.00  0.00    +0.336 C 
ATOM     22  O   UNL     1      -1.098  -6.912   6.269  0.00  0.00    -0.245 OA
ATOM     23  O   UNL     1      -0.144  -4.858   6.622  0.00  0.00    -0.454 OA
ATOM     24  C   UNL     1      -2.642  -5.724   4.003  0.00  0.00    +0.051 C 
ATOM     25  C   UNL     1      -3.864  -2.728   3.686  0.00  0.00    +0.045 C 
ENDROOT
TORSDOF 0
