REMARK  Name = ZINC39529488
REMARK  8 active torsions:
REMARK  status: ('A' for Active; 'I' for Inactive)
REMARK    1  A    between atoms: C_1  and  C_2
REMARK    2  A    between atoms: C_2  and  C_3
REMARK    3  A    between atoms: C_2  and  C_4
REMARK    4  A    between atoms: C_4  and  C_5
REMARK    5  A    between atoms: C_10  and  N_11
REMARK    6  A    between atoms: C_15  and  S_18
REMARK    7  A    between atoms: S_18  and  O_21
REMARK    8  A    between atoms: O_21  and  C_22
REMARK                            x       y       z     vdW  Elec       q    Type
REMARK                         _______ _______ _______ _____ _____    ______ ____
ROOT
ATOM      1  N   UNL     1      -1.200  -2.457  -2.642  0.00  0.00    -0.331 N 
ATOM      2  C   UNL     1      -1.697  -3.778  -2.228  0.00  0.00    +0.086 C 
ATOM      3  C   UNL     1      -0.853  -4.266  -1.046  0.00  0.00    -0.061 C 
ATOM      4  N   UNL     1       0.567  -4.243  -1.417  0.00  0.00    +0.398 N 
ATOM      5  C   UNL     1       0.996  -2.861  -1.665  0.00  0.00    +0.133 C 
ATOM      6  C   UNL     1       0.243  -2.304  -2.883  0.00  0.00    +0.115 C 
ATOM      7  H   UNL     1       1.116  -4.635  -0.667  0.00  0.00    -0.083 HD
ATOM      8  H   UNL     1       0.704  -4.791  -2.253  0.00  0.00    -0.083 HD
ENDROOT
BRANCH   1  14
ATOM      9  C   UNL     1      -2.349  -0.537  -1.738  0.00  0.00    -0.025 A 
ATOM     10  C   UNL     1      -3.209   0.531  -1.906  0.00  0.00    +0.019 A 
ATOM     11  C   UNL     1      -3.800   0.758  -3.136  0.00  0.00    +0.014 A 
ATOM     12  C   UNL     1      -3.533  -0.084  -4.201  0.00  0.00    +0.016 A 
ATOM     13  C   UNL     1      -2.674  -1.153  -4.039  0.00  0.00    +0.024 A 
ATOM     14  C   UNL     1      -2.074  -1.379  -2.807  0.00  0.00    +0.033 A 
ATOM     15  I   UNL     1      -5.104   2.378  -3.386  0.00  0.00    -0.044 I 
BRANCH   9  16
ATOM     16  C   UNL     1      -1.706  -0.783  -0.398  0.00  0.00    +0.040 C 
BRANCH  16  18
ATOM     17  C   UNL     1      -0.476   1.391  -0.470  0.00  0.00    +0.007 C 
ATOM     18  C   UNL     1      -0.323  -0.128  -0.368  0.00  0.00    -0.013 C 
ATOM     19  C   UNL     1       0.381  -0.482   0.943  0.00  0.00    +0.007 C 
ENDBRANCH  16  18
ENDBRANCH   9  16
ENDBRANCH   1  14
BRANCH   5  20
ATOM     20  S   UNL     1       2.780  -2.831  -1.994  0.00  0.00    +0.109 S 
ATOM     21  O   UNL     1       3.084  -3.644  -3.118  0.00  0.00    -0.138 OA
ATOM     22  O   UNL     1       3.272  -1.500  -1.908  0.00  0.00    -0.138 OA
BRANCH  20  23
ATOM     23  O   UNL     1       3.408  -3.554  -0.810  0.00  0.00    -0.347 OA
BRANCH  23  24
ATOM     24  C   UNL     1       3.455  -2.813   0.328  0.00  0.00    +0.156 A 
ATOM     25  C   UNL     1       4.493  -1.916   0.531  0.00  0.00    +0.048 A 
ATOM     26  C   UNL     1       4.538  -1.164   1.689  0.00  0.00    +0.004 A 
ATOM     27  C   UNL     1       3.549  -1.306   2.646  0.00  0.00    +0.000 A 
ATOM     28  C   UNL     1       2.514  -2.200   2.446  0.00  0.00    +0.004 A 
ATOM     29  C   UNL     1       2.461  -2.950   1.287  0.00  0.00    +0.048 A 
ENDBRANCH  23  24
ENDBRANCH  20  23
ENDBRANCH   5  20
TORSDOF 6
