REMARK  Name = ZINC28286085
REMARK  10 active torsions:
REMARK  status: ('A' for Active; 'I' for Inactive)
REMARK    1  A    between atoms: C_1  and  C_2
REMARK    2  A    between atoms: C_2  and  C_3
REMARK    3  A    between atoms: C_3  and  C_5
REMARK    4  A    between atoms: C_3  and  C_34
REMARK    5  A    between atoms: C_5  and  N_6
REMARK    6  A    between atoms: C_25  and  C_27
REMARK    7  A    between atoms: C_25  and  C_28
REMARK    8  A    between atoms: C_30  and  S_32
REMARK    9  A    between atoms: S_32  and  C_33
REMARK   10  A    between atoms: C_34  and  O_35
REMARK                            x       y       z     vdW  Elec       q    Type
REMARK                         _______ _______ _______ _____ _____    ______ ____
ROOT
ATOM      1  N   UNL     1      -6.512   7.186   5.701  0.00  0.00    -0.328 N 
ATOM      2  C   UNL     1      -5.628   6.157   5.986  0.00  0.00    +0.138 A 
ATOM      3  C   UNL     1      -4.994   5.463   4.966  0.00  0.00    +0.080 A 
ATOM      4  C   UNL     1      -4.099   4.423   5.246  0.00  0.00    +0.094 A 
ATOM      5  C   UNL     1      -3.491   3.763   4.077  0.00  0.00    +0.038 A 
ATOM      6  C   UNL     1      -2.562   2.693   4.075  0.00  0.00    -0.024 A 
ATOM      7  C   UNL     1      -2.108   2.200   2.892  0.00  0.00    +0.022 A 
ATOM      8  C   UNL     1      -2.548   2.762   1.688  0.00  0.00    +0.128 A 
ATOM      9  N   UNL     1      -3.415   3.762   1.692  0.00  0.00    -0.224 NA
ATOM     10  C   UNL     1      -3.881   4.257   2.820  0.00  0.00    +0.113 A 
ATOM     11  S   UNL     1      -5.026   5.561   3.197  0.00  0.00    -0.064 S 
ATOM     12  N   UNL     1      -2.075   2.264   0.482  0.00  0.00    -0.310 N 
ATOM     13  C   UNL     1      -2.974   1.228  -0.048  0.00  0.00    +0.134 C 
ATOM     14  C   UNL     1      -2.386   0.665  -1.345  0.00  0.00    +0.178 C 
ATOM     15  O   UNL     1      -2.184   1.734  -2.274  0.00  0.00    -0.377 OA
ATOM     16  C   UNL     1      -1.313   2.760  -1.790  0.00  0.00    +0.178 C 
ATOM     17  C   UNL     1      -1.890   3.344  -0.498  0.00  0.00    +0.134 C 
ATOM     18  C   UNL     1      -1.126   1.058   2.840  0.00  0.00    +0.199 C 
ATOM     19  O   UNL     1      -0.514   0.873   4.116  0.00  0.00    -0.369 OA
ATOM     20  C   UNL     1      -1.462   0.764   5.184  0.00  0.00    +0.068 C 
ATOM     21  C   UNL     1      -2.110   2.134   5.397  0.00  0.00    +0.070 C 
ATOM     22  C   UNL     1      -0.746   0.328   6.465  0.00  0.00    +0.041 C 
ATOM     23  C   UNL     1      -2.535  -0.263   4.818  0.00  0.00    +0.041 C 
ATOM     24  N   UNL     1      -3.900   4.147   6.556  0.00  0.00    -0.221 NA
ATOM     25  C   UNL     1      -4.517   4.825   7.500  0.00  0.00    +0.190 A 
ATOM     26  N   UNL     1      -5.367   5.813   7.246  0.00  0.00    -0.206 NA
ATOM     27  H   UNL     1      -6.718   7.460   4.656  0.00  0.00    +0.147 HD
ENDROOT
BRANCH  25  28
ATOM     28  S   UNL     1      -4.200   4.402   9.181  0.00  0.00    -0.089 S 
ATOM     29  C   UNL     1      -5.268   5.602  10.014  0.00  0.00    +0.093 C 
ENDBRANCH  25  28
BRANCH   1  30
ATOM     30  C   UNL     1      -7.172   7.908   6.792  0.00  0.00    +0.108 C 
BRANCH  30  31
ATOM     31  C   UNL     1      -8.160   8.921   6.209  0.00  0.00    +0.031 C 
BRANCH  31  33
ATOM     32  C   UNL     1      -8.386  10.908   4.712  0.00  0.00    +0.004 C 
ATOM     33  C   UNL     1      -7.393   9.988   5.425  0.00  0.00    +0.004 C 
ENDBRANCH  31  33
BRANCH  31  34
ATOM     34  C   UNL     1      -8.940   9.585   7.346  0.00  0.00    +0.160 C 
BRANCH  34  35
ATOM     35  O   UNL     1      -9.964  10.417   6.798  0.00  0.00    -0.395 OA
ATOM     36  H   UNL     1     -10.632  10.980   7.466  0.00  0.00    +0.209 HD
ENDBRANCH  34  35
ENDBRANCH  31  34
ENDBRANCH  30  31
ENDBRANCH   1  30
TORSDOF 6
