REMARK  Name = ZINC50595140
REMARK  13 active torsions:
REMARK  status: ('A' for Active; 'I' for Inactive)
REMARK    1  A    between atoms: C_1  and  C_2
REMARK    2  A    between atoms: C_2  and  O_3
REMARK    3  A    between atoms: O_3  and  C_4
REMARK    4  A    between atoms: C_4  and  C_6
REMARK    5  A    between atoms: C_6  and  C_7
REMARK    6  A    between atoms: C_6  and  C_8
REMARK    7  A    between atoms: C_6  and  N_20
REMARK    8  A    between atoms: C_8  and  C_9
REMARK    9  A    between atoms: C_9  and  C_10
REMARK   10  A    between atoms: C_10  and  C_11
REMARK   11  A    between atoms: C_11  and  N_12
REMARK   12  A    between atoms: C_13  and  C_19
REMARK   13  A    between atoms: C_15  and  C_17
REMARK                            x       y       z     vdW  Elec       q    Type
REMARK                         _______ _______ _______ _____ _____    ______ ____
ROOT
ATOM      1  C   UNL     1       2.046  -3.775   2.158  0.00  0.00    -0.002 C 
ENDROOT
BRANCH   1   2
ATOM      2  C   UNL     1       1.516  -2.381   2.500  0.00  0.00    +0.025 C 
ATOM      3  C   UNL     1       0.544  -2.479   3.677  0.00  0.00    +0.001 C 
BRANCH   2   4
ATOM      4  N   UNL     1       2.639  -1.506   2.864  0.00  0.00    +0.389 N 
ATOM      5  H   UNL     1       2.290  -0.587   3.090  0.00  0.00    -0.088 HD
ATOM      6  H   UNL     1       3.118  -1.890   3.665  0.00  0.00    -0.088 HD
ATOM      7  H   UNL     1       3.280  -1.441   2.088  0.00  0.00    -0.088 HD
ENDBRANCH   2   4
BRANCH   2   8
ATOM      8  C   UNL     1       0.801  -1.808   1.304  0.00  0.00    +0.295 C 
ATOM      9  O   UNL     1       0.324  -2.546   0.475  0.00  0.00    -0.252 OA
BRANCH   8  10
ATOM     10  O   UNL     1       0.693  -0.477   1.160  0.00  0.00    -0.466 OA
BRANCH  10  12
ATOM     11  C   UNL     1      -0.019   1.526   0.010  0.00  0.00    +0.048 C 
ATOM     12  C   UNL     1       0.002  -0.004   0.002  0.00  0.00    +0.228 C 
ENDBRANCH  10  12
ENDBRANCH   8  10
ENDBRANCH   2   8
ENDBRANCH   1   2
BRANCH   1  13
ATOM     13  C   UNL     1       2.772  -4.356   3.373  0.00  0.00    +0.001 C 
BRANCH  13  14
ATOM     14  C   UNL     1       3.302  -5.750   3.030  0.00  0.00    +0.023 C 
BRANCH  14  15
ATOM     15  C   UNL     1       4.028  -6.332   4.245  0.00  0.00    +0.144 C 
BRANCH  15  16
ATOM     16  N   UNL     1       4.535  -7.667   3.917  0.00  0.00    -0.267 N 
ATOM     17  C   UNL     1       3.872  -8.831   4.083  0.00  0.00    +0.050 A 
ATOM     18  C   UNL     1       4.682  -9.831   3.662  0.00  0.00    +0.061 A 
ATOM     19  C   UNL     1       5.880  -9.257   3.223  0.00  0.00    +0.074 A 
ATOM     20  N   UNL     1       5.791  -7.960   3.371  0.00  0.00    -0.175 NA
ATOM     21  C   UNL     1       7.067 -10.004   2.670  0.00  0.00    +0.068 C 
ATOM     22 BR   UNL     1       4.267 -11.676   3.666  0.00  0.00    -0.047 Br
ATOM     23  C   UNL     1       2.480  -8.990   4.639  0.00  0.00    +0.066 C 
ENDBRANCH  15  16
ENDBRANCH  14  15
ENDBRANCH  13  14
ENDBRANCH   1  13
TORSDOF 9
