REMARK  Name = ZINC21595367
REMARK  13 active torsions:
REMARK  status: ('A' for Active; 'I' for Inactive)
REMARK    1  A    between atoms: C_1  and  C_2
REMARK    2  A    between atoms: C_2  and  C_3
REMARK    3  A    between atoms: C_2  and  O_4
REMARK    4  A    between atoms: O_4  and  C_5
REMARK    5  A    between atoms: C_9  and  C_11
REMARK    6  A    between atoms: N_13  and  C_14
REMARK    7  A    between atoms: C_14  and  N_16
REMARK    8  A    between atoms: N_16  and  C_17
REMARK    9  A    between atoms: C_24  and  C_27
REMARK   10  A    between atoms: N_29  and  C_30
REMARK   11  A    between atoms: C_30  and  C_31
REMARK   12  A    between atoms: C_30  and  C_32
REMARK   13  A    between atoms: C_30  and  C_33
REMARK                            x       y       z     vdW  Elec       q    Type
REMARK                         _______ _______ _______ _____ _____    ______ ____
ROOT
ATOM      1  N   UNL     1       2.639   4.012  -0.046  0.00  0.00    -0.296 N 
ATOM      2  H   UNL     1       3.466   3.492  -0.551  0.00  0.00    +0.154 HD
ENDROOT
BRANCH   1   3
ATOM      3  C   UNL     1       1.380   3.407   0.041  0.00  0.00    +0.047 A 
ATOM      4  C   UNL     1       0.228   4.163  -0.109  0.00  0.00    +0.024 A 
ATOM      5  C   UNL     1      -1.012   3.544  -0.019  0.00  0.00    +0.002 A 
ATOM      6  C   UNL     1      -1.128   2.212   0.218  0.00  0.00    +0.010 A 
ATOM      7  C   UNL     1       0.023   1.395   0.373  0.00  0.00    +0.010 A 
ATOM      8  C   UNL     1       1.274   2.047   0.278  0.00  0.00    +0.043 A 
ATOM      9  S   UNL     1       2.445   0.736   0.525  0.00  0.00    -0.080 S 
ATOM     10  C   UNL     1       1.288  -0.606   0.742  0.00  0.00    +0.093 A 
ATOM     11  C   UNL     1       0.081   0.010   0.616  0.00  0.00    +0.068 A 
ATOM     12 CL   UNL     1      -1.384  -0.911   0.754  0.00  0.00    -0.082 Cl
BRANCH  10  13
ATOM     13  C   UNL     1       1.570  -2.025   0.993  0.00  0.00    +0.253 C 
ATOM     14  O   UNL     1       0.652  -2.815   1.117  0.00  0.00    -0.270 OA
ATOM     15  N   UNL     1       2.845  -2.453   1.087  0.00  0.00    -0.306 N 
ATOM     16  H   UNL     1       3.674  -1.739   0.976  0.00  0.00    +0.150 HD
BRANCH  15  17
ATOM     17  C   UNL     1       3.125  -3.869   1.339  0.00  0.00    +0.026 C 
ATOM     18  C   UNL     1       2.534  -4.714   0.209  0.00  0.00    +0.031 C 
ATOM     19  C   UNL     1       4.639  -4.085   1.399  0.00  0.00    +0.031 C 
ATOM     20  C   UNL     1       2.497  -4.285   2.670  0.00  0.00    +0.031 C 
ENDBRANCH  15  17
ENDBRANCH  10  13
ENDBRANCH   1   3
BRANCH   1  21
ATOM     21  C   UNL     1       2.838   5.233   0.489  0.00  0.00    +0.141 C 
ATOM     22  S   UNL     1       1.573   6.011   1.341  0.00  0.00    -0.018 S 
BRANCH  21  25
ATOM     23  C   UNL     1       4.232   7.062   0.890  0.00  0.00    +0.250 C 
ATOM     24  O   UNL     1       3.335   7.614   1.494  0.00  0.00    -0.270 OA
ATOM     25  N   UNL     1       4.033   5.841   0.354  0.00  0.00    -0.264 N 
ATOM     26  H   UNL     1       4.846   5.341  -0.193  0.00  0.00    +0.157 HD
BRANCH  23  31
ATOM     27  C   UNL     1       6.982   9.611   1.152  0.00  0.00    +0.122 A 
ATOM     28  C   UNL     1       8.004   8.975   0.460  0.00  0.00    +0.046 A 
ATOM     29  C   UNL     1       7.799   7.722  -0.089  0.00  0.00    +0.004 A 
ATOM     30  C   UNL     1       6.578   7.094   0.053  0.00  0.00    +0.013 A 
ATOM     31  C   UNL     1       5.543   7.729   0.742  0.00  0.00    +0.041 A 
ATOM     32  C   UNL     1       5.752   8.993   1.295  0.00  0.00    +0.058 A 
BRANCH  27  33
ATOM     33  O   UNL     1       7.190  10.842   1.690  0.00  0.00    -0.489 OA
BRANCH  33  35
ATOM     34  C   UNL     1       8.451  12.129   0.078  0.00  0.00    +0.051 C 
ATOM     35  C   UNL     1       8.462  11.449   1.449  0.00  0.00    +0.167 C 
ATOM     36  C   UNL     1       8.743  12.491   2.533  0.00  0.00    +0.051 C 
ENDBRANCH  33  35
ENDBRANCH  27  33
ENDBRANCH  23  31
ENDBRANCH  21  25
ENDBRANCH   1  21
TORSDOF 8
