REMARK  Name = ZINC39500165
REMARK  6 active torsions:
REMARK  status: ('A' for Active; 'I' for Inactive)
REMARK    1  A    between atoms: C_1  and  C_2
REMARK    2  A    between atoms: C_5  and  N_9
REMARK    3  A    between atoms: C_7  and  C_8
REMARK    4  A    between atoms: C_15  and  N_21
REMARK    5  A    between atoms: N_21  and  C_22
REMARK    6  A    between atoms: C_22  and  C_23
REMARK                            x       y       z     vdW  Elec       q    Type
REMARK                         _______ _______ _______ _____ _____    ______ ____
ROOT
ATOM      1  N   UNL     1       0.035  -4.086  -0.217  0.00  0.00    -0.221 N 
ATOM      2  C   UNL     1      -0.038  -5.037  -1.315  0.00  0.00    +0.105 C 
ATOM      3  C   UNL     1       0.484  -4.660  -2.681  0.00  0.00    +0.025 C 
ATOM      4  C   UNL     1       0.331  -5.906  -3.573  0.00  0.00    +0.000 C 
ATOM      5  C   UNL     1       1.048  -7.120  -2.993  0.00  0.00    -0.015 C 
ATOM      6  C   UNL     1       0.623  -7.396  -1.537  0.00  0.00    -0.061 C 
ATOM      7  C   UNL     1       0.910  -6.138  -0.758  0.00  0.00    +0.040 C 
ATOM      8  C   UNL     1       0.623  -6.064   0.702  0.00  0.00    +0.107 C 
ATOM      9  N   UNL     1       0.138  -4.893   0.944  0.00  0.00    -0.192 NA
ENDROOT
BRANCH   1  14
ATOM     10  C   UNL     1      -0.055   1.575  -0.513  0.00  0.00    +0.044 C 
ATOM     11  C   UNL     1      -0.031   0.071  -0.434  0.00  0.00    -0.047 A 
ATOM     12  C   UNL     1      -0.954  -0.672  -1.147  0.00  0.00    +0.005 A 
ATOM     13  C   UNL     1      -0.935  -2.051  -1.078  0.00  0.00    +0.025 A 
ATOM     14  C   UNL     1       0.013  -2.692  -0.290  0.00  0.00    +0.052 A 
ATOM     15  C   UNL     1       0.939  -1.943   0.425  0.00  0.00    +0.028 A 
ATOM     16  C   UNL     1       0.917  -0.564   0.347  0.00  0.00    -0.046 A 
ATOM     17  C   UNL     1       1.925   0.249   1.117  0.00  0.00    +0.044 C 
ENDBRANCH   1  14
BRANCH   6  18
ATOM     18  N   UNL     1      -0.814  -7.698  -1.478  0.00  0.00    +0.385 N 
ATOM     19  H   UNL     1      -1.104  -7.769  -0.515  0.00  0.00    -0.085 HD
ATOM     20  H   UNL     1      -1.331  -6.960  -1.932  0.00  0.00    -0.085 HD
BRANCH  18  21
ATOM     21  C   UNL     1      -1.074  -8.971  -2.164  0.00  0.00    -0.028 C 
BRANCH  21  22
ATOM     22  C   UNL     1      -2.547  -9.282  -2.104  0.00  0.00    -0.000 A 
ATOM     23  H   UNL     1      -2.739 -10.229  -0.259  0.00  0.00    +0.166 HD
ATOM     24  C   UNL     1      -3.437  -8.984  -3.064  0.00  0.00    +0.029 A 
ATOM     25  C   UNL     1      -4.743  -9.459  -2.600  0.00  0.00    -0.000 A 
ATOM     26  C   UNL     1      -6.030  -9.442  -3.141  0.00  0.00    +0.010 A 
ATOM     27  C   UNL     1      -7.069  -9.983  -2.437  0.00  0.00    +0.001 A 
ATOM     28  C   UNL     1      -6.855 -10.551  -1.189  0.00  0.00    +0.002 A 
ATOM     29  C   UNL     1      -5.593 -10.579  -0.636  0.00  0.00    +0.026 A 
ATOM     30  C   UNL     1      -4.521 -10.033  -1.335  0.00  0.00    +0.047 A 
ATOM     31  N   UNL     1      -3.176  -9.914  -1.066  0.00  0.00    -0.360 N 
ENDBRANCH  21  22
ENDBRANCH  18  21
ENDBRANCH   6  18
TORSDOF 4
