REMARK  Name = ZINC59170723
REMARK  8 active torsions:
REMARK  status: ('A' for Active; 'I' for Inactive)
REMARK    1  A    between atoms: C_1  and  C_2
REMARK    2  A    between atoms: C_5  and  S_8
REMARK    3  A    between atoms: S_8  and  N_11
REMARK    4  A    between atoms: N_11  and  N_12
REMARK    5  A    between atoms: C_14  and  C_24
REMARK    6  A    between atoms: C_19  and  O_23
REMARK    7  A    between atoms: N_26  and  C_27
REMARK    8  A    between atoms: C_31  and  N_33
REMARK                            x       y       z     vdW  Elec       q    Type
REMARK                         _______ _______ _______ _____ _____    ______ ____
ROOT
ATOM      1  N   UNL     1       2.331  -3.848   0.160  0.00  0.00    -0.260 N 
ATOM      2  C   UNL     1       3.487  -4.566   0.218  0.00  0.00    +0.225 A 
ATOM      3  C   UNL     1       4.226  -4.565   1.400  0.00  0.00    +0.099 A 
ATOM      4  C   UNL     1       5.427  -5.302   1.485  0.00  0.00    +0.030 A 
ATOM      5  C   UNL     1       5.839  -6.019   0.359  0.00  0.00    +0.018 A 
ATOM      6  C   UNL     1       7.026  -6.781   0.359  0.00  0.00    +0.015 A 
ATOM      7  C   UNL     1       7.385  -7.461  -0.761  0.00  0.00    +0.046 A 
ATOM      8  C   UNL     1       6.597  -7.421  -1.920  0.00  0.00    +0.120 A 
ATOM      9  C   UNL     1       5.424  -6.689  -1.969  0.00  0.00    +0.092 A 
ATOM     10  C   UNL     1       5.012  -5.976  -0.853  0.00  0.00    +0.141 A 
ATOM     11  O   UNL     1       3.878  -5.258  -0.860  0.00  0.00    -0.437 OA
ATOM     12  H   UNL     1       1.996  -3.404   0.954  0.00  0.00    +0.189 HD
ENDROOT
BRANCH   3  13
ATOM     13  C   UNL     1       3.750  -3.789   2.569  0.00  0.00    +0.253 C 
ATOM     14  O   UNL     1       2.887  -4.247   3.291  0.00  0.00    -0.270 OA
ATOM     15  N   UNL     1       4.274  -2.575   2.830  0.00  0.00    -0.281 N 
ATOM     16  H   UNL     1       4.895  -2.170   2.205  0.00  0.00    +0.155 HD
BRANCH  15  17
ATOM     17  C   UNL     1       3.924  -1.901   4.003  0.00  0.00    +0.036 A 
ATOM     18  C   UNL     1       3.643  -2.616   5.161  0.00  0.00    +0.023 A 
ATOM     19  C   UNL     1       3.298  -1.947   6.318  0.00  0.00    +0.004 A 
ATOM     20  C   UNL     1       3.229  -0.565   6.325  0.00  0.00    +0.033 A 
ATOM     21  C   UNL     1       3.507   0.150   5.175  0.00  0.00    +0.128 A 
ATOM     22  C   UNL     1       3.860  -0.513   4.016  0.00  0.00    +0.056 A 
BRANCH  21  23
ATOM     23  N   UNL     1       3.432   1.628   5.187  0.00  0.00    +0.056 N 
ATOM     24  O   UNL     1       3.101   2.261   6.294  0.00  0.00    -0.126 OA
ATOM     25  O   UNL     1       3.696   2.310   4.092  0.00  0.00    -0.126 OA
ENDBRANCH  21  23
ENDBRANCH  15  17
ENDBRANCH   3  13
BRANCH   1  26
ATOM     26  N   UNL     1       1.683  -3.759  -0.951  0.00  0.00    -0.157 N 
ATOM     27  H   UNL     1       1.976  -4.263  -1.726  0.00  0.00    +0.194 HD
BRANCH  26  28
ATOM     28  S   UNL     1       0.348  -2.784  -1.055  0.00  0.00    +0.085 S 
ATOM     29  O   UNL     1      -0.575  -3.254  -0.082  0.00  0.00    -0.149 OA
ATOM     30  O   UNL     1       0.019  -2.692  -2.434  0.00  0.00    -0.149 OA
BRANCH  28  35
ATOM     31  C   UNL     1       2.031   2.741   0.687  0.00  0.00    +0.044 C 
ATOM     32  C   UNL     1       1.610   1.361   0.252  0.00  0.00    -0.050 A 
ATOM     33  C   UNL     1       1.803   0.961  -1.057  0.00  0.00    +0.005 A 
ATOM     34  C   UNL     1       1.417  -0.305  -1.456  0.00  0.00    +0.029 A 
ATOM     35  C   UNL     1       0.840  -1.171  -0.546  0.00  0.00    +0.110 A 
ATOM     36  C   UNL     1       0.649  -0.771   0.763  0.00  0.00    +0.029 A 
ATOM     37  C   UNL     1       1.038   0.493   1.163  0.00  0.00    +0.005 A 
ENDBRANCH  28  35
ENDBRANCH  26  28
ENDBRANCH   1  26
BRANCH   8  38
ATOM     38  O   UNL     1       6.993  -8.114  -3.014  0.00  0.00    -0.507 OA
ATOM     39  H   UNL     1       6.656  -9.020  -3.049  0.00  0.00    +0.292 HD
ENDBRANCH   8  38
TORSDOF 7
