REMARK  Name = ZINC05101766
REMARK  8 active torsions:
REMARK  status: ('A' for Active; 'I' for Inactive)
REMARK    1  A    between atoms: C_1  and  C_2
REMARK    2  A    between atoms: C_5  and  C_8
REMARK    3  A    between atoms: C_8  and  C_9
REMARK    4  A    between atoms: C_8  and  C_17
REMARK    5  A    between atoms: C_8  and  O_24
REMARK    6  A    between atoms: C_9  and  N_46
REMARK    7  A    between atoms: C_10  and  C_11
REMARK    8  A    between atoms: C_10  and  N_46
REMARK                            x       y       z     vdW  Elec       q    Type
REMARK                         _______ _______ _______ _____ _____    ______ ____
ROOT
ATOM      1  C   UNL     1      -0.131   7.792  -2.835  0.00  0.00    +0.101 C 
ENDROOT
BRANCH   1   6
ATOM      2  C   UNL     1       0.264  13.555  -2.968  0.00  0.00    +0.044 C 
ATOM      3  C   UNL     1       0.161  12.052  -2.933  0.00  0.00    -0.050 A 
ATOM      4  C   UNL     1      -0.522  11.383  -3.931  0.00  0.00    +0.004 A 
ATOM      5  C   UNL     1      -0.617  10.005  -3.900  0.00  0.00    +0.007 A 
ATOM      6  C   UNL     1      -0.028   9.295  -2.870  0.00  0.00    -0.014 A 
ATOM      7  C   UNL     1       0.651   9.964  -1.869  0.00  0.00    +0.007 A 
ATOM      8  C   UNL     1       0.749  11.343  -1.903  0.00  0.00    +0.004 A 
ENDBRANCH   1   6
BRANCH   1   9
ATOM      9  C   UNL     1       1.034   7.191  -3.578  0.00  0.00    -0.013 A 
ATOM     10  C   UNL     1       2.207   6.901  -2.906  0.00  0.00    +0.008 A 
ATOM     11  C   UNL     1       3.274   6.345  -3.587  0.00  0.00    +0.015 A 
ATOM     12  C   UNL     1       3.172   6.090  -4.943  0.00  0.00    +0.018 A 
ATOM     13  C   UNL     1       2.000   6.385  -5.615  0.00  0.00    +0.015 A 
ATOM     14  C   UNL     1       0.932   6.936  -4.933  0.00  0.00    +0.008 A 
ATOM     15 BR   UNL     1       4.634   5.336  -5.875  0.00  0.00    -0.050 Br
ENDBRANCH   1   9
BRANCH   1  16
ATOM     16  O   UNL     1      -1.353   7.384  -3.454  0.00  0.00    -0.381 OA
ATOM     17  H   UNL     1      -2.146   7.734  -3.027  0.00  0.00    +0.211 HD
ENDBRANCH   1  16
BRANCH   1  18
ATOM     18  C   UNL     1      -0.111   7.313  -1.382  0.00  0.00    -0.037 C 
BRANCH  18  19
ATOM     19  N   UNL     1      -0.090   5.838  -1.360  0.00  0.00    +0.384 N 
ATOM     20  H   UNL     1       0.748   5.503  -1.849  0.00  0.00    -0.085 HD
ATOM     21  H   UNL     1      -0.928   5.481  -1.833  0.00  0.00    -0.085 HD
BRANCH  19  22
ATOM     22  C   UNL     1      -0.070   5.347   0.031  0.00  0.00    -0.047 C 
BRANCH  22  23
ATOM     23  C   UNL     1      -0.050   3.840   0.023  0.00  0.00    -0.064 A 
ATOM     24  C   UNL     1       1.156   3.165   0.008  0.00  0.00    +0.002 A 
ATOM     25  C   UNL     1       1.175   1.783   0.000  0.00  0.00    +0.000 A 
ATOM     26  C   UNL     1      -0.013   1.076   0.008  0.00  0.00    +0.000 A 
ATOM     27  C   UNL     1      -1.219   1.751   0.017  0.00  0.00    +0.000 A 
ATOM     28  C   UNL     1      -1.238   3.133   0.030  0.00  0.00    +0.002 A 
ENDBRANCH  22  23
ENDBRANCH  19  22
ENDBRANCH  18  19
ENDBRANCH   1  18
TORSDOF 7
