REMARK  Name = ZINC61362303
REMARK  7 active torsions:
REMARK  status: ('A' for Active; 'I' for Inactive)
REMARK    1  A    between atoms: C_1  and  O_2
REMARK    2  A    between atoms: O_2  and  C_3
REMARK    3  A    between atoms: C_6  and  C_9
REMARK    4  A    between atoms: C_9  and  C_11
REMARK    5  A    between atoms: C_9  and  O_23
REMARK    6  A    between atoms: C_11  and  N_12
REMARK    7  A    between atoms: N_12  and  C_13
REMARK                            x       y       z     vdW  Elec       q    Type
REMARK                         _______ _______ _______ _____ _____    ______ ____
ROOT
ATOM      1  C   UNL     1       1.464  -2.759  -5.490  0.00  0.00    -0.045 C 
ENDROOT
BRANCH   1   2
ATOM      2  N   UNL     1       2.107  -3.501  -6.582  0.00  0.00    +0.385 N 
ATOM      3  H   UNL     1       2.773  -2.903  -7.048  0.00  0.00    -0.085 HD
ATOM      4  H   UNL     1       2.584  -4.307  -6.206  0.00  0.00    -0.085 HD
BRANCH   2   5
ATOM      5  C   UNL     1       1.087  -3.940  -7.543  0.00  0.00    -0.040 C 
ATOM      6  C   UNL     1       0.470  -2.721  -8.229  0.00  0.00    -0.011 C 
ATOM      7  C   UNL     1      -0.461  -3.170  -9.360  0.00  0.00    +0.004 C 
ATOM      8  C   UNL     1       0.392  -3.744 -10.501  0.00  0.00    +0.042 C 
ATOM      9  C   UNL     1       1.384  -4.695  -9.913  0.00  0.00    -0.009 A 
ATOM     10  C   UNL     1       1.731  -4.830  -8.602  0.00  0.00    -0.051 A 
ATOM     11  C   UNL     1       2.686  -5.802  -8.305  0.00  0.00    +0.010 A 
ATOM     12  C   UNL     1       3.217  -6.555  -9.294  0.00  0.00    +0.045 A 
ATOM     13  S   UNL     1       2.378  -5.908 -10.739  0.00  0.00    -0.101 S 
ENDBRANCH   2   5
ENDBRANCH   1   2
BRANCH   1  14
ATOM     14  C   UNL     1       2.506  -2.412  -4.425  0.00  0.00    +0.128 C 
BRANCH  14  18
ATOM     15  C   UNL     1       0.634  -0.254  -1.248  0.00  0.00    +0.120 A 
ATOM     16  C   UNL     1       1.263   0.432  -2.278  0.00  0.00    +0.046 A 
ATOM     17  C   UNL     1       1.867  -0.269  -3.303  0.00  0.00    +0.009 A 
ATOM     18  C   UNL     1       1.846  -1.651  -3.305  0.00  0.00    -0.021 A 
ATOM     19  C   UNL     1       1.220  -2.336  -2.280  0.00  0.00    +0.009 A 
ATOM     20  C   UNL     1       0.619  -1.641  -1.249  0.00  0.00    +0.046 A 
BRANCH  15  22
ATOM     21  C   UNL     1       0.093   1.859  -0.302  0.00  0.00    +0.277 C 
ATOM     22  O   UNL     1       0.039   0.433  -0.237  0.00  0.00    -0.495 OA
ENDBRANCH  15  22
ENDBRANCH  14  18
BRANCH  14  23
ATOM     23  O   UNL     1       3.080  -3.616  -3.911  0.00  0.00    -0.389 OA
ATOM     24  H   UNL     1       2.439  -4.212  -3.499  0.00  0.00    +0.210 HD
ENDBRANCH  14  23
ENDBRANCH   1  14
TORSDOF 6
