REMARK  Name = ZINC51675971
REMARK  7 active torsions:
REMARK  status: ('A' for Active; 'I' for Inactive)
REMARK    1  A    between atoms: C_1  and  O_2
REMARK    2  A    between atoms: O_2  and  C_3
REMARK    3  A    between atoms: C_6  and  C_9
REMARK    4  A    between atoms: C_9  and  C_11
REMARK    5  A    between atoms: C_9  and  N_25
REMARK    6  A    between atoms: C_11  and  N_12
REMARK    7  A    between atoms: C_19  and  C_22
REMARK                            x       y       z     vdW  Elec       q    Type
REMARK                         _______ _______ _______ _____ _____    ______ ____
ROOT
ATOM      1  C   UNL     1       3.796  -2.958  -3.942  0.00  0.00    +0.095 C 
ENDROOT
BRANCH   1   2
ATOM      2  N   UNL     1       4.710  -1.825  -3.778  0.00  0.00    -0.300 N 
ATOM      3  C   UNL     1       6.010  -2.043  -3.495  0.00  0.00    +0.302 C 
ATOM      4  O   UNL     1       6.406  -3.175  -3.294  0.00  0.00    -0.253 OA
ATOM      5  N   UNL     1       6.870  -1.007  -3.436  0.00  0.00    -0.281 N 
ATOM      6  C   UNL     1       6.395   0.380  -3.562  0.00  0.00    +0.137 C 
ATOM      7  C   UNL     1       7.247   1.089  -4.620  0.00  0.00    +0.180 C 
ATOM      8  O   UNL     1       8.631   0.917  -4.302  0.00  0.00    -0.364 OA
ATOM      9  C   UNL     1       9.071  -0.443  -4.316  0.00  0.00    +0.221 C 
ATOM     10  C   UNL     1       8.311  -1.230  -3.237  0.00  0.00    +0.150 C 
ATOM     11  H   UNL     1       4.380  -0.918  -3.874  0.00  0.00    +0.150 HD
BRANCH   9  12
ATOM     12  C   UNL     1      10.549  -0.496  -4.031  0.00  0.00    +0.241 C 
ATOM     13  O   UNL     1      11.149   0.518  -3.745  0.00  0.00    -0.273 OA
ATOM     14  N   UNL     1      11.205  -1.672  -4.093  0.00  0.00    -0.327 N 
ATOM     15  H   UNL     1      10.726  -2.484  -4.322  0.00  0.00    +0.145 HD
ATOM     16  H   UNL     1      12.157  -1.707  -3.909  0.00  0.00    +0.145 HD
ENDBRANCH   9  12
ENDBRANCH   1   2
BRANCH   1  17
ATOM     17  C   UNL     1       2.420  -2.445  -4.373  0.00  0.00    -0.020 C 
BRANCH  17  21
ATOM     18  C   UNL     1       0.730  -0.087  -1.236  0.00  0.00    +0.120 A 
ATOM     19  C   UNL     1       1.339   0.531  -2.318  0.00  0.00    +0.046 A 
ATOM     20  C   UNL     1       1.885  -0.233  -3.331  0.00  0.00    +0.005 A 
ATOM     21  C   UNL     1       1.824  -1.613  -3.267  0.00  0.00    -0.059 A 
ATOM     22  C   UNL     1       1.217  -2.231  -2.189  0.00  0.00    +0.005 A 
ATOM     23  C   UNL     1       0.675  -1.471  -1.171  0.00  0.00    +0.046 A 
BRANCH  18  25
ATOM     24  C   UNL     1       0.285   2.083  -0.371  0.00  0.00    +0.277 C 
ATOM     25  O   UNL     1       0.192   0.663  -0.238  0.00  0.00    -0.495 OA
ENDBRANCH  18  25
ENDBRANCH  17  21
BRANCH  17  26
ATOM     26  N   UNL     1       1.540  -3.585  -4.658  0.00  0.00    +0.385 N 
ATOM     27  C   UNL     1       0.252  -3.109  -5.225  0.00  0.00    -0.078 C 
ATOM     28  C   UNL     1      -0.291  -4.356  -5.967  0.00  0.00    -0.020 C 
ATOM     29  C   UNL     1       0.988  -4.990  -6.560  0.00  0.00    -0.020 C 
ATOM     30  C   UNL     1       2.143  -4.449  -5.696  0.00  0.00    -0.078 C 
ATOM     31  H   UNL     1       1.375  -4.116  -3.816  0.00  0.00    -0.081 HD
ENDBRANCH  17  26
ENDBRANCH   1  17
TORSDOF 6
