REMARK  Name = ZINC29202708
REMARK  11 active torsions:
REMARK  status: ('A' for Active; 'I' for Inactive)
REMARK    1  A    between atoms: C_1  and  C_2
REMARK    2  A    between atoms: C_2  and  C_3
REMARK    3  A    between atoms: C_2  and  C_4
REMARK    4  A    between atoms: C_4  and  C_6
REMARK    5  A    between atoms: C_4  and  N_11
REMARK    6  A    between atoms: N_11  and  C_12
REMARK    7  A    between atoms: C_12  and  C_13
REMARK    8  A    between atoms: N_18  and  C_21
REMARK    9  A    between atoms: C_21  and  C_22
REMARK   10  A    between atoms: N_24  and  C_25
REMARK   11  A    between atoms: C_30  and  C_31
REMARK                            x       y       z     vdW  Elec       q    Type
REMARK                         _______ _______ _______ _____ _____    ______ ____
ROOT
ATOM      1  C   UNL     1       3.521   5.665   2.736  0.00  0.00    +0.198 C 
ATOM      2  O   UNL     1       4.391   4.823   2.804  0.00  0.00    -0.278 OA
ATOM      3  N   UNL     1       3.577   6.757   3.525  0.00  0.00    -0.307 N 
ATOM      4  C   UNL     1       2.536   7.794   3.453  0.00  0.00    +0.089 C 
ATOM      5  C   UNL     1       2.026   8.063   4.878  0.00  0.00    -0.059 C 
ATOM      6  N   UNL     1       3.164   8.386   5.747  0.00  0.00    +0.387 N 
ATOM      7  C   UNL     1       4.090   7.251   5.856  0.00  0.00    -0.059 C 
ATOM      8  C   UNL     1       4.682   6.945   4.476  0.00  0.00    +0.089 C 
ATOM      9  H   UNL     1       3.712   9.221   5.286  0.00  0.00    -0.081 HD
ENDROOT
BRANCH   1  10
ATOM     10  C   UNL     1       2.379   5.493   1.768  0.00  0.00    +0.016 C 
BRANCH  10  11
ATOM     11  N   UNL     1       2.549   4.234   1.030  0.00  0.00    +0.390 N 
ATOM     12  H   UNL     1       2.657   3.413   1.754  0.00  0.00    -0.084 HD
ATOM     13  H   UNL     1       3.459   4.304   0.417  0.00  0.00    -0.084 HD
BRANCH  11  14
ATOM     14  C   UNL     1       1.392   3.972   0.163  0.00  0.00    -0.031 C 
BRANCH  14  15
ATOM     15  C   UNL     1       1.212   2.484   0.001  0.00  0.00    -0.024 A 
ATOM     16  C   UNL     1       0.066   1.761  -0.023  0.00  0.00    +0.009 A 
ATOM     17  C   UNL     1       0.142   0.390  -0.185  0.00  0.00    +0.008 A 
ATOM     18  C   UNL     1       1.360  -0.190  -0.315  0.00  0.00    +0.045 A 
ATOM     19  S   UNL     1       2.453   1.218  -0.210  0.00  0.00    -0.103 S 
ENDBRANCH  14  15
BRANCH  14  21
ATOM     20  C   UNL     1       2.864   3.981  -1.856  0.00  0.00    +0.006 C 
ATOM     21  C   UNL     1       1.628   4.609  -1.208  0.00  0.00    -0.027 C 
ATOM     22  C   UNL     1       0.407   4.370  -2.098  0.00  0.00    +0.006 C 
ENDBRANCH  14  21
ENDBRANCH  11  14
ENDBRANCH  10  11
ENDBRANCH   1  10
BRANCH   6  23
ATOM     23  C   UNL     1       2.707   8.821   7.074  0.00  0.00    +0.019 C 
BRANCH  23  24
ATOM     24  C   UNL     1       1.901   7.720   7.713  0.00  0.00    +0.201 C 
ATOM     25  O   UNL     1       1.808   6.641   7.168  0.00  0.00    -0.278 OA
ATOM     26  N   UNL     1       1.283   7.935   8.892  0.00  0.00    -0.287 N 
ATOM     27  H   UNL     1       1.285   8.940   9.339  0.00  0.00    +0.155 HD
BRANCH  26  28
ATOM     28  C   UNL     1       0.638   6.879   9.546  0.00  0.00    +0.045 A 
ATOM     29  C   UNL     1       1.147   5.590   9.455  0.00  0.00    +0.024 A 
ATOM     30  C   UNL     1       0.511   4.551  10.106  0.00  0.00    +0.002 A 
ATOM     31  C   UNL     1      -0.636   4.792  10.840  0.00  0.00    +0.001 A 
ATOM     32  C   UNL     1      -1.148   6.074  10.928  0.00  0.00    +0.014 A 
ATOM     33  C   UNL     1      -0.514   7.118  10.283  0.00  0.00    +0.076 A 
BRANCH  33  34
ATOM     34  C   UNL     1      -1.073   8.514  10.379  0.00  0.00    +0.419 C 
ATOM     35  F   UNL     1      -2.227   8.501  11.169  0.00  0.00    -0.166 F 
ATOM     36  F   UNL     1      -0.120   9.359  10.959  0.00  0.00    -0.166 F 
ATOM     37  F   UNL     1      -1.390   8.979   9.098  0.00  0.00    -0.166 F 
ENDBRANCH  33  34
ENDBRANCH  26  28
ENDBRANCH  23  24
ENDBRANCH   6  23
TORSDOF 9
