REMARK  Name = ZINC36824698
REMARK  12 active torsions:
REMARK  status: ('A' for Active; 'I' for Inactive)
REMARK    1  A    between atoms: C_1  and  C_2
REMARK    2  A    between atoms: C_2  and  O_3
REMARK    3  A    between atoms: O_3  and  C_4
REMARK    4  A    between atoms: C_6  and  C_20
REMARK    5  A    between atoms: C_9  and  O_10
REMARK    6  A    between atoms: O_10  and  C_11
REMARK    7  A    between atoms: C_11  and  C_12
REMARK    8  A    between atoms: N_14  and  C_15
REMARK    9  A    between atoms: C_15  and  C_16
REMARK   10  A    between atoms: C_15  and  C_17
REMARK   11  A    between atoms: C_15  and  C_18
REMARK   12  A    between atoms: C_20  and  N_21
REMARK                            x       y       z     vdW  Elec       q    Type
REMARK                         _______ _______ _______ _____ _____    ______ ____
ROOT
ATOM      1  C   UNL     1       0.802  -1.825   1.306  0.00  0.00    +0.163 A 
ATOM      2  C   UNL     1       0.260  -2.673   0.352  0.00  0.00    +0.051 A 
ATOM      3  C   UNL     1       0.371  -4.043   0.502  0.00  0.00    -0.060 A 
ATOM      4  C   UNL     1       1.022  -4.571   1.602  0.00  0.00    +0.021 A 
ATOM      5  C   UNL     1       1.565  -3.730   2.557  0.00  0.00    +0.063 A 
ATOM      6  C   UNL     1       1.462  -2.356   2.409  0.00  0.00    +0.176 A 
ATOM      7 BR   UNL     1       2.453  -4.456   4.061  0.00  0.00    -0.046 Br
ENDROOT
BRANCH   1   8
ATOM      8  O   UNL     1       0.693  -0.477   1.160  0.00  0.00    -0.489 OA
BRANCH   8  10
ATOM      9  C   UNL     1      -0.019   1.526   0.010  0.00  0.00    +0.048 C 
ATOM     10  C   UNL     1       0.002  -0.004   0.002  0.00  0.00    +0.226 C 
ENDBRANCH   8  10
ENDBRANCH   1   8
BRANCH   6  11
ATOM     11  O   UNL     1       2.000  -1.528   3.345  0.00  0.00    -0.478 OA
BRANCH  11  12
ATOM     12  C   UNL     1       1.161  -1.151   4.438  0.00  0.00    +0.324 C 
BRANCH  12  13
ATOM     13  C   UNL     1       1.922  -0.238   5.365  0.00  0.00    +0.251 C 
ATOM     14  O   UNL     1       3.070   0.060   5.114  0.00  0.00    -0.272 OA
ATOM     15  N   UNL     1       1.326   0.246   6.473  0.00  0.00    -0.308 N 
ATOM     16  H   UNL     1       0.407   0.007   6.673  0.00  0.00    +0.149 HD
BRANCH  15  17
ATOM     17  C   UNL     1       2.066   1.133   7.374  0.00  0.00    +0.026 C 
ATOM     18  C   UNL     1       2.503   2.385   6.611  0.00  0.00    +0.031 C 
ATOM     19  C   UNL     1       1.167   1.536   8.544  0.00  0.00    +0.031 C 
ATOM     20  C   UNL     1       3.301   0.404   7.907  0.00  0.00    +0.031 C 
ENDBRANCH  15  17
ENDBRANCH  12  13
ENDBRANCH  11  12
ENDBRANCH   6  11
BRANCH   3  21
ATOM     21  C   UNL     1      -0.219  -4.963  -0.535  0.00  0.00    -0.050 C 
BRANCH  21  22
ATOM     22  N   UNL     1       0.785  -5.241  -1.571  0.00  0.00    +0.381 N 
ATOM     23  H   UNL     1       1.066  -4.376  -2.008  0.00  0.00    -0.090 HD
ATOM     24  H   UNL     1       1.589  -5.681  -1.149  0.00  0.00    -0.090 HD
ATOM     25  H   UNL     1       0.390  -5.857  -2.265  0.00  0.00    -0.090 HD
ENDBRANCH  21  22
ENDBRANCH   3  21
TORSDOF 8
