REMARK  Name = ZINC36612306
REMARK  11 active torsions:
REMARK  status: ('A' for Active; 'I' for Inactive)
REMARK    1  A    between atoms: C_1  and  C_2
REMARK    2  A    between atoms: C_2  and  O_3
REMARK    3  A    between atoms: O_3  and  C_4
REMARK    4  A    between atoms: C_6  and  C_23
REMARK    5  A    between atoms: C_9  and  O_10
REMARK    6  A    between atoms: O_10  and  C_11
REMARK    7  A    between atoms: C_11  and  C_12
REMARK    8  A    between atoms: N_14  and  C_15
REMARK    9  A    between atoms: C_15  and  C_16
REMARK   10  A    between atoms: C_23  and  N_24
REMARK   11  A    between atoms: N_24  and  C_25
REMARK                            x       y       z     vdW  Elec       q    Type
REMARK                         _______ _______ _______ _____ _____    ______ ____
ROOT
ATOM      1  C   UNL     1       0.777  -1.811  -1.336  0.00  0.00    +0.163 A 
ATOM      2  C   UNL     1       0.243  -2.669  -0.388  0.00  0.00    +0.051 A 
ATOM      3  C   UNL     1       0.352  -4.037  -0.554  0.00  0.00    -0.060 A 
ATOM      4  C   UNL     1       0.992  -4.553  -1.666  0.00  0.00    +0.020 A 
ATOM      5  C   UNL     1       1.527  -3.702  -2.616  0.00  0.00    +0.059 A 
ATOM      6  C   UNL     1       1.416  -2.329  -2.458  0.00  0.00    +0.176 A 
ATOM      7  I   UNL     1       2.497  -4.488  -4.298  0.00  0.00    -0.040 I 
ENDROOT
BRANCH   1   8
ATOM      8  O   UNL     1       0.671  -0.465  -1.174  0.00  0.00    -0.489 OA
BRANCH   8  10
ATOM      9  C   UNL     1      -0.019   1.526   0.010  0.00  0.00    +0.048 C 
ATOM     10  C   UNL     1       0.002  -0.004   0.002  0.00  0.00    +0.226 C 
ENDBRANCH   8  10
ENDBRANCH   1   8
BRANCH   6  11
ATOM     11  O   UNL     1       1.936  -1.492  -3.394  0.00  0.00    -0.478 OA
BRANCH  11  12
ATOM     12  C   UNL     1       3.293  -1.080  -3.215  0.00  0.00    +0.324 C 
BRANCH  12  13
ATOM     13  C   UNL     1       3.692  -0.161  -4.341  0.00  0.00    +0.251 C 
ATOM     14  O   UNL     1       2.893   0.114  -5.211  0.00  0.00    -0.272 OA
ATOM     15  N   UNL     1       4.936   0.354  -4.381  0.00  0.00    -0.308 N 
ATOM     16  H   UNL     1       5.575   0.134  -3.684  0.00  0.00    +0.149 HD
BRANCH  15  17
ATOM     17  C   UNL     1       5.325   1.248  -5.475  0.00  0.00    +0.139 C 
BRANCH  17  18
ATOM     18  C   UNL     1       6.755   1.681  -5.286  0.00  0.00    -0.030 A 
ATOM     19  C   UNL     1       7.042   2.820  -4.556  0.00  0.00    +0.005 A 
ATOM     20  C   UNL     1       8.354   3.218  -4.383  0.00  0.00    +0.000 A 
ATOM     21  C   UNL     1       9.380   2.477  -4.938  0.00  0.00    +0.000 A 
ATOM     22  C   UNL     1       9.094   1.338  -5.667  0.00  0.00    +0.000 A 
ATOM     23  C   UNL     1       7.782   0.938  -5.837  0.00  0.00    +0.005 A 
ENDBRANCH  17  18
ENDBRANCH  15  17
ENDBRANCH  12  13
ENDBRANCH  11  12
ENDBRANCH   6  11
BRANCH   3  24
ATOM     24  C   UNL     1      -0.229  -4.968   0.478  0.00  0.00    -0.047 C 
BRANCH  24  25
ATOM     25  N   UNL     1      -1.620  -5.283   0.127  0.00  0.00    +0.380 N 
ATOM     26  C   UNL     1      -2.186  -6.191   1.134  0.00  0.00    -0.100 C 
ATOM     27  H   UNL     1      -2.161  -4.431   0.100  0.00  0.00    -0.086 HD
ATOM     28  H   UNL     1      -1.646  -5.726  -0.778  0.00  0.00    -0.086 HD
ENDBRANCH  24  25
ENDBRANCH   3  24
TORSDOF 9
