REMARK  Name = ZINC20490240
REMARK  9 active torsions:
REMARK  status: ('A' for Active; 'I' for Inactive)
REMARK    1  A    between atoms: C_1  and  C_2
REMARK    2  A    between atoms: C_6  and  C_7
REMARK    3  A    between atoms: N_9  and  C_10
REMARK    4  A    between atoms: C_10  and  C_11
REMARK    5  A    between atoms: C_11  and  N_12
REMARK    6  A    between atoms: N_12  and  C_13
REMARK    7  A    between atoms: N_12  and  C_14
REMARK    8  A    between atoms: N_25  and  C_27
REMARK    9  A    between atoms: C_27  and  C_28
REMARK                            x       y       z     vdW  Elec       q    Type
REMARK                         _______ _______ _______ _____ _____    ______ ____
ROOT
ATOM      1  C   UNL     1      -0.810   2.457   5.380  0.00  0.00    +0.048 C 
ATOM      2  C   UNL     1       0.026   3.642   5.790  0.00  0.00    +0.009 A 
ATOM      3  C   UNL     1       0.836   4.417   4.966  0.00  0.00    +0.047 A 
ATOM      4  C   UNL     1       1.397   5.410   5.740  0.00  0.00    +0.116 A 
ATOM      5  O   UNL     1       0.982   5.228   6.992  0.00  0.00    -0.454 OA
ATOM      6  C   UNL     1       0.141   4.170   7.048  0.00  0.00    +0.193 A 
ATOM      7  C   UNL     1       2.304   6.473   5.180  0.00  0.00    +0.080 C 
ATOM      8  C   UNL     1       3.119   5.959   3.994  0.00  0.00    +0.046 C 
ATOM      9  C   UNL     1       2.272   5.134   3.063  0.00  0.00    -0.002 A 
ATOM     10  C   UNL     1       1.170   4.354   3.525  0.00  0.00    +0.099 A 
ATOM     11  N   UNL     1       0.666   3.720   2.517  0.00  0.00    -0.171 NA
ATOM     12  N   UNL     1       1.396   4.077   1.370  0.00  0.00    -0.266 N 
ATOM     13  C   UNL     1       2.370   4.943   1.741  0.00  0.00    +0.113 A 
ENDROOT
BRANCH   6  14
ATOM     14  C   UNL     1      -0.535   3.674   8.252  0.00  0.00    +0.280 C 
ATOM     15  O   UNL     1      -1.273   2.709   8.181  0.00  0.00    -0.267 OA
ATOM     16  N   UNL     1      -0.338   4.286   9.436  0.00  0.00    -0.311 N 
ATOM     17  H   UNL     1       0.330   5.158   9.500  0.00  0.00    +0.149 HD
BRANCH  16  18
ATOM     18  C   UNL     1      -1.012   3.791  10.638  0.00  0.00    +0.086 C 
BRANCH  18  19
ATOM     19  C   UNL     1      -0.620   4.657  11.837  0.00  0.00    -0.060 C 
BRANCH  19  20
ATOM     20  N   UNL     1      -1.296   4.160  13.043  0.00  0.00    +0.381 N 
ATOM     21  C   UNL     1      -2.751   4.340  12.942  0.00  0.00    -0.096 C 
ATOM     22  H   UNL     1      -1.094   3.082  13.123  0.00  0.00    -0.082 HD
BRANCH  20  23
ATOM     23  C   UNL     1      -0.767   4.810  14.249  0.00  0.00    -0.069 C 
ATOM     24  C   UNL     1       0.730   4.518  14.371  0.00  0.00    -0.015 C 
ATOM     25  C   UNL     1       1.281   5.194  15.627  0.00  0.00    -0.002 C 
ATOM     26  C   UNL     1       0.554   4.652  16.859  0.00  0.00    -0.000 C 
ATOM     27  C   UNL     1      -0.943   4.945  16.738  0.00  0.00    -0.002 C 
ATOM     28  C   UNL     1      -1.494   4.268  15.481  0.00  0.00    -0.015 C 
ENDBRANCH  20  23
ENDBRANCH  19  20
ENDBRANCH  18  19
ENDBRANCH  16  18
ENDBRANCH   6  14
BRANCH  12  29
ATOM     29  C   UNL     1       1.150   3.592   0.010  0.00  0.00    +0.180 C 
BRANCH  29  30
ATOM     30  C   UNL     1       1.171   2.086   0.002  0.00  0.00    -0.008 A 
ATOM     31  C   UNL     1      -0.017   1.378   0.010  0.00  0.00    +0.007 A 
ATOM     32  C   UNL     1       0.002  -0.004   0.002  0.00  0.00    +0.000 A 
ATOM     33  C   UNL     1       1.208  -0.680  -0.013  0.00  0.00    +0.001 A 
ATOM     34  C   UNL     1       2.396   0.027  -0.021  0.00  0.00    +0.020 A 
ATOM     35  C   UNL     1       2.378   1.410  -0.013  0.00  0.00    +0.046 A 
ATOM     36 CL   UNL     1       3.870   2.298  -0.023  0.00  0.00    -0.083 Cl
ENDBRANCH  29  30
ENDBRANCH  12  29
TORSDOF 7
