REMARK  Name = ZINC48183823
REMARK  12 active torsions:
REMARK  status: ('A' for Active; 'I' for Inactive)
REMARK    1  A    between atoms: C_1  and  C_2
REMARK    2  A    between atoms: C_2  and  N_3
REMARK    3  A    between atoms: N_3  and  C_4
REMARK    4  A    between atoms: N_3  and  C_6
REMARK    5  A    between atoms: C_4  and  C_5
REMARK    6  A    between atoms: C_6  and  C_7
REMARK    7  A    between atoms: C_12  and  C_13
REMARK    8  A    between atoms: C_13  and  N_14
REMARK    9  A    between atoms: N_17  and  C_18
REMARK   10  A    between atoms: C_21  and  C_25
REMARK   11  A    between atoms: C_23  and  C_24
REMARK   12  A    between atoms: N_27  and  C_28
REMARK                            x       y       z     vdW  Elec       q    Type
REMARK                         _______ _______ _______ _____ _____    ______ ____
ROOT
ATOM      1  N   UNL     1      -0.452  -2.699  -4.809  0.00  0.00    -0.295 N 
ATOM      2  C   UNL     1       0.228  -2.388  -5.931  0.00  0.00    +0.304 C 
ATOM      3  O   UNL     1       0.282  -1.234  -6.308  0.00  0.00    -0.252 OA
ATOM      4  N   UNL     1       0.847  -3.357  -6.634  0.00  0.00    -0.269 N 
ATOM      5  H   UNL     1      -0.495  -3.620  -4.508  0.00  0.00    +0.151 HD
ATOM      6  H   UNL     1       0.748  -4.286  -6.371  0.00  0.00    +0.156 HD
ENDROOT
BRANCH   4   7
ATOM      7  C   UNL     1       1.629  -3.025  -7.739  0.00  0.00    +0.038 A 
ATOM      8  C   UNL     1       1.360  -1.862  -8.456  0.00  0.00    +0.024 A 
ATOM      9  C   UNL     1       2.130  -1.531  -9.547  0.00  0.00    +0.015 A 
ATOM     10  C   UNL     1       3.184  -2.364  -9.936  0.00  0.00    +0.037 A 
ATOM     11  C   UNL     1       3.451  -3.530  -9.214  0.00  0.00    +0.018 A 
ATOM     12  C   UNL     1       2.680  -3.853  -8.120  0.00  0.00    -0.028 A 
ATOM     13  C   UNL     1       2.971  -5.107  -7.337  0.00  0.00    +0.045 C 
BRANCH  10  14
ATOM     14  C   UNL     1       4.011  -2.012 -11.106  0.00  0.00    +0.244 C 
ATOM     15  O   UNL     1       4.928  -2.737 -11.443  0.00  0.00    -0.270 OA
ATOM     16  N   UNL     1       3.752  -0.887 -11.801  0.00  0.00    -0.314 N 
ATOM     17  C   UNL     1       4.573  -0.538 -12.963  0.00  0.00    +0.128 C 
ATOM     18  H   UNL     1       3.021  -0.309 -11.533  0.00  0.00    +0.149 HD
ENDBRANCH  10  14
ENDBRANCH   4   7
BRANCH   1  19
ATOM     19  C   UNL     1      -1.125  -1.646  -4.044  0.00  0.00    +0.141 C 
BRANCH  19  25
ATOM     20  C   UNL     1      -1.072  -2.558  -1.714  0.00  0.00    -0.059 A 
ATOM     21  C   UNL     1      -1.697  -3.109  -0.611  0.00  0.00    +0.002 A 
ATOM     22  C   UNL     1      -3.056  -3.362  -0.642  0.00  0.00    +0.000 A 
ATOM     23  C   UNL     1      -3.789  -3.062  -1.776  0.00  0.00    +0.000 A 
ATOM     24  C   UNL     1      -3.164  -2.510  -2.877  0.00  0.00    +0.005 A 
ATOM     25  C   UNL     1      -1.806  -2.253  -2.845  0.00  0.00    -0.029 A 
BRANCH  20  26
ATOM     26  C   UNL     1       0.410  -2.283  -1.680  0.00  0.00    -0.043 C 
BRANCH  26  27
ATOM     27  N   UNL     1       0.637  -0.859  -1.400  0.00  0.00    +0.382 N 
ATOM     28  H   UNL     1       0.139  -0.299  -2.076  0.00  0.00    -0.081 HD
BRANCH  27  30
ATOM     29  C   UNL     1       0.257   0.966   0.189  0.00  0.00    -0.017 C 
ATOM     30  C   UNL     1       0.152  -0.542  -0.050  0.00  0.00    -0.082 C 
ENDBRANCH  27  30
BRANCH  27  31
ATOM     31  C   UNL     1       2.074  -0.566  -1.485  0.00  0.00    -0.082 C 
ATOM     32  C   UNL     1       2.549  -0.760  -2.926  0.00  0.00    -0.017 C 
ENDBRANCH  27  31
ENDBRANCH  26  27
ENDBRANCH  20  26
ENDBRANCH  19  25
ENDBRANCH   1  19
TORSDOF 8
