REMARK  Name = ZINC20436586
REMARK  4 active torsions:
REMARK  status: ('A' for Active; 'I' for Inactive)
REMARK    1  A    between atoms: C_1  and  C_2
REMARK    2  A    between atoms: C_8  and  C_13
REMARK    3  A    between atoms: C_9  and  C_12
REMARK    4  A    between atoms: C_25  and  C_26
REMARK                            x       y       z     vdW  Elec       q    Type
REMARK                         _______ _______ _______ _____ _____    ______ ____
ROOT
ATOM      1  C   UNL     1       0.009  -2.870   3.644  0.00  0.00    +0.027 C 
ATOM      2  C   UNL     1      -0.887  -3.551   4.448  0.00  0.00    +0.084 A 
ATOM      3  C   UNL     1      -0.917  -3.362   5.924  0.00  0.00    +0.139 A 
ATOM      4  N   UNL     1      -0.642  -2.225   6.509  0.00  0.00    -0.383 N 
ATOM      5  N   UNL     1      -1.271  -4.530   6.629  0.00  0.00    -0.214 N 
ATOM      6  C   UNL     1      -2.022  -5.477   5.959  0.00  0.00    +0.199 A 
ATOM      7  N   UNL     1      -2.343  -5.481   4.695  0.00  0.00    -0.182 NA
ATOM      8  C   UNL     1      -1.872  -4.502   3.886  0.00  0.00    +0.283 A 
ATOM      9  O   UNL     1      -2.244  -4.409   2.728  0.00  0.00    -0.265 OA
ATOM     10  S   UNL     1      -2.412  -6.654   7.228  0.00  0.00    -0.031 S 
ATOM     11  C   UNL     1      -1.472  -5.911   8.553  0.00  0.00    +0.101 A 
ATOM     12  N   UNL     1      -0.935  -4.801   7.940  0.00  0.00    -0.283 N 
ATOM     13  C   UNL     1      -1.324  -6.335   9.842  0.00  0.00    +0.102 C 
ATOM     14  H   UNL     1      -0.404  -1.450   5.976  0.00  0.00    +0.157 HD
ATOM     15  H   UNL     1      -0.329  -4.217   8.422  0.00  0.00    +0.188 HD
ATOM     16  H   UNL     1      -0.677  -2.156   7.476  0.00  0.00    +0.157 HD
ENDROOT
BRANCH   1  24
ATOM     17  C   UNL     1      -0.117   1.562   0.045  0.00  0.00    +0.044 C 
ATOM     18  C   UNL     1      -0.086   0.056   0.029  0.00  0.00    -0.050 A 
ATOM     19  C   UNL     1      -0.083  -0.622  -1.181  0.00  0.00    +0.005 A 
ATOM     20  C   UNL     1      -0.054  -2.000  -1.214  0.00  0.00    +0.026 A 
ATOM     21  C   UNL     1      -0.028  -2.723  -0.026  0.00  0.00    +0.047 A 
ATOM     22  C   UNL     1      -0.031  -2.035   1.197  0.00  0.00    +0.007 A 
ATOM     23  C   UNL     1      -0.055  -0.643   1.217  0.00  0.00    +0.014 A 
ATOM     24  C   UNL     1       0.001  -3.074   2.245  0.00  0.00    +0.004 A 
ATOM     25  C   UNL     1       0.019  -4.287   1.583  0.00  0.00    +0.021 A 
ATOM     26  N   UNL     1       0.003  -4.075   0.253  0.00  0.00    -0.358 N 
ATOM     27  H   UNL     1       0.011  -4.776  -0.417  0.00  0.00    +0.166 HD
ATOM     28  C   UNL     1       0.054  -5.639   2.247  0.00  0.00    +0.064 C 
ENDBRANCH   1  24
BRANCH  13  29
ATOM     29  C   UNL     1      -0.532  -5.597  10.737  0.00  0.00    +0.242 C 
ATOM     30  O   UNL     1       0.103  -4.636  10.339  0.00  0.00    -0.271 OA
ATOM     31  N   UNL     1      -0.475  -5.952  12.036  0.00  0.00    -0.294 N 
ATOM     32  C   UNL     1       0.255  -5.130  13.014  0.00  0.00    +0.136 C 
ATOM     33  C   UNL     1      -0.669  -4.864  14.207  0.00  0.00    +0.179 C 
ATOM     34  O   UNL     1      -1.190  -6.106  14.685  0.00  0.00    -0.377 OA
ATOM     35  C   UNL     1      -1.998  -6.806  13.736  0.00  0.00    +0.179 C 
ATOM     36  C   UNL     1      -1.146  -7.169  12.519  0.00  0.00    +0.136 C 
ENDBRANCH  13  29
TORSDOF 2
