REMARK  Name = ZINC54945951
REMARK  11 active torsions:
REMARK  status: ('A' for Active; 'I' for Inactive)
REMARK    1  A    between atoms: C_1  and  C_2
REMARK    2  A    between atoms: C_5  and  C_30
REMARK    3  A    between atoms: N_8  and  C_10
REMARK    4  A    between atoms: C_10  and  C_11
REMARK    5  A    between atoms: C_10  and  C_12
REMARK    6  A    between atoms: C_10  and  C_13
REMARK    7  A    between atoms: C_13  and  N_14
REMARK    8  A    between atoms: C_15  and  C_17
REMARK    9  A    between atoms: N_19  and  C_20
REMARK   10  A    between atoms: C_25  and  C_26
REMARK   11  A    between atoms: C_26  and  C_27
REMARK                            x       y       z     vdW  Elec       q    Type
REMARK                         _______ _______ _______ _____ _____    ______ ____
ROOT
ATOM      1  N   UNL     1       3.481  -2.411   0.913  0.00  0.00    -0.309 N 
ATOM      2  C   UNL     1       4.772  -2.210   0.584  0.00  0.00    +0.299 C 
ATOM      3  O   UNL     1       5.538  -1.735   1.397  0.00  0.00    -0.265 OA
ATOM      4  H   UNL     1       2.868  -2.790   0.264  0.00  0.00    +0.149 HD
ENDROOT
BRANCH   2   5
ATOM      5  C   UNL     1       5.260  -2.571  -0.780  0.00  0.00    +0.303 C 
ATOM      6  O   UNL     1       4.494  -3.046  -1.593  0.00  0.00    -0.265 OA
ATOM      7  N   UNL     1       6.552  -2.370  -1.109  0.00  0.00    -0.277 N 
ATOM      8  H   UNL     1       7.146  -1.920  -0.489  0.00  0.00    +0.155 HD
BRANCH   7   9
ATOM      9  C   UNL     1       7.035  -2.811  -2.344  0.00  0.00    +0.037 A 
ATOM     10  C   UNL     1       6.405  -3.858  -3.005  0.00  0.00    +0.023 A 
ATOM     11  C   UNL     1       6.885  -4.290  -4.226  0.00  0.00    +0.002 A 
ATOM     12  C   UNL     1       7.991  -3.682  -4.790  0.00  0.00    +0.000 A 
ATOM     13  C   UNL     1       8.621  -2.640  -4.135  0.00  0.00    +0.006 A 
ATOM     14  C   UNL     1       8.142  -2.199  -2.917  0.00  0.00    -0.017 A 
BRANCH  14  15
ATOM     15  C   UNL     1       8.825  -1.058  -2.207  0.00  0.00    +0.132 C 
BRANCH  15  16
ATOM     16  C   UNL     1       9.820  -1.606  -1.217  0.00  0.00    +0.215 C 
ATOM     17  O   UNL     1       9.962  -2.805  -1.100  0.00  0.00    -0.276 OA
ATOM     18  N   UNL     1      10.554  -0.764  -0.462  0.00  0.00    -0.329 N 
ATOM     19  H   UNL     1      10.441   0.195  -0.556  0.00  0.00    +0.145 HD
ATOM     20  H   UNL     1      11.194  -1.117   0.175  0.00  0.00    +0.145 HD
ENDBRANCH  15  16
ENDBRANCH  14  15
ENDBRANCH   7   9
ENDBRANCH   2   5
BRANCH   1  21
ATOM     21  C   UNL     1       3.002  -2.056   2.251  0.00  0.00    +0.092 C 
BRANCH  21  22
ATOM     22  C   UNL     1       1.544  -2.494   2.404  0.00  0.00    -0.055 C 
ATOM     23  C   UNL     1       1.012  -2.030   3.762  0.00  0.00    -0.008 C 
ATOM     24  C   UNL     1       1.457  -4.019   2.316  0.00  0.00    -0.008 C 
BRANCH  22  30
ATOM     25  C   UNL     1      -0.023   1.722   0.469  0.00  0.00    +0.005 C 
ATOM     26  C   UNL     1      -0.028   0.200   0.315  0.00  0.00    -0.031 C 
ATOM     27  C   UNL     1      -1.471  -0.311   0.329  0.00  0.00    +0.003 C 
ATOM     28  C   UNL     1      -1.462  -1.841   0.254  0.00  0.00    -0.031 C 
ATOM     29  C   UNL     1      -0.638  -2.398   1.416  0.00  0.00    -0.075 C 
ATOM     30  N   UNL     1       0.738  -1.894   1.332  0.00  0.00    +0.384 N 
ATOM     31  C   UNL     1       0.744  -0.434   1.475  0.00  0.00    -0.075 C 
ATOM     32  C   UNL     1      -0.840  -2.283  -1.073  0.00  0.00    +0.005 C 
ATOM     33  H   UNL     1       1.132  -2.145   0.437  0.00  0.00    -0.081 HD
ENDBRANCH  22  30
ENDBRANCH  21  22
ENDBRANCH   1  21
TORSDOF 7
