REMARK  Name = ZINC63279883
REMARK  8 active torsions:
REMARK  status: ('A' for Active; 'I' for Inactive)
REMARK    1  A    between atoms: C_1  and  C_2
REMARK    2  A    between atoms: C_2  and  C_3
REMARK    3  A    between atoms: C_3  and  C_11
REMARK    4  A    between atoms: C_14  and  N_17
REMARK    5  A    between atoms: C_18  and  C_20
REMARK    6  A    between atoms: N_22  and  C_23
REMARK    7  A    between atoms: C_23  and  C_24
REMARK    8  A    between atoms: C_24  and  C_25
REMARK                            x       y       z     vdW  Elec       q    Type
REMARK                         _______ _______ _______ _____ _____    ______ ____
ROOT
ATOM      1  N   UNL     1       6.026   1.745  -0.930  0.00  0.00    -0.278 N 
ATOM      2  C   UNL     1       6.203   3.075  -0.801  0.00  0.00    +0.303 C 
ATOM      3  O   UNL     1       5.242   3.804  -0.672  0.00  0.00    -0.265 OA
ATOM      4  H   UNL     1       6.795   1.154  -0.959  0.00  0.00    +0.155 HD
ENDROOT
BRANCH   1   8
ATOM      5  C   UNL     1       2.180   0.172  -1.205  0.00  0.00    -0.032 A 
ATOM      6  C   UNL     1       3.178  -0.551  -0.577  0.00  0.00    +0.006 A 
ATOM      7  C   UNL     1       4.455  -0.033  -0.484  0.00  0.00    +0.023 A 
ATOM      8  C   UNL     1       4.736   1.217  -1.023  0.00  0.00    +0.034 A 
ATOM      9  C   UNL     1       3.731   1.940  -1.653  0.00  0.00    +0.023 A 
ATOM     10  C   UNL     1       2.458   1.414  -1.746  0.00  0.00    +0.006 A 
BRANCH   5  11
ATOM     11  C   UNL     1       0.788  -0.397  -1.304  0.00  0.00    +0.072 C 
ATOM     12  C   UNL     1       0.713  -1.710  -0.518  0.00  0.00    +0.030 C 
ATOM     13  C   UNL     1      -0.675  -2.325  -0.725  0.00  0.00    +0.097 C 
ATOM     14  C   UNL     1      -0.927  -2.489  -2.201  0.00  0.00    +0.219 C 
ATOM     15  O   UNL     1      -1.654  -3.381  -2.584  0.00  0.00    -0.275 OA
ATOM     16  N   UNL     1      -0.365  -1.667  -3.099  0.00  0.00    -0.256 N 
ATOM     17  C   UNL     1       0.456  -0.666  -2.748  0.00  0.00    +0.230 C 
ATOM     18  O   UNL     1       0.941   0.036  -3.610  0.00  0.00    -0.274 OA
ATOM     19  H   UNL     1      -0.559  -1.801  -4.040  0.00  0.00    +0.157 HD
BRANCH  11  21
ATOM     20  C   UNL     1       0.166   0.930   0.719  0.00  0.00    +0.005 C 
ATOM     21  C   UNL     1      -0.215   0.603  -0.726  0.00  0.00    +0.017 C 
ENDBRANCH  11  21
ENDBRANCH   5  11
ENDBRANCH   1   8
BRANCH   2  22
ATOM     22  C   UNL     1       7.581   3.650  -0.818  0.00  0.00    +0.299 C 
ATOM     23  O   UNL     1       8.542   2.920  -0.947  0.00  0.00    -0.265 OA
ATOM     24  N   UNL     1       7.757   4.980  -0.689  0.00  0.00    -0.307 N 
ATOM     25  H   UNL     1       6.989   5.563  -0.586  0.00  0.00    +0.149 HD
BRANCH  24  26
ATOM     26  C   UNL     1       9.109   5.545  -0.705  0.00  0.00    +0.109 C 
BRANCH  26  27
ATOM     27  C   UNL     1       9.029   7.064  -0.542  0.00  0.00    +0.052 C 
BRANCH  27  28
ATOM     28  C   UNL     1      10.420   7.645  -0.559  0.00  0.00    -0.040 C 
ATOM     29  C   UNL     1      11.073   8.161  -1.625  0.00  0.00    -0.001 A 
ATOM     30  C   UNL     1      10.699   8.328  -3.034  0.00  0.00    +0.010 A 
ATOM     31  C   UNL     1      11.586   8.892  -3.886  0.00  0.00    +0.001 A 
ATOM     32  C   UNL     1      12.850   9.318  -3.457  0.00  0.00    +0.002 A 
ATOM     33  C   UNL     1      13.266   9.197  -2.178  0.00  0.00    +0.026 A 
ATOM     34  C   UNL     1      12.414   8.619  -1.197  0.00  0.00    +0.043 A 
ATOM     35  N   UNL     1      12.583   8.396   0.083  0.00  0.00    -0.380 N 
ATOM     36  C   UNL     1      11.365   7.774   0.615  0.00  0.00    +0.144 C 
ATOM     37  H   UNL     1      13.379   8.609   0.595  0.00  0.00    +0.160 HD
ENDBRANCH  27  28
ENDBRANCH  26  27
ENDBRANCH  24  26
ENDBRANCH   2  22
TORSDOF 7
