REMARK  Name = ZINC39972393
REMARK  12 active torsions:
REMARK  status: ('A' for Active; 'I' for Inactive)
REMARK    1  A    between atoms: C_1  and  C_2
REMARK    2  A    between atoms: C_2  and  C_3
REMARK    3  A    between atoms: C_4  and  C_34
REMARK    4  A    between atoms: C_6  and  N_11
REMARK    5  A    between atoms: C_7  and  C_8
REMARK    6  A    between atoms: C_12  and  C_14
REMARK    7  A    between atoms: C_14  and  S_15
REMARK    8  A    between atoms: S_15  and  C_16
REMARK    9  A    between atoms: C_19  and  C_22
REMARK   10  A    between atoms: N_20  and  C_21
REMARK   11  A    between atoms: C_25  and  O_28
REMARK   12  A    between atoms: O_28  and  C_29
REMARK                            x       y       z     vdW  Elec       q    Type
REMARK                         _______ _______ _______ _____ _____    ______ ____
ROOT
ATOM      1  S   UNL     1       6.561  -2.878  -6.479  0.00  0.00    -0.077 S 
ENDROOT
BRANCH   1   2
ATOM      2  C   UNL     1       8.304  -3.132  -6.542  0.00  0.00    +0.192 A 
ATOM      3  N   UNL     1       9.158  -2.919  -5.567  0.00  0.00    -0.122 NA
ATOM      4  N   UNL     1      10.350  -3.207  -5.952  0.00  0.00    -0.128 NA
ATOM      5  C   UNL     1      10.329  -3.622  -7.198  0.00  0.00    +0.165 A 
ATOM      6  N   UNL     1       9.018  -3.591  -7.612  0.00  0.00    -0.305 N 
ATOM      7  C   UNL     1       8.496  -3.970  -8.928  0.00  0.00    +0.153 C 
BRANCH   5   8
ATOM      8  C   UNL     1      11.495  -4.046  -8.002  0.00  0.00    +0.019 A 
ATOM      9  C   UNL     1      11.405  -4.095  -9.394  0.00  0.00    +0.015 A 
ATOM     10  C   UNL     1      12.495  -4.490 -10.140  0.00  0.00    +0.046 A 
ATOM     11  C   UNL     1      13.681  -4.840  -9.509  0.00  0.00    +0.121 A 
ATOM     12  C   UNL     1      13.774  -4.793  -8.124  0.00  0.00    +0.046 A 
ATOM     13  C   UNL     1      12.691  -4.393  -7.371  0.00  0.00    +0.015 A 
BRANCH  11  14
ATOM     14  O   UNL     1      14.752  -5.231 -10.248  0.00  0.00    -0.489 OA
BRANCH  14  15
ATOM     15  C   UNL     1      14.613  -5.181 -11.669  0.00  0.00    +0.173 C 
ATOM     16  C   UNL     1      15.011  -3.784 -12.204  0.00  0.00    +0.044 C 
ATOM     17  C   UNL     1      15.388  -4.077 -13.678  0.00  0.00    +0.004 C 
ATOM     18  C   UNL     1      16.105  -5.441 -13.620  0.00  0.00    +0.004 C 
ATOM     19  C   UNL     1      15.612  -6.144 -12.343  0.00  0.00    +0.044 C 
ENDBRANCH  14  15
ENDBRANCH  11  14
ENDBRANCH   5   8
ENDBRANCH   1   2
BRANCH   1  20
ATOM     20  C   UNL     1       6.268  -2.266  -4.797  0.00  0.00    +0.173 C 
BRANCH  20  22
ATOM     21  N   UNL     1       4.340  -1.543  -3.426  0.00  0.00    -0.279 N 
ATOM     22  C   UNL     1       4.795  -2.006  -4.607  0.00  0.00    +0.228 C 
ATOM     23  O   UNL     1       4.021  -2.213  -5.517  0.00  0.00    -0.275 OA
ATOM     24  H   UNL     1       4.959  -1.377  -2.699  0.00  0.00    +0.155 HD
BRANCH  21  28
ATOM     25  C   UNL     1       0.909  -0.670  -2.206  0.00  0.00    -0.024 A 
ATOM     26  C   UNL     1       0.354  -1.000  -3.387  0.00  0.00    -0.008 A 
ATOM     27  S   UNL     1       1.748  -1.518  -4.364  0.00  0.00    -0.078 S 
ATOM     28  C   UNL     1       2.985  -1.303  -3.252  0.00  0.00    +0.084 A 
ATOM     29  C   UNL     1       2.343  -0.825  -2.119  0.00  0.00    +0.068 A 
ATOM     30  C   UNL     1      -1.098  -0.944  -3.786  0.00  0.00    +0.052 C 
BRANCH  29  31
ATOM     31  C   UNL     1       3.080  -0.498  -0.895  0.00  0.00    +0.244 C 
ATOM     32  O   UNL     1       3.259  -1.351  -0.046  0.00  0.00    -0.270 OA
ATOM     33  N   UNL     1       3.560   0.748  -0.709  0.00  0.00    -0.325 N 
ATOM     34  H   UNL     1       3.417   1.428  -1.386  0.00  0.00    +0.145 HD
ATOM     35  H   UNL     1       4.048   0.964   0.101  0.00  0.00    +0.145 HD
ENDBRANCH  29  31
BRANCH  25  37
ATOM     36  C   UNL     1      -0.018   1.358  -1.123  0.00  0.00    +0.009 C 
ATOM     37  C   UNL     1       0.086  -0.166  -1.048  0.00  0.00    +0.033 C 
ENDBRANCH  25  37
ENDBRANCH  21  28
ENDBRANCH  20  22
ENDBRANCH   1  20
TORSDOF 9
