REMARK  Name = ZINC06441883
REMARK  8 active torsions:
REMARK  status: ('A' for Active; 'I' for Inactive)
REMARK    1  A    between atoms: C_1  and  C_2
REMARK    2  A    between atoms: C_7  and  C_15
REMARK    3  A    between atoms: C_13  and  C_14
REMARK    4  A    between atoms: C_15  and  C_17
REMARK    5  A    between atoms: C_15  and  N_70
REMARK    6  A    between atoms: N_21  and  C_22
REMARK    7  A    between atoms: C_22  and  C_23
REMARK    8  A    between atoms: N_31  and  C_34
REMARK                            x       y       z     vdW  Elec       q    Type
REMARK                         _______ _______ _______ _____ _____    ______ ____
ROOT
ATOM      1  C   UNL     1       2.466   1.063  -0.016  0.00  0.00    +0.039 C 
ENDROOT
BRANCH   1   8
ATOM      2  C   UNL     1      -5.135   3.409   0.560  0.00  0.00    +0.044 C 
ATOM      3  C   UNL     1      -3.784   2.749   0.459  0.00  0.00    -0.046 A 
ATOM      4  C   UNL     1      -3.697   1.363   0.444  0.00  0.00    +0.004 A 
ATOM      5  C   UNL     1      -2.482   0.745   0.352  0.00  0.00    +0.010 A 
ATOM      6  C   UNL     1      -1.317   1.514   0.273  0.00  0.00    -0.001 A 
ATOM      7  C   UNL     1       0.001   0.883   0.173  0.00  0.00    +0.017 A 
ATOM      8  C   UNL     1       1.096   1.680   0.094  0.00  0.00    +0.011 A 
ATOM      9  C   UNL     1       0.956   3.084   0.113  0.00  0.00    +0.251 A 
ATOM     10  O   UNL     1       1.953   3.781   0.040  0.00  0.00    -0.268 OA
ATOM     11  N   UNL     1      -0.250   3.672   0.208  0.00  0.00    -0.322 N 
ATOM     12  H   UNL     1      -0.310   4.640   0.218  0.00  0.00    +0.169 HD
ATOM     13  C   UNL     1      -1.401   2.918   0.292  0.00  0.00    +0.052 A 
ATOM     14  C   UNL     1      -2.649   3.526   0.391  0.00  0.00    -0.024 A 
ATOM     15  C   UNL     1      -2.759   5.029   0.407  0.00  0.00    +0.046 C 
ENDBRANCH   1   8
BRANCH   1  21
ATOM     16  C   UNL     1       4.699   1.075   0.923  0.00  0.00    -0.058 C 
ATOM     17  C   UNL     1       5.586   1.722   1.989  0.00  0.00    +0.086 C 
ATOM     18  N   UNL     1       5.029   1.446   3.321  0.00  0.00    -0.333 N 
ATOM     19  C   UNL     1       3.663   1.975   3.437  0.00  0.00    +0.086 C 
ATOM     20  C   UNL     1       2.776   1.328   2.372  0.00  0.00    -0.058 C 
ATOM     21  N   UNL     1       3.334   1.632   1.037  0.00  0.00    +0.391 N 
ATOM     22  H   UNL     1       3.379   2.651   0.918  0.00  0.00    -0.080 HD
BRANCH  18  23
ATOM     23  C   UNL     1       5.854   1.961   4.325  0.00  0.00    +0.030 A 
ATOM     24  C   UNL     1       5.341   2.856   5.255  0.00  0.00    +0.026 A 
ATOM     25  C   UNL     1       6.156   3.360   6.250  0.00  0.00    +0.040 A 
ATOM     26  C   UNL     1       7.486   2.982   6.314  0.00  0.00    +0.124 A 
ATOM     27  C   UNL     1       8.002   2.095   5.384  0.00  0.00    +0.040 A 
ATOM     28  C   UNL     1       7.189   1.584   4.391  0.00  0.00    +0.026 A 
ATOM     29  F   UNL     1       8.283   3.480   7.285  0.00  0.00    -0.205 F 
ENDBRANCH  18  23
ENDBRANCH   1  21
BRANCH   1  30
ATOM     30  C   UNL     1       3.056   1.386  -1.364  0.00  0.00    +0.143 A 
ATOM     31  N   UNL     1       3.544   2.540  -1.749  0.00  0.00    -0.115 NA
ATOM     32  N   UNL     1       3.952   2.414  -2.965  0.00  0.00    -0.023 NA
ATOM     33  N   UNL     1       3.731   1.212  -3.368  0.00  0.00    -0.044 NA
ATOM     34  N   UNL     1       3.179   0.547  -2.409  0.00  0.00    -0.228 N 
BRANCH  34  35
ATOM     35  C   UNL     1       2.765  -0.858  -2.451  0.00  0.00    +0.178 C 
BRANCH  35  36
ATOM     36  C   UNL     1       1.318  -0.949  -2.939  0.00  0.00    +0.140 C 
ATOM     37  C   UNL     1       0.835  -2.414  -2.876  0.00  0.00    +0.035 C 
ATOM     38  C   UNL     1      -0.008  -2.538  -4.174  0.00  0.00    +0.031 C 
ATOM     39  C   UNL     1       0.782  -1.609  -5.129  0.00  0.00    +0.160 C 
ATOM     40  O   UNL     1       1.238  -0.524  -4.304  0.00  0.00    -0.375 OA
ENDBRANCH  35  36
ENDBRANCH  34  35
ENDBRANCH   1  30
TORSDOF 6
