REMARK  Name = ZINC20527569
REMARK  11 active torsions:
REMARK  status: ('A' for Active; 'I' for Inactive)
REMARK    1  A    between atoms: C_2  and  C_3
REMARK    2  A    between atoms: C_3  and  C_4
REMARK    3  A    between atoms: C_8  and  C_11
REMARK    4  A    between atoms: C_9  and  O_10
REMARK    5  A    between atoms: N_12  and  N_13
REMARK    6  A    between atoms: C_17  and  S_20
REMARK    7  A    between atoms: N_18  and  N_19
REMARK    8  A    between atoms: S_20  and  C_21
REMARK    9  A    between atoms: C_21  and  C_22
REMARK   10  A    between atoms: N_24  and  C_25
REMARK   11  A    between atoms: C_26  and  C_34
REMARK                            x       y       z     vdW  Elec       q    Type
REMARK                         _______ _______ _______ _____ _____    ______ ____
ROOT
ATOM      1  N   UNL     1      -3.757   5.851   0.067  0.00  0.00    -0.204 N 
ATOM      2  C   UNL     1      -3.772   7.239   0.074  0.00  0.00    +0.254 A 
ATOM      3  N   UNL     1      -2.720   8.021   0.075  0.00  0.00    -0.109 NA
ATOM      4  N   UNL     1      -3.167   9.348   0.081  0.00  0.00    -0.119 NA
ATOM      5  C   UNL     1      -4.479   9.334   0.092  0.00  0.00    +0.210 A 
ATOM      6  N   UNL     1      -4.886   8.030   0.089  0.00  0.00    -0.211 N 
ATOM      7  H   UNL     1      -4.703   5.291   0.073  0.00  0.00    +0.177 HD
ENDROOT
BRANCH   6   8
ATOM      8  N   UNL     1      -6.181   7.594   0.098  0.00  0.00    -0.294 N 
ATOM      9  H   UNL     1      -7.006   8.321   0.109  0.00  0.00    +0.163 HD
ATOM     10  H   UNL     1      -6.398   6.516   0.093  0.00  0.00    +0.163 HD
ENDBRANCH   6   8
BRANCH   1  12
ATOM     11  C   UNL     1      -2.522   3.865   0.045  0.00  0.00    +0.142 C 
ATOM     12  N   UNL     1      -2.536   5.164   0.052  0.00  0.00    -0.187 NA
BRANCH  11  17
ATOM     13  C   UNL     1       1.172   3.164   0.008  0.00  0.00    -0.002 A 
ATOM     14  C   UNL     1       1.178   1.781   0.000  0.00  0.00    +0.007 A 
ATOM     15  C   UNL     1      -0.013   1.076   0.008  0.00  0.00    +0.001 A 
ATOM     16  C   UNL     1      -1.218   1.746   0.017  0.00  0.00    +0.013 A 
ATOM     17  C   UNL     1      -1.238   3.143   0.029  0.00  0.00    +0.036 A 
ATOM     18  C   UNL     1      -0.029   3.853   0.022  0.00  0.00    +0.129 A 
BRANCH  18  19
ATOM     19  O   UNL     1      -0.036   5.211   0.029  0.00  0.00    -0.506 OA
ATOM     20  H   UNL     1      -0.992   5.756   0.041  0.00  0.00    +0.292 HD
ENDBRANCH  18  19
BRANCH  13  21
ATOM     21  C   UNL     1       2.474   3.922   0.000  0.00  0.00    +0.065 C 
BRANCH  21  23
ATOM     22  C   UNL     1       4.030   3.921   1.881  0.00  0.00    +0.004 C 
ATOM     23  C   UNL     1       2.859   4.274   1.414  0.00  0.00    -0.030 C 
ENDBRANCH  21  23
ENDBRANCH  13  21
ENDBRANCH  11  17
ENDBRANCH   1  12
BRANCH   5  24
ATOM     24  S   UNL     1      -5.530  10.748   0.110  0.00  0.00    -0.075 S 
BRANCH  24  25
ATOM     25  C   UNL     1      -4.379  12.150   0.108  0.00  0.00    +0.173 C 
BRANCH  25  26
ATOM     26  C   UNL     1      -5.159  13.440   0.122  0.00  0.00    +0.228 C 
ATOM     27  O   UNL     1      -6.371  13.415   0.134  0.00  0.00    -0.275 OA
ATOM     28  N   UNL     1      -4.508  14.620   0.123  0.00  0.00    -0.278 N 
ATOM     29  H   UNL     1      -3.409  14.643   0.113  0.00  0.00    +0.155 HD
BRANCH  28  30
ATOM     30  C   UNL     1      -5.226  15.808   0.137  0.00  0.00    +0.090 A 
ATOM     31  C   UNL     1      -4.742  17.108   0.145  0.00  0.00    +0.084 A 
ATOM     32  C   UNL     1      -5.714  18.187   0.155  0.00  0.00    -0.018 A 
ATOM     33  C   UNL     1      -7.008  17.796   0.166  0.00  0.00    -0.004 A 
ATOM     34  S   UNL     1      -6.945  16.027   0.154  0.00  0.00    -0.077 S 
ATOM     35  C   UNL     1      -8.217  18.678   0.183  0.00  0.00    +0.043 C 
ATOM     36  C   UNL     1      -7.775  20.098   0.566  0.00  0.00    +0.005 C 
ATOM     37  C   UNL     1      -6.557  20.480  -0.280  0.00  0.00    +0.005 C 
ATOM     38  C   UNL     1      -5.341  19.664   0.160  0.00  0.00    +0.037 C 
BRANCH  31  39
ATOM     39  C   UNL     1      -3.335  17.375   0.141  0.00  0.00    +0.102 C 
ATOM     40  N   UNL     1      -2.219  17.588   0.137  0.00  0.00    -0.191 NA
ENDBRANCH  31  39
ENDBRANCH  28  30
ENDBRANCH  25  26
ENDBRANCH  24  25
ENDBRANCH   5  24
TORSDOF 11
