REMARK  Name = ZINC04850459
REMARK  3 active torsions:
REMARK  status: ('A' for Active; 'I' for Inactive)
REMARK    1  A    between atoms: C_3  and  C_6
REMARK    2  A    between atoms: N_14  and  S_18
REMARK    3  A    between atoms: S_18  and  C_21
REMARK                            x       y       z     vdW  Elec       q    Type
REMARK                         _______ _______ _______ _____ _____    ______ ____
ROOT
ATOM      1  C   UNL     1      -4.170   3.332  -3.930  0.00  0.00    +0.253 C 
ATOM      2  O   UNL     1      -4.245   4.534  -4.101  0.00  0.00    -0.269 OA
ATOM      3  N   UNL     1      -3.243   2.826  -3.092  0.00  0.00    -0.297 N 
ATOM      4  C   UNL     1      -2.388   3.718  -2.296  0.00  0.00    +0.112 C 
ATOM      5  C   UNL     1      -2.502   3.323  -0.821  0.00  0.00    +0.072 C 
ATOM      6  C   UNL     1      -2.182   1.835  -0.668  0.00  0.00    +0.145 C 
ATOM      7  C   UNL     1      -3.176   1.000  -1.475  0.00  0.00    +0.072 C 
ATOM      8  C   UNL     1      -3.068   1.374  -2.957  0.00  0.00    +0.112 C 
ATOM      9  N   UNL     1      -0.815   1.573  -1.143  0.00  0.00    -0.143 NA
ATOM     10  C   UNL     1      -0.067   1.058   0.026  0.00  0.00    +0.140 C 
ATOM     11  C   UNL     1      -0.903   1.571   1.226  0.00  0.00    +0.179 C 
ATOM     12  O   UNL     1      -2.259   1.467   0.718  0.00  0.00    -0.356 OA
ENDROOT
BRANCH   1  15
ATOM     13  C   UNL     1      -6.865   1.698  -5.993  0.00  0.00    +0.008 A 
ATOM     14  C   UNL     1      -6.166   2.746  -5.449  0.00  0.00    +0.021 A 
ATOM     15  C   UNL     1      -5.088   2.432  -4.635  0.00  0.00    +0.074 A 
ATOM     16  S   UNL     1      -5.116   0.649  -4.663  0.00  0.00    -0.092 S 
ATOM     17  C   UNL     1      -6.482   0.426  -5.706  0.00  0.00    +0.046 A 
ENDBRANCH   1  15
BRANCH   9  18
ATOM     18  S   UNL     1      -0.231   1.805  -2.675  0.00  0.00    +0.070 S 
ATOM     19  O   UNL     1       0.425   0.601  -3.047  0.00  0.00    -0.152 OA
ATOM     20  O   UNL     1      -1.296   2.359  -3.436  0.00  0.00    -0.152 OA
BRANCH  18  21
ATOM     21  C   UNL     1       1.015   3.047  -2.575  0.00  0.00    +0.143 A 
ATOM     22  C   UNL     1       2.356   2.902  -2.447  0.00  0.00    +0.036 A 
ATOM     23  C   UNL     1       3.150   4.032  -2.392  0.00  0.00    +0.010 A 
ATOM     24  C   UNL     1       2.563   5.252  -2.456  0.00  0.00    +0.047 A 
ATOM     25  S   UNL     1       0.837   4.823  -2.607  0.00  0.00    -0.077 S 
ENDBRANCH  18  21
ENDBRANCH   9  18
TORSDOF 3
