REMARK  Name = ZINC43263834
REMARK  7 active torsions:
REMARK  status: ('A' for Active; 'I' for Inactive)
REMARK    1  A    between atoms: C_1  and  C_2
REMARK    2  A    between atoms: C_2  and  C_22
REMARK    3  A    between atoms: C_8  and  O_11
REMARK    4  A    between atoms: O_11  and  C_12
REMARK    5  A    between atoms: C_12  and  C_14
REMARK    6  A    between atoms: C_12  and  C_16
REMARK    7  A    between atoms: C_14  and  N_15
REMARK                            x       y       z     vdW  Elec       q    Type
REMARK                         _______ _______ _______ _____ _____    ______ ____
ROOT
ATOM      1  O   UNL     1       3.016  -0.742   2.983  0.00  0.00    -0.482 OA
ENDROOT
BRANCH   1   9
ATOM      2  C   UNL     1      -0.053   1.677   0.170  0.00  0.00    +0.056 C 
ATOM      3  C   UNL     1       0.025   0.156   0.023  0.00  0.00    +0.109 C 
ATOM      4  C   UNL     1       0.894  -0.232  -1.197  0.00  0.00    +0.086 C 
ATOM      5  C   UNL     1       2.261  -0.409  -0.565  0.00  0.00    +0.002 A 
ATOM      6  C   UNL     1       3.528  -0.482  -1.105  0.00  0.00    +0.007 A 
ATOM      7  C   UNL     1       4.626  -0.642  -0.280  0.00  0.00    +0.004 A 
ATOM      8  C   UNL     1       4.450  -0.726   1.089  0.00  0.00    +0.049 A 
ATOM      9  C   UNL     1       3.180  -0.656   1.635  0.00  0.00    +0.163 A 
ATOM     10  C   UNL     1       2.067  -0.499   0.806  0.00  0.00    +0.166 A 
ATOM     11  O   UNL     1       0.745  -0.425   1.123  0.00  0.00    -0.482 OA
ATOM     12  C   UNL     1      -1.375  -0.449  -0.090  0.00  0.00    +0.056 C 
ENDBRANCH   1   9
BRANCH   1  13
ATOM     13  C   UNL     1       4.187  -0.984   3.765  0.00  0.00    +0.193 C 
BRANCH  13  14
ATOM     14  C   UNL     1       4.036  -0.324   5.112  0.00  0.00    +0.029 A 
ATOM     15  C   UNL     1       4.960   0.350   5.840  0.00  0.00    +0.016 A 
ATOM     16  C   UNL     1       4.594   0.878   7.064  0.00  0.00    +0.023 A 
ATOM     17  C   UNL     1       3.321   0.706   7.500  0.00  0.00    +0.055 A 
ATOM     18  S   UNL     1       2.593  -0.219   6.157  0.00  0.00    -0.083 S 
ATOM     19 BR   UNL     1       2.522   1.299   9.108  0.00  0.00    -0.043 Br
ENDBRANCH  13  14
BRANCH  13  20
ATOM     20  C   UNL     1       4.372  -2.491   3.954  0.00  0.00    -0.036 C 
BRANCH  20  21
ATOM     21  N   UNL     1       4.637  -3.118   2.652  0.00  0.00    +0.381 N 
ATOM     22  H   UNL     1       3.859  -2.950   2.033  0.00  0.00    -0.090 HD
ATOM     23  H   UNL     1       5.476  -2.724   2.254  0.00  0.00    -0.090 HD
ATOM     24  H   UNL     1       4.759  -4.112   2.777  0.00  0.00    -0.090 HD
ENDBRANCH  20  21
ENDBRANCH  13  20
ENDBRANCH   1  13
TORSDOF 5
