REMARK  Name = ZINC39652766
REMARK  8 active torsions:
REMARK  status: ('A' for Active; 'I' for Inactive)
REMARK    1  A    between atoms: C_1  and  C_2
REMARK    2  A    between atoms: C_2  and  O_3
REMARK    3  A    between atoms: O_3  and  C_4
REMARK    4  A    between atoms: C_9  and  C_10
REMARK    5  A    between atoms: C_10  and  C_11
REMARK    6  A    between atoms: C_11  and  N_12
REMARK    7  A    between atoms: C_13  and  C_15
REMARK    8  A    between atoms: C_26  and  C_28
REMARK                            x       y       z     vdW  Elec       q    Type
REMARK                         _______ _______ _______ _____ _____    ______ ____
ROOT
ATOM      1  C   UNL     1       5.735   1.931  -5.005  0.00  0.00    +0.100 C 
ATOM      2  C   UNL     1       5.926   1.000  -6.223  0.00  0.00    +0.121 C 
ATOM      3  N   UNL     1       7.251   1.372  -6.773  0.00  0.00    -0.296 N 
ATOM      4  C   UNL     1       8.094   1.610  -5.577  0.00  0.00    +0.115 C 
ATOM      5  C   UNL     1       7.159   2.329  -4.583  0.00  0.00    -0.004 C 
ATOM      6  C   UNL     1       7.339   3.840  -4.689  0.00  0.00    -0.010 C 
ATOM      7  C   UNL     1       8.744   4.217  -4.211  0.00  0.00    -0.082 C 
ATOM      8  N   UNL     1       8.924   3.778  -2.821  0.00  0.00    +0.379 N 
ATOM      9  C   UNL     1       8.842   2.314  -2.744  0.00  0.00    -0.082 C 
ATOM     10  C   UNL     1       7.441   1.857  -3.160  0.00  0.00    -0.010 C 
ATOM     11  C   UNL     1       7.609   1.471  -8.069  0.00  0.00    +0.248 C 
ATOM     12  O   UNL     1       8.768   1.697  -8.364  0.00  0.00    -0.270 OA
ATOM     13  H   UNL     1       9.828   4.081  -2.489  0.00  0.00    -0.086 HD
ATOM     14  H   UNL     1       8.203   4.185  -2.245  0.00  0.00    -0.086 HD
ENDROOT
BRANCH  11  15
ATOM     15  C   UNL     1       6.602   1.305  -9.123  0.00  0.00    +0.052 A 
ATOM     16  C   UNL     1       5.567   0.437  -8.974  0.00  0.00    +0.059 A 
ATOM     17  S   UNL     1       4.674   0.561 -10.388  0.00  0.00    -0.096 S 
ATOM     18  C   UNL     1       5.627   1.776 -11.257  0.00  0.00    +0.020 A 
ATOM     19  C   UNL     1       6.677   2.075 -10.367  0.00  0.00    +0.001 A 
ATOM     20  C   UNL     1       7.620   3.034 -10.783  0.00  0.00    +0.010 A 
ATOM     21  C   UNL     1       7.499   3.643 -12.007  0.00  0.00    +0.001 A 
ATOM     22  C   UNL     1       6.452   3.334 -12.863  0.00  0.00    +0.001 A 
ATOM     23  C   UNL     1       5.517   2.389 -12.486  0.00  0.00    +0.015 A 
ENDBRANCH  11  15
BRANCH   1  25
ATOM     24  N   UNL     1       4.273   1.872  -3.010  0.00  0.00    -0.315 N 
ATOM     25  C   UNL     1       5.043   1.196  -3.886  0.00  0.00    +0.218 C 
ATOM     26  O   UNL     1       5.178  -0.004  -3.774  0.00  0.00    -0.275 OA
ATOM     27  H   UNL     1       4.165   2.831  -3.099  0.00  0.00    +0.149 HD
BRANCH  24  28
ATOM     28  C   UNL     1       3.601   1.157  -1.922  0.00  0.00    +0.109 C 
BRANCH  28  29
ATOM     29  C   UNL     1       2.798   2.149  -1.079  0.00  0.00    +0.057 C 
BRANCH  29  35
ATOM     30  C   UNL     1       2.781   1.158   1.224  0.00  0.00    +0.124 A 
ATOM     31  C   UNL     1       2.139   0.485   2.254  0.00  0.00    +0.046 A 
ATOM     32  C   UNL     1       0.832   0.068   2.096  0.00  0.00    +0.004 A 
ATOM     33  C   UNL     1       0.163   0.320   0.912  0.00  0.00    +0.000 A 
ATOM     34  C   UNL     1       0.801   0.989  -0.116  0.00  0.00    +0.007 A 
ATOM     35  C   UNL     1       2.106   1.414   0.040  0.00  0.00    -0.004 A 
BRANCH  30  36
ATOM     36  O   UNL     1       4.067   1.570   1.378  0.00  0.00    -0.492 OA
BRANCH  36  38
ATOM     37  C   UNL     1       6.132   1.810   2.610  0.00  0.00    +0.048 C 
ATOM     38  C   UNL     1       4.700   1.272   2.624  0.00  0.00    +0.225 C 
ENDBRANCH  36  38
ENDBRANCH  30  36
ENDBRANCH  29  35
ENDBRANCH  28  29
ENDBRANCH  24  28
ENDBRANCH   1  25
TORSDOF 7
