REMARK  Name = ZINC64604157
REMARK  9 active torsions:
REMARK  status: ('A' for Active; 'I' for Inactive)
REMARK    1  A    between atoms: C_1  and  C_2
REMARK    2  A    between atoms: C_7  and  S_12
REMARK    3  A    between atoms: S_12  and  C_13
REMARK    4  A    between atoms: C_13  and  C_14
REMARK    5  A    between atoms: C_16  and  C_19
REMARK    6  A    between atoms: C_19  and  C_20
REMARK    7  A    between atoms: C_20  and  C_21
REMARK    8  A    between atoms: N_23  and  C_24
REMARK    9  A    between atoms: C_29  and  C_30
REMARK                            x       y       z     vdW  Elec       q    Type
REMARK                         _______ _______ _______ _____ _____    ______ ____
ROOT
ATOM      1  C   UNL     1      -4.110  -4.904   1.885  0.00  0.00    +0.182 A 
ATOM      2  N   UNL     1      -4.769  -5.770   1.107  0.00  0.00    -0.195 NA
ATOM      3  C   UNL     1      -5.859  -6.168   1.702  0.00  0.00    +0.228 A 
ATOM      4  O   UNL     1      -5.930  -5.561   2.894  0.00  0.00    -0.338 OA
ATOM      5  N   UNL     1      -4.773  -4.744   2.993  0.00  0.00    -0.060 NA
ENDROOT
BRANCH   1   6
ATOM      6  C   UNL     1      -2.808  -4.230   1.537  0.00  0.00    +0.152 C 
BRANCH   6   7
ATOM      7  S   UNL     1      -1.424  -5.258   2.102  0.00  0.00    -0.107 S 
BRANCH   7  14
ATOM      8  C   UNL     1      -0.040   1.524   0.098  0.00  0.00    +0.044 C 
ATOM      9  C   UNL     1      -0.016   0.017   0.086  0.00  0.00    -0.048 A 
ATOM     10  C   UNL     1      -0.002  -0.647  -1.153  0.00  0.00    +0.005 A 
ATOM     11  C   UNL     1       0.019  -1.991  -1.257  0.00  0.00    +0.028 A 
ATOM     12  C   UNL     1       0.029  -2.812  -0.038  0.00  0.00    +0.061 A 
ATOM     13  N   UNL     1       0.049  -4.098   0.162  0.00  0.00    -0.355 N 
ATOM     14  C   UNL     1       0.049  -4.318   1.614  0.00  0.00    +0.236 C 
ATOM     15  N   UNL     1       0.027  -2.987   2.234  0.00  0.00    -0.355 N 
ATOM     16  C   UNL     1       0.015  -2.109   1.273  0.00  0.00    +0.061 A 
ATOM     17  C   UNL     1      -0.003  -0.639   1.263  0.00  0.00    +0.030 A 
ATOM     18  H   UNL     1       0.061  -4.786  -0.522  0.00  0.00    +0.162 HD
ATOM     19  H   UNL     1       0.022  -2.797   3.185  0.00  0.00    +0.162 HD
ENDBRANCH   7  14
ENDBRANCH   6   7
ENDBRANCH   1   6
BRANCH   3  20
ATOM     20  C   UNL     1      -6.864  -7.142   1.146  0.00  0.00    +0.108 C 
BRANCH  20  21
ATOM     21  C   UNL     1      -6.479  -8.564   1.558  0.00  0.00    +0.105 C 
BRANCH  21  22
ATOM     22  C   UNL     1      -7.484  -9.539   1.001  0.00  0.00    +0.218 C 
ATOM     23  O   UNL     1      -8.418  -9.136   0.340  0.00  0.00    -0.275 OA
ATOM     24  N   UNL     1      -7.346 -10.858   1.238  0.00  0.00    -0.285 N 
ATOM     25  H   UNL     1      -6.559 -11.189   1.697  0.00  0.00    +0.155 HD
BRANCH  24  26
ATOM     26  C   UNL     1      -8.339 -11.752   0.821  0.00  0.00    +0.038 A 
ATOM     27  C   UNL     1      -9.645 -11.309   0.648  0.00  0.00    +0.023 A 
ATOM     28  C   UNL     1     -10.623 -12.193   0.236  0.00  0.00    +0.003 A 
ATOM     29  C   UNL     1     -10.305 -13.517  -0.004  0.00  0.00    +0.020 A 
ATOM     30  C   UNL     1      -9.006 -13.961   0.167  0.00  0.00    +0.046 A 
ATOM     31  C   UNL     1      -8.021 -13.080   0.574  0.00  0.00    -0.011 A 
ATOM     32  C   UNL     1      -6.605 -13.562   0.754  0.00  0.00    +0.047 C 
ATOM     33 CL   UNL     1      -8.611 -15.624  -0.135  0.00  0.00    -0.083 Cl
ENDBRANCH  24  26
ENDBRANCH  21  22
ENDBRANCH  20  21
ENDBRANCH   3  20
TORSDOF 7
