REMARK  Name = ZINC37867292
REMARK  12 active torsions:
REMARK  status: ('A' for Active; 'I' for Inactive)
REMARK    1  A    between atoms: C_1  and  C_2
REMARK    2  A    between atoms: C_2  and  C_3
REMARK    3  A    between atoms: C_3  and  C_5
REMARK    4  A    between atoms: C_3  and  N_6
REMARK    5  A    between atoms: C_7  and  C_9
REMARK    6  A    between atoms: C_9  and  C_10
REMARK    7  A    between atoms: C_10  and  C_11
REMARK    8  A    between atoms: N_13  and  C_14
REMARK    9  A    between atoms: C_20  and  C_34
REMARK   10  A    between atoms: C_22  and  N_24
REMARK   11  A    between atoms: C_26  and  C_33
REMARK   12  A    between atoms: C_29  and  C_32
REMARK                            x       y       z     vdW  Elec       q    Type
REMARK                         _______ _______ _______ _____ _____    ______ ____
ROOT
ATOM      1  C   UNL     1      -0.192   1.306  -9.646  0.00  0.00    +0.034 A 
ATOM      2  C   UNL     1      -1.572   1.529  -9.591  0.00  0.00    +0.025 A 
ATOM      3  C   UNL     1      -2.283   1.800 -10.717  0.00  0.00    +0.028 A 
ATOM      4  C   UNL     1      -1.631   1.861 -11.962  0.00  0.00    +0.048 A 
ATOM      5  C   UNL     1      -0.234   1.637 -12.025  0.00  0.00    +0.003 A 
ATOM      6  C   UNL     1       0.479   1.363 -10.848  0.00  0.00    +0.033 A 
ATOM      7  C   UNL     1       0.415   1.698 -13.275  0.00  0.00    -0.038 A 
ATOM      8  C   UNL     1      -0.334   1.973 -14.379  0.00  0.00    +0.045 A 
ATOM      9  C   UNL     1      -1.714   2.185 -14.252  0.00  0.00    +0.099 A 
ATOM     10  N   UNL     1      -2.315   2.127 -13.081  0.00  0.00    -0.343 N 
ATOM     11  C   UNL     1       1.900   1.466 -13.386  0.00  0.00    +0.044 C 
ATOM     12  H   UNL     1      -3.271   2.279 -13.030  0.00  0.00    +0.167 HD
ENDROOT
BRANCH   9  13
ATOM     13  N   UNL     1      -2.464   2.465 -15.385  0.00  0.00    -0.316 N 
ATOM     14  C   UNL     1      -3.883   2.826 -15.273  0.00  0.00    +0.109 C 
ATOM     15  C   UNL     1      -4.701   1.897 -16.175  0.00  0.00    +0.004 C 
ATOM     16  C   UNL     1      -4.147   1.958 -17.601  0.00  0.00    +0.009 C 
ATOM     17  C   UNL     1      -2.694   1.480 -17.606  0.00  0.00    +0.004 C 
ATOM     18  C   UNL     1      -1.852   2.410 -16.720  0.00  0.00    +0.109 C 
ATOM     19  C   UNL     1      -2.151   1.511 -19.037  0.00  0.00    +0.009 C 
ATOM     20  C   UNL     1      -6.165   2.343 -16.176  0.00  0.00    +0.009 C 
ENDBRANCH   9  13
BRANCH   1  23
ATOM     21  C   UNL     1      -0.062   0.298  -7.494  0.00  0.00    +0.218 C 
ATOM     22  O   UNL     1      -1.218  -0.053  -7.602  0.00  0.00    -0.275 OA
ATOM     23  N   UNL     1       0.514   1.028  -8.470  0.00  0.00    -0.285 N 
ATOM     24  H   UNL     1       1.418   1.361  -8.357  0.00  0.00    +0.155 HD
BRANCH  21  25
ATOM     25  C   UNL     1       0.730  -0.082  -6.270  0.00  0.00    +0.105 C 
BRANCH  25  26
ATOM     26  C   UNL     1      -0.152  -0.903  -5.327  0.00  0.00    +0.105 C 
BRANCH  26  28
ATOM     27  N   UNL     1       0.064  -2.013  -3.127  0.00  0.00    -0.313 N 
ATOM     28  C   UNL     1       0.640  -1.283  -4.102  0.00  0.00    +0.214 C 
ATOM     29  O   UNL     1       1.796  -0.932  -3.995  0.00  0.00    -0.276 OA
ATOM     30  H   UNL     1      -0.860  -2.294  -3.213  0.00  0.00    +0.149 HD
BRANCH  27  31
ATOM     31  C   UNL     1       0.834  -2.383  -1.937  0.00  0.00    +0.070 C 
ATOM     32  C   UNL     1       1.629  -3.659  -2.220  0.00  0.00    +0.028 C 
BRANCH  31  34
ATOM     33  C   UNL     1      -0.826  -1.318  -0.403  0.00  0.00    +0.005 C 
ATOM     34  C   UNL     1      -0.121  -2.627  -0.767  0.00  0.00    +0.018 C 
ENDBRANCH  31  34
ENDBRANCH  27  31
ENDBRANCH  26  28
ENDBRANCH  25  26
ENDBRANCH  21  25
ENDBRANCH   1  23
TORSDOF 7
