REMARK  Name = ZINC03841837
REMARK  12 active torsions:
REMARK  status: ('A' for Active; 'I' for Inactive)
REMARK    1  A    between atoms: C_1  and  C_2
REMARK    2  A    between atoms: C_5  and  O_39
REMARK    3  A    between atoms: C_7  and  C_36
REMARK    4  A    between atoms: C_7  and  C_37
REMARK    5  A    between atoms: C_17  and  O_19
REMARK    6  A    between atoms: O_19  and  C_20
REMARK    7  A    between atoms: C_20  and  C_21
REMARK    8  A    between atoms: C_23  and  C_25
REMARK    9  A    between atoms: C_25  and  C_26
REMARK   10  A    between atoms: N_28  and  C_29
REMARK   11  A    between atoms: C_29  and  C_30
REMARK   12  A    between atoms: C_37  and  O_38
REMARK                            x       y       z     vdW  Elec       q    Type
REMARK                         _______ _______ _______ _____ _____    ______ ____
ROOT
ATOM      1  C   UNL     1       2.337   3.577   2.412  0.00  0.00    +0.012 C 
ATOM      2  C   UNL     1       3.208   3.223   1.205  0.00  0.00    -0.019 C 
ATOM      3  C   UNL     1       3.474   1.714   1.188  0.00  0.00    +0.010 C 
ATOM      4  C   UNL     1       2.164   0.945   1.028  0.00  0.00    +0.032 C 
ATOM      5  C   UNL     1       1.517   1.345  -0.301  0.00  0.00    +0.123 C 
ATOM      6  C   UNL     1       1.207   2.840  -0.266  0.00  0.00    +0.021 C 
ATOM      7  C   UNL     1       2.497   3.647  -0.082  0.00  0.00    +0.011 C 
ATOM      8  C   UNL     1       2.094   5.130   0.034  0.00  0.00    +0.049 C 
ATOM      9  C   UNL     1       3.252   5.907   0.554  0.00  0.00    +0.015 A 
ATOM     10  C   UNL     1       4.380   5.426   1.136  0.00  0.00    +0.058 A 
ATOM     11  N   UNL     1       5.272   6.336   1.520  0.00  0.00    -0.229 NA
ATOM     12  C   UNL     1       5.077   7.627   1.345  0.00  0.00    +0.167 A 
ATOM     13  S   UNL     1       3.518   7.659   0.578  0.00  0.00    -0.057 S 
ATOM     14  N   UNL     1       5.905   8.690   1.687  0.00  0.00    -0.230 N 
ATOM     15  C   UNL     1       5.522   9.955   1.422  0.00  0.00    +0.406 C 
ATOM     16  O   UNL     1       4.453  10.166   0.885  0.00  0.00    -0.226 OA
ATOM     17  C   UNL     1       4.566   3.927   1.316  0.00  0.00    +0.054 C 
ATOM     18  C   UNL     1       0.540   3.251  -1.580  0.00  0.00    +0.016 C 
ATOM     19  H   UNL     1       6.759   8.521   2.116  0.00  0.00    +0.160 HD
ENDROOT
BRANCH   5  20
ATOM     20  O   UNL     1       0.305   0.610  -0.485  0.00  0.00    -0.391 OA
ATOM     21  H   UNL     1       0.428  -0.349  -0.517  0.00  0.00    +0.210 HD
ENDBRANCH   5  20
BRANCH  15  22
ATOM     22  O   UNL     1       6.324  10.984   1.753  0.00  0.00    -0.446 OA
BRANCH  22  23
ATOM     23  C   UNL     1       5.848  12.319   1.438  0.00  0.00    +0.261 C 
BRANCH  23  24
ATOM     24  C   UNL     1       6.870  13.335   1.877  0.00  0.00    +0.006 C 
ATOM     25  C   UNL     1       7.196  14.323   1.082  0.00  0.00    +0.007 C 
ENDBRANCH  23  24
ENDBRANCH  22  23
ENDBRANCH  15  22
BRANCH  17  26
ATOM     26  C   UNL     1       5.172   3.651   2.694  0.00  0.00    +0.106 C 
BRANCH  26  27
ATOM     27  C   UNL     1       6.585   4.173   2.735  0.00  0.00    +0.214 C 
ATOM     28  O   UNL     1       7.061   4.713   1.759  0.00  0.00    -0.276 OA
ATOM     29  N   UNL     1       7.320   4.041   3.857  0.00  0.00    -0.311 N 
ATOM     30  H   UNL     1       6.939   3.609   4.638  0.00  0.00    +0.149 HD
BRANCH  29  31
ATOM     31  C   UNL     1       8.694   4.549   3.898  0.00  0.00    +0.141 C 
BRANCH  31  32
ATOM     32  C   UNL     1       9.290   4.277   5.255  0.00  0.00    -0.012 A 
ATOM     33  C   UNL     1       9.970   3.093   5.498  0.00  0.00    +0.008 A 
ATOM     34  C   UNL     1      10.502   2.886   6.762  0.00  0.00    +0.020 A 
ATOM     35  C   UNL     1      10.338   3.859   7.729  0.00  0.00    +0.111 A 
ATOM     36  N   UNL     1       9.685   4.973   7.462  0.00  0.00    -0.263 NA
ATOM     37  C   UNL     1       9.171   5.207   6.270  0.00  0.00    +0.115 A 
ENDBRANCH  31  32
ENDBRANCH  29  31
ENDBRANCH  26  27
ENDBRANCH  17  26
BRANCH   6  38
ATOM     38  C   UNL     1       0.258   3.133   0.898  0.00  0.00    +0.165 C 
BRANCH  38  39
ATOM     39  O   UNL     1      -1.011   2.528   0.640  0.00  0.00    -0.394 OA
ATOM     40  H   UNL     1      -1.665   2.673   1.338  0.00  0.00    +0.209 HD
ENDBRANCH  38  39
ENDBRANCH   6  38
TORSDOF 10
