REMARK  Name = ZINC40149550
REMARK  9 active torsions:
REMARK  status: ('A' for Active; 'I' for Inactive)
REMARK    1  A    between atoms: C_4  and  C_7
REMARK    2  A    between atoms: C_7  and  N_8
REMARK    3  A    between atoms: N_8  and  C_9
REMARK    4  A    between atoms: N_8  and  C_19
REMARK    5  A    between atoms: C_9  and  C_10
REMARK    6  A    between atoms: C_10  and  O_11
REMARK    7  A    between atoms: O_11  and  C_12
REMARK    8  A    between atoms: C_19  and  C_20
REMARK    9  A    between atoms: C_24  and  C_26
REMARK                            x       y       z     vdW  Elec       q    Type
REMARK                         _______ _______ _______ _____ _____    ______ ____
ROOT
ATOM      1  N   UNL     1       4.210  -0.829   1.341  0.00  0.00    +0.387 N 
ATOM      2  H   UNL     1       4.120   0.083   1.764  0.00  0.00    -0.081 HD
ENDROOT
BRANCH   1   3
ATOM      3  C   UNL     1       3.775  -0.763  -0.061  0.00  0.00    -0.042 C 
BRANCH   3   7
ATOM      4  C   UNL     1      -0.172   0.859  -0.254  0.00  0.00    +0.000 A 
ATOM      5  C   UNL     1       0.920   1.704  -0.191  0.00  0.00    +0.000 A 
ATOM      6  C   UNL     1       2.197   1.179  -0.128  0.00  0.00    +0.002 A 
ATOM      7  C   UNL     1       2.382  -0.191  -0.128  0.00  0.00    -0.064 A 
ATOM      8  C   UNL     1       1.290  -1.036  -0.190  0.00  0.00    +0.002 A 
ATOM      9  C   UNL     1       0.013  -0.511  -0.254  0.00  0.00    +0.000 A 
ENDBRANCH   3   7
ENDBRANCH   1   3
BRANCH   1  10
ATOM     10  C   UNL     1       5.614  -1.259   1.398  0.00  0.00    -0.036 C 
BRANCH  10  11
ATOM     11  C   UNL     1       6.500  -0.195   0.748  0.00  0.00    +0.211 C 
BRANCH  11  12
ATOM     12  O   UNL     1       6.442   1.008   1.517  0.00  0.00    -0.491 OA
BRANCH  12  13
ATOM     13  C   UNL     1       7.179   2.060   1.073  0.00  0.00    +0.155 A 
ATOM     14  C   UNL     1       7.938   1.940  -0.081  0.00  0.00    +0.048 A 
ATOM     15  C   UNL     1       8.686   3.011  -0.531  0.00  0.00    +0.004 A 
ATOM     16  C   UNL     1       8.680   4.203   0.169  0.00  0.00    +0.003 A 
ATOM     17  C   UNL     1       7.926   4.328   1.321  0.00  0.00    +0.042 A 
ATOM     18  C   UNL     1       7.170   3.261   1.772  0.00  0.00    +0.165 A 
ATOM     19  F   UNL     1       6.428   3.384   2.894  0.00  0.00    -0.202 F 
ENDBRANCH  12  13
ENDBRANCH  11  12
ENDBRANCH  10  11
ENDBRANCH   1  10
BRANCH   1  20
ATOM     20  C   UNL     1       3.373  -1.791   2.069  0.00  0.00    -0.042 C 
BRANCH  20  21
ATOM     21  C   UNL     1       3.725  -1.756   3.534  0.00  0.00    -0.063 A 
ATOM     22  C   UNL     1       4.628  -2.669   4.049  0.00  0.00    +0.002 A 
ATOM     23  C   UNL     1       4.957  -2.643   5.393  0.00  0.00    +0.001 A 
ATOM     24  C   UNL     1       4.385  -1.705   6.228  0.00  0.00    +0.013 A 
ATOM     25  C   UNL     1       3.474  -0.782   5.715  0.00  0.00    +0.037 A 
ATOM     26  C   UNL     1       3.150  -0.810   4.357  0.00  0.00    +0.014 A 
BRANCH  25  27
ATOM     27  C   UNL     1       2.857   0.225   6.604  0.00  0.00    +0.242 C 
ATOM     28  O   UNL     1       1.993   0.966   6.177  0.00  0.00    -0.270 OA
ATOM     29  N   UNL     1       3.251   0.322   7.889  0.00  0.00    -0.325 N 
ATOM     30  H   UNL     1       3.940  -0.270   8.231  0.00  0.00    +0.145 HD
ATOM     31  H   UNL     1       2.847   0.982   8.473  0.00  0.00    +0.145 HD
ENDBRANCH  25  27
ENDBRANCH  20  21
ENDBRANCH   1  20
TORSDOF 9
