REMARK  Name = ZINC40377070
REMARK  6 active torsions:
REMARK  status: ('A' for Active; 'I' for Inactive)
REMARK    1  A    between atoms: C_1  and  N_2
REMARK    2  A    between atoms: C_5  and  C_8
REMARK    3  A    between atoms: C_5  and  N_12
REMARK    4  A    between atoms: N_9  and  O_10
REMARK    5  A    between atoms: N_12  and  S_13
REMARK    6  A    between atoms: S_13  and  C_16
REMARK                            x       y       z     vdW  Elec       q    Type
REMARK                         _______ _______ _______ _____ _____    ______ ____
ROOT
ATOM      1  C   UNL     1       0.804   1.953   1.080  0.00  0.00    -0.096 C 
ATOM      2  N   UNL     1       0.606   0.512   0.874  0.00  0.00    +0.378 N 
ATOM      3  C   UNL     1       0.999   0.156  -0.494  0.00  0.00    -0.077 C 
ATOM      4  C   UNL     1       0.719  -1.328  -0.740  0.00  0.00    +0.013 C 
ATOM      5  C   UNL     1       1.523  -2.166   0.258  0.00  0.00    +0.095 C 
ATOM      6  C   UNL     1       1.160  -1.735   1.681  0.00  0.00    +0.013 C 
ATOM      7  C   UNL     1       1.424  -0.235   1.837  0.00  0.00    -0.077 C 
ATOM      8  H   UNL     1      -0.367   0.284   1.013  0.00  0.00    -0.082 HD
ENDROOT
BRANCH   5   9
ATOM      9  C   UNL     1       1.193  -3.624   0.073  0.00  0.00    +0.153 C 
ATOM     10  N   UNL     1       0.269  -3.977  -0.759  0.00  0.00    -0.075 NA
ATOM     11  N   UNL     1       1.875  -4.582   0.790  0.00  0.00    -0.342 N 
ATOM     12  H   UNL     1       2.517  -4.314   1.467  0.00  0.00    +0.144 HD
ATOM     13  H   UNL     1       1.715  -5.523   0.619  0.00  0.00    +0.144 HD
BRANCH  10  14
ATOM     14  O   UNL     1      -0.041  -5.348  -0.932  0.00  0.00    -0.408 OA
ATOM     15  H   UNL     1      -0.745  -5.513  -1.575  0.00  0.00    +0.328 HD
ENDBRANCH  10  14
ENDBRANCH   5   9
BRANCH   5  16
ATOM     16  N   UNL     1       2.955  -1.954   0.032  0.00  0.00    -0.176 NA
ATOM     17  H   UNL     1       3.489  -1.495   0.699  0.00  0.00    +0.149 HD
BRANCH  16  18
ATOM     18  S   UNL     1       3.664  -2.499  -1.362  0.00  0.00    +0.066 S 
ATOM     19  O   UNL     1       5.041  -2.160  -1.278  0.00  0.00    -0.153 OA
ATOM     20  O   UNL     1       3.219  -3.836  -1.548  0.00  0.00    -0.153 OA
BRANCH  18  21
ATOM     21  C   UNL     1       2.993  -1.556  -2.691  0.00  0.00    +0.144 A 
ATOM     22  C   UNL     1       3.354  -0.327  -3.132  0.00  0.00    +0.038 A 
ATOM     23  C   UNL     1       2.679   0.225  -4.205  0.00  0.00    +0.030 A 
ATOM     24  C   UNL     1       1.675  -0.480  -4.783  0.00  0.00    +0.080 A 
ATOM     25  S   UNL     1       1.666  -1.975  -3.808  0.00  0.00    -0.057 S 
ATOM     26 CL   UNL     1       0.665  -0.043  -6.126  0.00  0.00    -0.076 Cl
ENDBRANCH  18  21
ENDBRANCH  16  18
ENDBRANCH   5  16
TORSDOF 5
