REMARK  Name = ZINC14350767
REMARK  2 active torsions:
REMARK  status: ('A' for Active; 'I' for Inactive)
REMARK    1  A    between atoms: C_6  and  N_7
REMARK    2  A    between atoms: C_10  and  C_12
REMARK                            x       y       z     vdW  Elec       q    Type
REMARK                         _______ _______ _______ _____ _____    ______ ____
ROOT
ATOM      1  N   UNL     1       3.132   7.853  -4.001  0.00  0.00    -0.236 N 
ATOM      2  C   UNL     1       4.374   8.137  -4.465  0.00  0.00    +0.049 A 
ATOM      3  C   UNL     1       5.252   7.474  -3.680  0.00  0.00    +0.006 A 
ATOM      4  C   UNL     1       4.476   6.788  -2.724  0.00  0.00    +0.151 A 
ATOM      5  N   UNL     1       3.212   7.069  -2.984  0.00  0.00    -0.161 NA
ATOM      6  C   UNL     1       6.748   7.461  -3.836  0.00  0.00    +0.039 C 
ATOM      7  C   UNL     1       7.193   8.774  -4.489  0.00  0.00    +0.005 C 
ATOM      8  C   UNL     1       7.174   8.623  -6.008  0.00  0.00    +0.001 C 
ATOM      9  C   UNL     1       5.764   8.319  -6.505  0.00  0.00    +0.006 C 
ATOM     10  C   UNL     1       4.736   9.032  -5.621  0.00  0.00    +0.056 C 
ENDROOT
BRANCH   4  11
ATOM     11  C   UNL     1       4.980   5.925  -1.637  0.00  0.00    +0.267 C 
ATOM     12  O   UNL     1       6.165   5.659  -1.571  0.00  0.00    -0.268 OA
ATOM     13  N   UNL     1       4.127   5.432  -0.717  0.00  0.00    -0.293 N 
ATOM     14  C   UNL     1       2.719   5.856  -0.690  0.00  0.00    +0.127 C 
ATOM     15  C   UNL     1       2.370   6.297   0.735  0.00  0.00    +0.126 C 
ATOM     16  N   UNL     1       2.713   5.221   1.675  0.00  0.00    -0.307 N 
ATOM     17  C   UNL     1       4.157   4.952   1.673  0.00  0.00    +0.126 C 
ATOM     18  C   UNL     1       4.579   4.456   0.286  0.00  0.00    +0.127 C 
ATOM     19  C   UNL     1       2.265   5.517   2.953  0.00  0.00    +0.161 A 
ATOM     20  N   UNL     1       1.612   6.582   3.377  0.00  0.00    -0.233 NA
ATOM     21  C   UNL     1       1.255   6.705   4.642  0.00  0.00    +0.120 A 
ATOM     22  C   UNL     1       1.575   5.710   5.503  0.00  0.00    +0.068 A 
ATOM     23  S   UNL     1       2.417   4.579   4.407  0.00  0.00    -0.061 S 
ENDBRANCH   4  11
BRANCH   1  29
ATOM     24  C   UNL     1       1.889   9.626  -5.076  0.00  0.00    +0.030 A 
ATOM     25  C   UNL     1       0.713  10.104  -5.618  0.00  0.00    +0.040 A 
ATOM     26  C   UNL     1      -0.421   9.309  -5.627  0.00  0.00    +0.124 A 
ATOM     27  C   UNL     1      -0.376   8.030  -5.096  0.00  0.00    +0.040 A 
ATOM     28  C   UNL     1       0.800   7.546  -4.557  0.00  0.00    +0.030 A 
ATOM     29  C   UNL     1       1.938   8.342  -4.548  0.00  0.00    +0.066 A 
ATOM     30  F   UNL     1      -1.572   9.781  -6.153  0.00  0.00    -0.205 F 
ENDBRANCH   1  29
TORSDOF 2
