REMARK  Name = ZINC12383754
REMARK  9 active torsions:
REMARK  status: ('A' for Active; 'I' for Inactive)
REMARK    1  A    between atoms: C_1  and  C_2
REMARK    2  A    between atoms: C_2  and  C_4
REMARK    3  A    between atoms: C_2  and  O_36
REMARK    4  A    between atoms: C_8  and  N_10
REMARK    5  A    between atoms: C_11  and  C_13
REMARK    6  A    between atoms: C_17  and  C_28
REMARK    7  A    between atoms: C_20  and  C_24
REMARK    8  A    between atoms: C_31  and  O_34
REMARK    9  A    between atoms: O_34  and  C_35
REMARK                            x       y       z     vdW  Elec       q    Type
REMARK                         _______ _______ _______ _____ _____    ______ ____
ROOT
ATOM      1  C   UNL     1       4.050   8.184  -0.784  0.00  0.00    +0.110 C 
ATOM      2  C   UNL     1       3.146   7.399  -1.422  0.00  0.00    +0.072 C 
ATOM      3  C   UNL     1       3.057   6.145  -0.675  0.00  0.00    +0.114 C 
ATOM      4  N   UNL     1       2.345   5.080  -0.912  0.00  0.00    -0.365 N 
ATOM      5  C   UNL     1       2.478   3.921  -0.021  0.00  0.00    +0.113 C 
ATOM      6  C   UNL     1       2.794   4.375   1.405  0.00  0.00    +0.062 C 
ATOM      7  C   UNL     1       4.085   5.208   1.409  0.00  0.00    +0.201 C 
ATOM      8  N   UNL     1       3.923   6.264   0.405  0.00  0.00    -0.226 N 
ATOM      9  N   UNL     1       4.540   7.508   0.321  0.00  0.00    -0.258 N 
ATOM     10  H   UNL     1       5.287   7.803   1.073  0.00  0.00    +0.170 HD
ATOM     11  H   UNL     1       1.657   5.058  -1.770  0.00  0.00    +0.161 HD
ENDROOT
BRANCH   5  12
ATOM     12  C   UNL     1       1.186   3.145  -0.020  0.00  0.00    -0.025 A 
ATOM     13  C   UNL     1       1.212   1.762  -0.031  0.00  0.00    +0.009 A 
ATOM     14  C   UNL     1       0.030   1.048  -0.030  0.00  0.00    +0.046 A 
ATOM     15  C   UNL     1      -1.185   1.719  -0.024  0.00  0.00    +0.120 A 
ATOM     16  C   UNL     1      -1.208   3.106  -0.009  0.00  0.00    +0.046 A 
ATOM     17  C   UNL     1      -0.023   3.816  -0.009  0.00  0.00    +0.009 A 
BRANCH  15  18
ATOM     18  O   UNL     1      -2.349   1.018  -0.029  0.00  0.00    -0.495 OA
ATOM     19  C   UNL     1      -3.561   1.775  -0.022  0.00  0.00    +0.277 C 
ENDBRANCH  15  18
ENDBRANCH   5  12
BRANCH   1  21
ATOM     20  N   UNL     1       3.899  10.100  -2.301  0.00  0.00    -0.280 N 
ATOM     21  C   UNL     1       4.448   9.545  -1.202  0.00  0.00    +0.264 C 
ATOM     22  O   UNL     1       5.270  10.163  -0.555  0.00  0.00    -0.268 OA
ATOM     23  H   UNL     1       3.213   9.514  -2.929  0.00  0.00    +0.155 HD
BRANCH  20  28
ATOM     24  C   UNL     1       5.769  13.234  -2.740  0.00  0.00    -0.018 A 
ATOM     25  C   UNL     1       4.802  14.037  -3.317  0.00  0.00    +0.006 A 
ATOM     26  C   UNL     1       3.536  13.536  -3.556  0.00  0.00    +0.002 A 
ATOM     27  C   UNL     1       3.234  12.229  -3.225  0.00  0.00    +0.023 A 
ATOM     28  C   UNL     1       4.202  11.422  -2.641  0.00  0.00    +0.034 A 
ATOM     29  C   UNL     1       5.473  11.928  -2.402  0.00  0.00    +0.029 A 
BRANCH  24  31
ATOM     30  C   UNL     1       7.162  14.514  -1.137  0.00  0.00    +0.043 C 
ATOM     31  C   UNL     1       7.148  13.785  -2.481  0.00  0.00    +0.141 C 
BRANCH  31  32
ATOM     32  O   UNL     1       7.500  14.698  -3.523  0.00  0.00    -0.387 OA
ATOM     33  H   UNL     1       7.543  14.352  -4.566  0.00  0.00    +0.210 HD
ENDBRANCH  31  32
ENDBRANCH  24  31
ENDBRANCH  20  28
ENDBRANCH   1  21
BRANCH   7  34
ATOM     34  C   UNL     1       4.298   5.831   2.791  0.00  0.00    +0.410 C 
ATOM     35  F   UNL     1       4.401   4.817   3.749  0.00  0.00    -0.169 F 
ATOM     36  F   UNL     1       5.475   6.587   2.784  0.00  0.00    -0.169 F 
ATOM     37  F   UNL     1       3.214   6.659   3.101  0.00  0.00    -0.169 F 
ENDBRANCH   7  34
TORSDOF 7
