REMARK  Name = ZINC14746828
REMARK  11 active torsions:
REMARK  status: ('A' for Active; 'I' for Inactive)
REMARK    1  A    between atoms: C_1  and  C_2
REMARK    2  A    between atoms: C_2  and  C_3
REMARK    3  A    between atoms: C_2  and  N_4
REMARK    4  A    between atoms: N_4  and  S_5
REMARK    5  A    between atoms: S_5  and  C_8
REMARK    6  A    between atoms: C_10  and  C_21
REMARK    7  A    between atoms: C_12  and  N_14
REMARK    8  A    between atoms: N_14  and  C_15
REMARK    9  A    between atoms: C_15  and  C_16
REMARK   10  A    between atoms: N_23  and  C_24
REMARK   11  A    between atoms: C_24  and  C_25
REMARK                            x       y       z     vdW  Elec       q    Type
REMARK                         _______ _______ _______ _____ _____    ______ ____
ROOT
ATOM      1  C   UNL     1       3.911  10.429  -4.547  0.00  0.00    +0.108 A 
ATOM      2  C   UNL     1       3.801   9.968  -3.251  0.00  0.00    +0.041 A 
ATOM      3  C   UNL     1       3.160   8.755  -2.994  0.00  0.00    +0.040 A 
ATOM      4  C   UNL     1       2.638   8.010  -4.051  0.00  0.00    +0.036 A 
ATOM      5  C   UNL     1       2.749   8.485  -5.349  0.00  0.00    +0.030 A 
ATOM      6  C   UNL     1       3.389   9.694  -5.594  0.00  0.00    +0.051 A 
ENDROOT
BRANCH   3   7
ATOM      7  C   UNL     1       3.042   8.258  -1.607  0.00  0.00    +0.244 C 
ATOM      8  O   UNL     1       3.503   8.906  -0.687  0.00  0.00    -0.270 OA
ATOM      9  N   UNL     1       2.422   7.086  -1.361  0.00  0.00    -0.306 N 
ATOM     10  H   UNL     1       2.054   6.569  -2.095  0.00  0.00    +0.149 HD
BRANCH   9  11
ATOM     11  C   UNL     1       2.304   6.594   0.014  0.00  0.00    +0.161 C 
BRANCH  11  12
ATOM     12  C   UNL     1       1.576   5.274   0.014  0.00  0.00    +0.077 A 
ATOM     13  C   UNL     1       2.156   4.054   0.002  0.00  0.00    +0.117 A 
ATOM     14  N   UNL     1       1.148   3.128   0.007  0.00  0.00    -0.306 N 
ATOM     15  C   UNL     1       1.149   1.763   0.001  0.00  0.00    +0.092 A 
ATOM     16  C   UNL     1      -0.013   1.076   0.008  0.00  0.00    +0.018 A 
ATOM     17  C   UNL     1      -1.240   1.758   0.018  0.00  0.00    +0.005 A 
ATOM     18  C   UNL     1      -1.255   3.119   0.031  0.00  0.00    +0.047 A 
ATOM     19  C   UNL     1      -0.034   3.822   0.022  0.00  0.00    +0.138 A 
ATOM     20  N   UNL     1       0.250   5.117   0.026  0.00  0.00    -0.231 NA
ENDBRANCH  11  12
ENDBRANCH   9  11
ENDBRANCH   3   7
BRANCH   1  21
ATOM     21  S   UNL     1       4.721  11.961  -4.868  0.00  0.00    +0.059 S 
ATOM     22  O   UNL     1       4.213  12.438  -6.106  0.00  0.00    -0.153 OA
ATOM     23  O   UNL     1       4.643  12.721  -3.669  0.00  0.00    -0.153 OA
BRANCH  21  24
ATOM     24  N   UNL     1       6.324  11.626  -5.111  0.00  0.00    -0.187 NA
ATOM     25  H   UNL     1       6.990  11.959  -4.489  0.00  0.00    +0.148 HD
BRANCH  24  27
ATOM     26  C   UNL     1       8.086  11.332  -6.782  0.00  0.00    +0.025 C 
ATOM     27  C   UNL     1       6.738  10.825  -6.266  0.00  0.00    +0.070 C 
ATOM     28  C   UNL     1       6.870   9.359  -5.849  0.00  0.00    +0.025 C 
ENDBRANCH  24  27
ENDBRANCH  21  24
ENDBRANCH   1  21
BRANCH   5  29
ATOM     29  N   UNL     1       2.222   7.745  -6.411  0.00  0.00    -0.340 N 
ATOM     30  H   UNL     1       2.303   8.076  -7.319  0.00  0.00    +0.146 HD
BRANCH  29  31
ATOM     31  C   UNL     1       1.548   6.471  -6.153  0.00  0.00    +0.137 C 
BRANCH  31  32
ATOM     32  C   UNL     1       1.075   5.879  -7.456  0.00  0.00    -0.023 A 
ATOM     33  C   UNL     1      -0.184   6.172  -7.944  0.00  0.00    +0.013 A 
ATOM     34  C   UNL     1      -0.576   5.628  -9.122  0.00  0.00    +0.045 A 
ATOM     35  S   UNL     1       0.852   4.656  -9.572  0.00  0.00    -0.105 S 
ATOM     36  C   UNL     1       1.877   5.047  -8.164  0.00  0.00    +0.050 A 
ENDBRANCH  31  32
ENDBRANCH  29  31
ENDBRANCH   5  29
TORSDOF 9
