REMARK  Name = ZINC39701027
REMARK  9 active torsions:
REMARK  status: ('A' for Active; 'I' for Inactive)
REMARK    1  A    between atoms: C_1  and  C_2
REMARK    2  A    between atoms: C_4  and  C_12
REMARK    3  A    between atoms: C_5  and  C_11
REMARK    4  A    between atoms: CA_7  and  C_8
REMARK    5  A    between atoms: C_12  and  C_14
REMARK    6  A    between atoms: C_15  and  C_16
REMARK    7  A    between atoms: C_19  and  C_21
REMARK    8  A    between atoms: C_24  and  S_27
REMARK    9  A    between atoms: S_27  and  N_30
REMARK                            x       y       z     vdW  Elec       q    Type
REMARK                         _______ _______ _______ _____ _____    ______ ____
ROOT
ATOM      1  C   UNL     1      -2.135   1.373  -4.664  0.00  0.00    +0.129 A 
ATOM      2  C   UNL     1      -2.557   1.635  -5.959  0.00  0.00    +0.050 A 
ATOM      3  C   UNL     1      -3.711   2.411  -5.857  0.00  0.00    +0.050 A 
ATOM      4  C   UNL     1      -3.955   2.597  -4.513  0.00  0.00    +0.136 A 
ATOM      5  O   UNL     1      -3.000   1.961  -3.812  0.00  0.00    -0.455 OA
ENDROOT
BRANCH   4   6
ATOM      6  C   UNL     1      -5.080   3.361  -3.939  0.00  0.00    +0.017 A 
ATOM      7  C   UNL     1      -6.017   3.968  -4.779  0.00  0.00    +0.013 A 
ATOM      8  C   UNL     1      -7.065   4.681  -4.236  0.00  0.00    +0.029 A 
ATOM      9  C   UNL     1      -7.190   4.795  -2.862  0.00  0.00    +0.106 A 
ATOM     10  C   UNL     1      -6.266   4.196  -2.024  0.00  0.00    +0.029 A 
ATOM     11  C   UNL     1      -5.216   3.475  -2.553  0.00  0.00    +0.013 A 
BRANCH   9  12
ATOM     12  S   UNL     1      -8.533   5.708  -2.178  0.00  0.00    +0.061 S 
ATOM     13  O   UNL     1      -8.121   6.125  -0.883  0.00  0.00    -0.153 OA
ATOM     14  O   UNL     1      -8.950   6.628  -3.177  0.00  0.00    -0.153 OA
BRANCH  12  15
ATOM     15  N   UNL     1      -9.785   4.647  -1.958  0.00  0.00    -0.172 NA
ATOM     16  C   UNL     1     -10.774   4.412  -3.022  0.00  0.00    +0.137 C 
ATOM     17  C   UNL     1     -10.906   2.900  -3.233  0.00  0.00    +0.177 C 
ATOM     18  O   UNL     1     -11.164   2.270  -1.976  0.00  0.00    -0.377 OA
ATOM     19  C   UNL     1     -10.114   2.423  -1.018  0.00  0.00    +0.177 C 
ATOM     20  C   UNL     1      -9.938   3.907  -0.695  0.00  0.00    +0.137 C 
ENDBRANCH  12  15
ENDBRANCH   9  12
ENDBRANCH   4   6
BRANCH   1  22
ATOM     21  C   UNL     1      -0.699   0.432  -2.986  0.00  0.00    +0.055 C 
ATOM     22  C   UNL     1      -1.001   0.619  -4.302  0.00  0.00    +0.050 C 
BRANCH  21  23
ATOM     23  C   UNL     1       0.437  -0.324  -2.622  0.00  0.00    +0.184 C 
ATOM     24  O   UNL     1       1.148  -0.809  -3.486  0.00  0.00    -0.288 OA
BRANCH  23  27
ATOM     25  C   UNL     1      -0.019   1.526   0.010  0.00  0.00    +0.019 C 
ATOM     26  C   UNL     1       0.002  -0.004   0.002  0.00  0.00    +0.075 C 
ATOM     27  C   UNL     1       0.762  -0.525  -1.205  0.00  0.00    +0.027 C 
ATOM     28  C   UNL     1       1.806  -1.219  -0.686  0.00  0.00    +0.021 C 
ATOM     29  N   UNL     1       1.807  -1.205   0.645  0.00  0.00    -0.355 N 
ATOM     30  CA  UNL     1       0.812  -0.537   1.168  0.00  0.00    +0.113 C 
ATOM     31  C   UNL     1       2.844  -1.923  -1.521  0.00  0.00    +0.064 C 
ATOM     32  H   UNL     1       2.482  -1.652   1.179  0.00  0.00    +0.165 HD
BRANCH  30  33
ATOM     33  C   UNL     1       0.534  -0.338   2.600  0.00  0.00    +0.399 C 
ATOM     34  O   UNL     1       1.275  -0.827   3.441  0.00  0.00    -0.239 OA
ATOM     35  OXT UNL     1      -0.439   0.317   2.949  0.00  0.00    -0.239 OA
ENDBRANCH  30  33
ENDBRANCH  23  27
ENDBRANCH  21  23
ENDBRANCH   1  22
TORSDOF 7
