REMARK  Name = ZINC12489083
REMARK  15 active torsions:
REMARK  status: ('A' for Active; 'I' for Inactive)
REMARK    1  A    between atoms: C_1  and  C_2
REMARK    2  A    between atoms: C_2  and  C_3
REMARK    3  A    between atoms: C_3  and  C_4
REMARK    4  A    between atoms: C_3  and  C_5
REMARK    5  A    between atoms: C_3  and  N_6
REMARK    6  A    between atoms: C_7  and  C_9
REMARK    7  A    between atoms: C_9  and  C_11
REMARK    8  A    between atoms: C_9  and  N_18
REMARK    9  A    between atoms: C_14  and  C_17
REMARK   10  A    between atoms: N_18  and  C_19
REMARK   11  A    between atoms: C_23  and  C_26
REMARK   12  A    between atoms: C_24  and  C_25
REMARK   13  A    between atoms: C_27  and  C_29
REMARK   14  A    between atoms: C_29  and  N_30
REMARK   15  A    between atoms: C_31  and  C_33
REMARK                            x       y       z     vdW  Elec       q    Type
REMARK                         _______ _______ _______ _____ _____    ______ ____
ROOT
ATOM      1  N   UNL     1       3.505   0.821  -0.265  0.00  0.00    -0.254 N 
ATOM      2  C   UNL     1       2.753   0.811   0.854  0.00  0.00    +0.238 C 
ATOM      3  O   UNL     1       3.105   0.159   1.814  0.00  0.00    -0.274 OA
ENDROOT
BRANCH   1   4
ATOM      4  C   UNL     1       3.100   1.573  -1.373  0.00  0.00    +0.041 A 
ATOM      5  C   UNL     1       3.471   2.906  -1.483  0.00  0.00    +0.024 A 
ATOM      6  C   UNL     1       3.074   3.644  -2.581  0.00  0.00    +0.002 A 
ATOM      7  C   UNL     1       2.299   3.059  -3.565  0.00  0.00    +0.004 A 
ATOM      8  C   UNL     1       1.922   1.733  -3.456  0.00  0.00    -0.046 A 
ATOM      9  C   UNL     1       2.321   0.988  -2.363  0.00  0.00    -0.026 A 
ATOM     10  C   UNL     1       1.910  -0.457  -2.246  0.00  0.00    +0.046 C 
ATOM     11  C   UNL     1       1.077   1.100  -4.531  0.00  0.00    +0.044 C 
ENDBRANCH   1   4
BRANCH   1  12
ATOM     12  C   UNL     1       4.746   0.044  -0.321  0.00  0.00    +0.197 C 
BRANCH  12  13
ATOM     13  C   UNL     1       5.317   0.110  -1.714  0.00  0.00    -0.018 A 
ATOM     14  C   UNL     1       5.759   1.317  -2.223  0.00  0.00    +0.006 A 
ATOM     15  C   UNL     1       6.288   1.377  -3.498  0.00  0.00    +0.004 A 
ATOM     16  C   UNL     1       6.366   0.232  -4.269  0.00  0.00    -0.050 A 
ATOM     17  C   UNL     1       5.919  -0.974  -3.762  0.00  0.00    +0.004 A 
ATOM     18  C   UNL     1       5.395  -1.035  -2.484  0.00  0.00    +0.006 A 
ATOM     19  C   UNL     1       6.938   0.298  -5.662  0.00  0.00    +0.044 C 
ENDBRANCH  12  13
BRANCH  12  21
ATOM     20  N   UNL     1       6.960   0.056   0.780  0.00  0.00    -0.308 N 
ATOM     21  C   UNL     1       5.740   0.614   0.658  0.00  0.00    +0.239 C 
ATOM     22  O   UNL     1       5.441   1.574   1.335  0.00  0.00    -0.273 OA
ATOM     23  H   UNL     1       7.199  -0.712   0.238  0.00  0.00    +0.149 HD
BRANCH  20  24
ATOM     24  C   UNL     1       7.927   0.611   1.732  0.00  0.00    +0.029 C 
ATOM     25  C   UNL     1       8.220   2.068   1.370  0.00  0.00    +0.031 C 
ATOM     26  C   UNL     1       7.346   0.543   3.146  0.00  0.00    +0.031 C 
BRANCH  24  28
ATOM     27  C   UNL     1      10.232   0.378   2.667  0.00  0.00    +0.006 C 
ATOM     28  C   UNL     1       9.223  -0.201   1.673  0.00  0.00    +0.022 C 
ENDBRANCH  24  28
ENDBRANCH  20  24
ENDBRANCH  12  21
ENDBRANCH   1  12
BRANCH   2  29
ATOM     29  C   UNL     1       1.477   1.610   0.911  0.00  0.00    +0.201 C 
BRANCH  29  30
ATOM     30  N   UNL     1       0.850   1.434   2.224  0.00  0.00    -0.302 N 
ATOM     31  C   UNL     1      -0.314   2.055   2.503  0.00  0.00    +0.251 C 
ATOM     32  O   UNL     1      -0.841   2.765   1.667  0.00  0.00    -0.270 OA
ATOM     33  H   UNL     1       1.270   0.868   2.890  0.00  0.00    +0.150 HD
BRANCH  31  34
ATOM     34  C   UNL     1      -0.944   1.874   3.814  0.00  0.00    +0.074 A 
ATOM     35  C   UNL     1      -2.123   2.420   4.299  0.00  0.00    +0.021 A 
ATOM     36  C   UNL     1      -2.489   2.079   5.577  0.00  0.00    +0.008 A 
ATOM     37  C   UNL     1      -1.692   1.248   6.297  0.00  0.00    +0.046 A 
ATOM     38  S   UNL     1      -0.392   0.902   5.203  0.00  0.00    -0.092 S 
ENDBRANCH  31  34
ENDBRANCH  29  30
ENDBRANCH   2  29
TORSDOF 9
