REMARK  Name = ZINC05408234
REMARK  6 active torsions:
REMARK  status: ('A' for Active; 'I' for Inactive)
REMARK    1  A    between atoms: C_1  and  C_2
REMARK    2  A    between atoms: C_2  and  C_27
REMARK    3  A    between atoms: C_8  and  O_11
REMARK    4  A    between atoms: O_11  and  C_12
REMARK    5  A    between atoms: C_12  and  C_13
REMARK    6  A    between atoms: N_15  and  N_16
REMARK                            x       y       z     vdW  Elec       q    Type
REMARK                         _______ _______ _______ _____ _____    ______ ____
ROOT
ATOM      1  C   UNL     1       3.596  -3.392   4.291  0.00  0.00    +0.270 C 
ATOM      2  O   UNL     1       4.168  -2.373   3.967  0.00  0.00    -0.270 OA
ATOM      3  N   UNL     1       4.203  -4.274   5.110  0.00  0.00    -0.203 N 
ATOM      4  H   UNL     1       3.745  -5.089   5.369  0.00  0.00    +0.177 HD
ENDROOT
BRANCH   3   5
ATOM      5  N   UNL     1       5.494  -4.013   5.587  0.00  0.00    -0.174 NA
ATOM      6  C   UNL     1       6.084  -4.871   6.383  0.00  0.00    +0.152 C 
ATOM      7  C   UNL     1       7.433  -4.763   6.986  0.00  0.00    +0.028 A 
ATOM      8  C   UNL     1       8.434  -3.800   6.914  0.00  0.00    +0.012 A 
ATOM      9  C   UNL     1       9.614  -3.986   7.606  0.00  0.00    +0.001 A 
ATOM     10  C   UNL     1       9.799  -5.127   8.369  0.00  0.00    +0.002 A 
ATOM     11  C   UNL     1       8.811  -6.088   8.447  0.00  0.00    +0.024 A 
ATOM     12  C   UNL     1       7.616  -5.919   7.756  0.00  0.00    +0.043 A 
ATOM     13  N   UNL     1       6.481  -6.717   7.665  0.00  0.00    -0.280 N 
ATOM     14  C   UNL     1       5.546  -6.154   6.880  0.00  0.00    +0.269 C 
ATOM     15  O   UNL     1       4.452  -6.620   6.622  0.00  0.00    -0.268 OA
ATOM     16  H   UNL     1       6.375  -7.570   8.115  0.00  0.00    +0.155 HD
ENDBRANCH   3   5
BRANCH   1  17
ATOM     17  C   UNL     1       2.207  -3.671   3.778  0.00  0.00    +0.326 C 
BRANCH  17  18
ATOM     18  O   UNL     1       1.785  -2.597   2.936  0.00  0.00    -0.479 OA
BRANCH  18  26
ATOM     19  C   UNL     1      -0.019   1.526   0.010  0.00  0.00    +0.056 C 
ATOM     20  C   UNL     1       0.002  -0.004   0.002  0.00  0.00    +0.109 C 
ATOM     21  C   UNL     1      -1.430  -0.573   0.144  0.00  0.00    +0.086 C 
ATOM     22  C   UNL     1      -1.196  -1.802   1.000  0.00  0.00    +0.002 A 
ATOM     23  C   UNL     1      -1.981  -2.902   1.273  0.00  0.00    +0.007 A 
ATOM     24  C   UNL     1      -1.507  -3.904   2.101  0.00  0.00    +0.004 A 
ATOM     25  C   UNL     1      -0.244  -3.798   2.655  0.00  0.00    +0.049 A 
ATOM     26  C   UNL     1       0.545  -2.694   2.387  0.00  0.00    +0.163 A 
ATOM     27  C   UNL     1       0.070  -1.678   1.553  0.00  0.00    +0.166 A 
ATOM     28  O   UNL     1       0.663  -0.511   1.174  0.00  0.00    -0.482 OA
ATOM     29  C   UNL     1       0.674  -0.528  -1.269  0.00  0.00    +0.056 C 
ENDBRANCH  18  26
ENDBRANCH  17  18
ENDBRANCH   1  17
TORSDOF 4
