REMARK  Name = ZINC09042769
REMARK  8 active torsions:
REMARK  status: ('A' for Active; 'I' for Inactive)
REMARK    1  A    between atoms: C_1  and  C_2
REMARK    2  A    between atoms: C_2  and  C_3
REMARK    3  A    between atoms: C_3  and  C_5
REMARK    4  A    between atoms: C_3  and  N_6
REMARK    5  A    between atoms: C_18  and  C_26
REMARK    6  A    between atoms: C_27  and  C_29
REMARK    7  A    between atoms: C_29  and  C_31
REMARK    8  A    between atoms: C_29  and  O_32
REMARK                            x       y       z     vdW  Elec       q    Type
REMARK                         _______ _______ _______ _____ _____    ______ ____
ROOT
ATOM      1  N   UNL     1       3.505   2.576   2.771  0.00  0.00    -0.239 N 
ATOM      2  C   UNL     1       4.304   2.505   1.658  0.00  0.00    +0.224 C 
ATOM      3  O   UNL     1       5.506   2.356   1.620  0.00  0.00    -0.275 OA
ATOM      4  C   UNL     1       3.379   2.666   0.535  0.00  0.00    +0.075 C 
ATOM      5  C   UNL     1       2.145   1.861   1.112  0.00  0.00    +0.088 C 
ATOM      6  C   UNL     1       2.175   2.422   2.475  0.00  0.00    +0.225 C 
ATOM      7  O   UNL     1       1.228   2.689   3.182  0.00  0.00    -0.275 OA
ATOM      8  C   UNL     1       1.180   2.123   0.002  0.00  0.00    +0.050 C 
ATOM      9  C   UNL     1       0.609   3.513   0.010  0.00  0.00    -0.026 A 
ATOM     10  C   UNL     1       1.172   4.769   0.004  0.00  0.00    +0.008 A 
ATOM     11  C   UNL     1       0.363   5.892   0.014  0.00  0.00    -0.049 A 
ATOM     12  C   UNL     1      -1.012   5.748   0.030  0.00  0.00    +0.025 A 
ATOM     13  C   UNL     1      -1.582   4.491   0.035  0.00  0.00    +0.063 A 
ATOM     14  C   UNL     1      -0.774   3.356   0.024  0.00  0.00    +0.054 A 
ATOM     15  N   UNL     1      -1.106   1.998   0.017  0.00  0.00    -0.285 N 
ATOM     16  C   UNL     1      -0.014   1.209   0.009  0.00  0.00    +0.211 C 
ATOM     17  O   UNL     1       0.002  -0.004   0.002  0.00  0.00    -0.277 OA
ATOM     18 CL   UNL     1      -3.310   4.324   0.053  0.00  0.00    -0.082 Cl
ATOM     19  C   UNL     1       0.979   7.267   0.009  0.00  0.00    +0.044 C 
ATOM     20  C   UNL     1       3.432   2.132  -0.857  0.00  0.00    -0.028 C 
ATOM     21  H   UNL     1      -2.016   1.664   0.021  0.00  0.00    +0.155 HD
ATOM     22  N   UNL     1       2.001   1.907  -1.215  0.00  0.00    +0.396 N 
ATOM     23  H   UNL     1       1.718   2.569  -1.947  0.00  0.00    -0.083 HD
ATOM     24  H   UNL     1       1.875   0.946  -1.554  0.00  0.00    -0.083 HD
ENDROOT
BRANCH   1  25
ATOM     25  C   UNL     1       4.016   2.793   4.127  0.00  0.00    +0.081 C 
ATOM     26  C   UNL     1       4.758   4.130   4.184  0.00  0.00    +0.028 C 
BRANCH  25  28
ATOM     27  C   UNL     1       4.206   0.340   4.562  0.00  0.00    +0.006 C 
ATOM     28  C   UNL     1       4.976   1.661   4.497  0.00  0.00    +0.019 C 
ENDBRANCH  25  28
ENDBRANCH   1  25
BRANCH  20  29
ATOM     29  C   UNL     1       4.212   0.816  -0.894  0.00  0.00    +0.098 C 
ATOM     30  C   UNL     1       4.253   0.288  -2.330  0.00  0.00    +0.036 C 
BRANCH  29  31
ATOM     31  O   UNL     1       5.545   1.039  -0.430  0.00  0.00    -0.394 OA
ATOM     32  H   UNL     1       6.042   1.681  -0.956  0.00  0.00    +0.210 HD
ENDBRANCH  29  31
ENDBRANCH  20  29
TORSDOF 4
