REMARK  Name = ZINC59992823
REMARK  10 active torsions:
REMARK  status: ('A' for Active; 'I' for Inactive)
REMARK    1  A    between atoms: C_1  and  C_2
REMARK    2  A    between atoms: C_5  and  C_30
REMARK    3  A    between atoms: N_8  and  C_10
REMARK    4  A    between atoms: C_10  and  C_11
REMARK    5  A    between atoms: C_10  and  C_12
REMARK    6  A    between atoms: C_10  and  C_13
REMARK    7  A    between atoms: C_13  and  N_14
REMARK    8  A    between atoms: N_17  and  C_18
REMARK    9  A    between atoms: C_18  and  C_19
REMARK   10  A    between atoms: N_21  and  C_22
REMARK                            x       y       z     vdW  Elec       q    Type
REMARK                         _______ _______ _______ _____ _____    ______ ____
ROOT
ATOM      1  N   UNL     1       3.494  -2.444   0.931  0.00  0.00    -0.301 N 
ATOM      2  C   UNL     1       4.781  -2.225   0.594  0.00  0.00    +0.300 C 
ATOM      3  O   UNL     1       5.542  -1.722   1.397  0.00  0.00    -0.253 OA
ATOM      4  N   UNL     1       5.223  -2.563  -0.633  0.00  0.00    -0.291 N 
ATOM      5  H   UNL     1       2.887  -2.845   0.290  0.00  0.00    +0.150 HD
ATOM      6  H   UNL     1       4.615  -2.965  -1.274  0.00  0.00    +0.151 HD
ENDROOT
BRANCH   1   7
ATOM      7  C   UNL     1       3.014  -2.076   2.265  0.00  0.00    +0.093 C 
BRANCH   7   8
ATOM      8  C   UNL     1       1.560  -2.525   2.425  0.00  0.00    -0.055 C 
ATOM      9  C   UNL     1       1.032  -2.069   3.787  0.00  0.00    -0.008 C 
ATOM     10  C   UNL     1       1.483  -4.050   2.333  0.00  0.00    -0.008 C 
BRANCH   8  16
ATOM     11  C   UNL     1       0.152   1.684   0.356  0.00  0.00    +0.005 C 
ATOM     12  C   UNL     1       0.054   0.159   0.276  0.00  0.00    -0.031 C 
ATOM     13  C   UNL     1      -1.414  -0.265   0.373  0.00  0.00    +0.003 C 
ATOM     14  C   UNL     1      -1.495  -1.794   0.370  0.00  0.00    -0.031 C 
ATOM     15  C   UNL     1      -0.654  -2.346   1.523  0.00  0.00    -0.075 C 
ATOM     16  N   UNL     1       0.743  -1.928   1.359  0.00  0.00    +0.384 N 
ATOM     17  C   UNL     1       0.838  -0.466   1.432  0.00  0.00    -0.075 C 
ATOM     18  C   UNL     1      -2.951  -2.229   0.544  0.00  0.00    +0.005 C 
ATOM     19  H   UNL     1       1.083  -2.242   0.462  0.00  0.00    -0.081 HD
ENDBRANCH   8  16
ENDBRANCH   7   8
ENDBRANCH   1   7
BRANCH   4  20
ATOM     20  C   UNL     1       6.621  -2.325  -1.000  0.00  0.00    +0.202 C 
BRANCH  20  21
ATOM     21  C   UNL     1       6.856  -2.789  -2.414  0.00  0.00    +0.234 C 
ATOM     22  O   UNL     1       5.945  -3.271  -3.054  0.00  0.00    -0.274 OA
ATOM     23  N   UNL     1       8.079  -2.668  -2.969  0.00  0.00    -0.284 N 
ATOM     24  H   UNL     1       8.791  -2.225  -2.481  0.00  0.00    +0.155 HD
BRANCH  23  25
ATOM     25  C   UNL     1       8.321  -3.183  -4.248  0.00  0.00    +0.036 A 
ATOM     26  C   UNL     1       9.549  -3.757  -4.545  0.00  0.00    +0.026 A 
ATOM     27  C   UNL     1       9.787  -4.264  -5.808  0.00  0.00    +0.043 A 
ATOM     28  C   UNL     1       8.802  -4.200  -6.779  0.00  0.00    +0.159 A 
ATOM     29  C   UNL     1       7.574  -3.627  -6.485  0.00  0.00    +0.160 A 
ATOM     30  C   UNL     1       7.331  -3.123  -5.220  0.00  0.00    +0.064 A 
ATOM     31  F   UNL     1       6.614  -3.565  -7.433  0.00  0.00    -0.202 F 
ATOM     32  F   UNL     1       9.037  -4.696  -8.013  0.00  0.00    -0.202 F 
ENDBRANCH  23  25
ENDBRANCH  20  21
ENDBRANCH   4  20
TORSDOF 6
