REMARK  Name = ZINC61811966
REMARK  6 active torsions:
REMARK  status: ('A' for Active; 'I' for Inactive)
REMARK    1  A    between atoms: C_4  and  S_17
REMARK    2  A    between atoms: C_5  and  N_7
REMARK    3  A    between atoms: N_7  and  C_8
REMARK    4  A    between atoms: C_12  and  C_14
REMARK    5  A    between atoms: C_14  and  N_16
REMARK    6  A    between atoms: S_17  and  C_18
REMARK                            x       y       z     vdW  Elec       q    Type
REMARK                         _______ _______ _______ _____ _____    ______ ____
ROOT
ATOM      1  N   UNL     1       1.234  -2.081  -0.021  0.00  0.00    -0.314 N 
ATOM      2  H   UNL     1       2.074  -2.495   0.231  0.00  0.00    +0.152 HD
ENDROOT
BRANCH   1   3
ATOM      3  C   UNL     1       0.044  -2.796   0.092  0.00  0.00    +0.035 A 
ATOM      4  C   UNL     1      -0.928  -2.729  -0.906  0.00  0.00    +0.041 A 
ATOM      5  C   UNL     1      -2.096  -3.451  -0.761  0.00  0.00    +0.085 A 
ATOM      6  N   UNL     1      -2.304  -4.200   0.302  0.00  0.00    -0.359 N 
ATOM      7  C   UNL     1      -1.406  -4.295   1.278  0.00  0.00    +0.069 A 
ATOM      8  C   UNL     1      -0.202  -3.602   1.202  0.00  0.00    +0.051 A 
ATOM      9  H   UNL     1      -3.134  -4.696   0.376  0.00  0.00    +0.165 HD
BRANCH   7  10
ATOM     10  C   UNL     1      -1.688  -5.149   2.452  0.00  0.00    +0.093 C 
ATOM     11  S   UNL     1      -0.415  -6.005   3.213  0.00  0.00    -0.034 S 
BRANCH  10  12
ATOM     12  N   UNL     1      -2.946  -5.254   2.923  0.00  0.00    -0.351 N 
ATOM     13  H   UNL     1      -3.667  -4.769   2.492  0.00  0.00    +0.143 HD
ATOM     14  H   UNL     1      -3.131  -5.815   3.693  0.00  0.00    +0.143 HD
ENDBRANCH  10  12
ENDBRANCH   7  10
ENDBRANCH   1   3
BRANCH   1  19
ATOM     15  C   UNL     1      -0.006   1.182  -1.183  0.00  0.00    +0.002 A 
ATOM     16  C   UNL     1       1.181   1.840  -1.444  0.00  0.00    +0.001 A 
ATOM     17  C   UNL     1       2.390   1.203  -1.236  0.00  0.00    +0.017 A 
ATOM     18  C   UNL     1       2.415  -0.101  -0.763  0.00  0.00    +0.034 A 
ATOM     19  C   UNL     1       1.216  -0.765  -0.499  0.00  0.00    +0.045 A 
ATOM     20  C   UNL     1       0.009  -0.118  -0.711  0.00  0.00    +0.024 A 
BRANCH  18  21
ATOM     21  S   UNL     1       3.954  -0.916  -0.497  0.00  0.00    -0.054 S 
BRANCH  21  22
ATOM     22  C   UNL     1       5.193   0.322  -0.971  0.00  0.00    +0.404 C 
ATOM     23  F   UNL     1       5.009   0.676  -2.312  0.00  0.00    -0.197 F 
ATOM     24  F   UNL     1       5.051   1.456  -0.165  0.00  0.00    -0.197 F 
ENDBRANCH  21  22
ENDBRANCH  18  21
ENDBRANCH   1  19
TORSDOF 6
