REMARK  Name = ZINC39631509
REMARK  11 active torsions:
REMARK  status: ('A' for Active; 'I' for Inactive)
REMARK    1  A    between atoms: C_1  and  C_2
REMARK    2  A    between atoms: C_2  and  C_4
REMARK    3  A    between atoms: C_2  and  N_11
REMARK    4  A    between atoms: C_4  and  C_5
REMARK    5  A    between atoms: C_5  and  C_6
REMARK    6  A    between atoms: C_6  and  C_7
REMARK    7  A    between atoms: C_7  and  C_8
REMARK    8  A    between atoms: C_7  and  C_9
REMARK    9  A    between atoms: C_7  and  O_10
REMARK   10  A    between atoms: C_12  and  C_14
REMARK   11  A    between atoms: C_25  and  C_27
REMARK                            x       y       z     vdW  Elec       q    Type
REMARK                         _______ _______ _______ _____ _____    ______ ____
ROOT
ATOM      1  C   UNL     1      -4.050  -1.425  -0.874  0.00  0.00    +0.100 C 
ATOM      2  C   UNL     1      -4.680  -0.289  -0.037  0.00  0.00    +0.121 C 
ATOM      3  N   UNL     1      -5.234   0.651  -1.039  0.00  0.00    -0.296 N 
ATOM      4  C   UNL     1      -5.801  -0.224  -2.093  0.00  0.00    +0.115 C 
ATOM      5  C   UNL     1      -4.790  -1.381  -2.221  0.00  0.00    -0.004 C 
ATOM      6  C   UNL     1      -3.809  -1.099  -3.354  0.00  0.00    -0.010 C 
ATOM      7  C   UNL     1      -4.559  -1.117  -4.689  0.00  0.00    -0.082 C 
ATOM      8  N   UNL     1      -5.194  -2.427  -4.878  0.00  0.00    +0.379 N 
ATOM      9  C   UNL     1      -6.203  -2.650  -3.836  0.00  0.00    -0.082 C 
ATOM     10  C   UNL     1      -5.522  -2.697  -2.465  0.00  0.00    -0.010 C 
ATOM     11  C   UNL     1      -5.224   1.998  -1.002  0.00  0.00    +0.247 C 
ATOM     12  O   UNL     1      -4.608   2.578  -0.128  0.00  0.00    -0.270 OA
ATOM     13  H   UNL     1      -5.636  -2.457  -5.785  0.00  0.00    -0.086 HD
ATOM     14  H   UNL     1      -4.492  -3.150  -4.826  0.00  0.00    -0.086 HD
ENDROOT
BRANCH  11  15
ATOM     15  C   UNL     1      -5.961   2.772  -2.024  0.00  0.00    +0.038 A 
ATOM     16  C   UNL     1      -6.995   2.173  -2.745  0.00  0.00    +0.013 A 
ATOM     17  C   UNL     1      -7.680   2.900  -3.696  0.00  0.00    +0.002 A 
ATOM     18  C   UNL     1      -7.344   4.220  -3.938  0.00  0.00    +0.020 A 
ATOM     19  C   UNL     1      -6.319   4.821  -3.226  0.00  0.00    +0.042 A 
ATOM     20  C   UNL     1      -5.630   4.106  -2.267  0.00  0.00    +0.033 A 
ATOM     21 CL   UNL     1      -5.905   6.478  -3.536  0.00  0.00    -0.084 Cl
ENDBRANCH  11  15
BRANCH   1  23
ATOM     22  N   UNL     1      -1.743  -2.204  -1.311  0.00  0.00    -0.312 N 
ATOM     23  C   UNL     1      -2.578  -1.173  -1.076  0.00  0.00    +0.218 C 
ATOM     24  O   UNL     1      -2.144  -0.041  -1.026  0.00  0.00    -0.275 OA
ATOM     25  H   UNL     1      -2.090  -3.110  -1.350  0.00  0.00    +0.149 HD
BRANCH  22  27
ATOM     26  C   UNL     1       0.386  -1.896  -0.147  0.00  0.00    +0.028 C 
ATOM     27  C   UNL     1      -0.312  -1.959  -1.507  0.00  0.00    +0.070 C 
BRANCH  27  28
ATOM     28  C   UNL     1       0.291  -3.094  -2.337  0.00  0.00    +0.022 C 
BRANCH  28  29
ATOM     29  C   UNL     1      -0.319  -3.079  -3.741  0.00  0.00    +0.005 C 
BRANCH  29  30
ATOM     30  C   UNL     1       0.284  -4.214  -4.571  0.00  0.00    +0.034 C 
BRANCH  30  31
ATOM     31  C   UNL     1      -0.326  -4.199  -5.974  0.00  0.00    +0.061 C 
ATOM     32  C   UNL     1       0.183  -5.407  -6.764  0.00  0.00    +0.041 C 
ATOM     33  C   UNL     1      -1.851  -4.264  -5.869  0.00  0.00    +0.041 C 
BRANCH  31  34
ATOM     34  O   UNL     1       0.055  -2.996  -6.646  0.00  0.00    -0.389 OA
ATOM     35  H   UNL     1       1.010  -2.889  -6.748  0.00  0.00    +0.210 HD
ENDBRANCH  31  34
ENDBRANCH  30  31
ENDBRANCH  29  30
ENDBRANCH  28  29
ENDBRANCH  27  28
ENDBRANCH  22  27
ENDBRANCH   1  23
TORSDOF 8
