REMARK  Name = ZINC44713990
REMARK  12 active torsions:
REMARK  status: ('A' for Active; 'I' for Inactive)
REMARK    1  A    between atoms: C_1  and  C_2
REMARK    2  A    between atoms: C_2  and  C_3
REMARK    3  A    between atoms: C_3  and  C_4
REMARK    4  A    between atoms: C_4  and  C_5
REMARK    5  A    between atoms: C_5  and  C_6
REMARK    6  A    between atoms: C_6  and  C_7
REMARK    7  A    between atoms: C_11  and  C_20
REMARK    8  A    between atoms: N_22  and  C_23
REMARK    9  A    between atoms: C_23  and  C_25
REMARK   10  A    between atoms: C_23  and  C_26
REMARK   11  A    between atoms: C_27  and  C_33
REMARK   12  A    between atoms: C_31  and  C_32
REMARK                            x       y       z     vdW  Elec       q    Type
REMARK                         _______ _______ _______ _____ _____    ______ ____
ROOT
ATOM      1  C   UNL     1       2.199  -4.546  -3.892  0.00  0.00    +0.216 C 
ATOM      2  O   UNL     1       2.645  -3.763  -4.703  0.00  0.00    -0.276 OA
ATOM      3  N   UNL     1       2.335  -5.873  -4.090  0.00  0.00    -0.300 N 
ATOM      4  C   UNL     1       1.856  -6.975  -3.224  0.00  0.00    +0.121 C 
ATOM      5  C   UNL     1       1.346  -8.052  -4.207  0.00  0.00    +0.100 C 
ATOM      6  C   UNL     1       2.100  -7.774  -5.519  0.00  0.00    -0.004 C 
ATOM      7  C   UNL     1       2.992  -6.558  -5.229  0.00  0.00    +0.115 C 
ATOM      8  C   UNL     1       1.115  -7.444  -6.636  0.00  0.00    -0.010 C 
ATOM      9  C   UNL     1       1.885  -7.228  -7.941  0.00  0.00    -0.082 C 
ATOM     10  N   UNL     1       2.642  -8.441  -8.272  0.00  0.00    +0.379 N 
ATOM     11  C   UNL     1       3.651  -8.700  -7.238  0.00  0.00    -0.082 C 
ATOM     12  C   UNL     1       2.955  -8.978  -5.902  0.00  0.00    -0.010 C 
ATOM     13  H   UNL     1       2.009  -9.226  -8.327  0.00  0.00    -0.086 HD
ATOM     14  H   UNL     1       3.099  -8.319  -9.163  0.00  0.00    -0.086 HD
ENDROOT
BRANCH   5  15
ATOM     15  C   UNL     1       1.673  -9.430  -3.693  0.00  0.00    +0.219 C 
ATOM     16  O   UNL     1       2.703  -9.620  -3.080  0.00  0.00    -0.275 OA
ATOM     17  N   UNL     1       0.823 -10.451  -3.913  0.00  0.00    -0.308 N 
ATOM     18  H   UNL     1      -0.001 -10.300  -4.404  0.00  0.00    +0.149 HD
BRANCH  17  19
ATOM     19  C   UNL     1       1.141 -11.791  -3.413  0.00  0.00    +0.104 C 
ATOM     20  C   UNL     1       2.142 -12.463  -4.355  0.00  0.00    +0.033 C 
BRANCH  19  21
ATOM     21  C   UNL     1      -0.119 -12.615  -3.348  0.00  0.00    +0.015 A 
ATOM     22  C   UNL     1      -0.539 -13.346  -2.289  0.00  0.00    +0.038 A 
ATOM     23  N   UNL     1      -1.705 -13.932  -2.630  0.00  0.00    -0.281 N 
ATOM     24  H   UNL     1      -2.237 -14.516  -2.066  0.00  0.00    +0.189 HD
ATOM     25  N   UNL     1      -2.013 -13.550  -3.942  0.00  0.00    -0.179 NA
ATOM     26  C   UNL     1      -1.065 -12.755  -4.369  0.00  0.00    +0.065 A 
ATOM     27  C   UNL     1      -1.000 -12.107  -5.728  0.00  0.00    +0.068 C 
ATOM     28  C   UNL     1       0.170 -13.480  -0.966  0.00  0.00    +0.065 C 
ENDBRANCH  19  21
ENDBRANCH  17  19
ENDBRANCH   5  15
BRANCH   1  29
ATOM     29  C   UNL     1       1.493  -4.037  -2.662  0.00  0.00    +0.096 C 
BRANCH  29  30
ATOM     30  C   UNL     1       1.476  -2.508  -2.679  0.00  0.00    +0.009 C 
BRANCH  30  31
ATOM     31  C   UNL     1       0.759  -1.991  -1.431  0.00  0.00    +0.000 C 
BRANCH  31  32
ATOM     32  C   UNL     1       0.743  -0.461  -1.448  0.00  0.00    -0.000 C 
BRANCH  32  34
ATOM     33  C   UNL     1       0.009   1.586  -0.217  0.00  0.00    +0.004 C 
ATOM     34  C   UNL     1       0.026   0.056  -0.200  0.00  0.00    -0.003 C 
ENDBRANCH  32  34
ENDBRANCH  31  32
ENDBRANCH  30  31
ENDBRANCH  29  30
ENDBRANCH   1  29
TORSDOF 8
