REMARK  Name = ZINC04063780
REMARK  5 active torsions:
REMARK  status: ('A' for Active; 'I' for Inactive)
REMARK    1  A    between atoms: C_1  and  C_2
REMARK    2  A    between atoms: C_8  and  C_32
REMARK    3  A    between atoms: C_9  and  O_31
REMARK    4  A    between atoms: C_19  and  C_21
REMARK    5  A    between atoms: C_21  and  N_61
REMARK                            x       y       z     vdW  Elec       q    Type
REMARK                         _______ _______ _______ _____ _____    ______ ____
ROOT
ATOM      1  C   UNL     1       1.152   3.576   6.263  0.00  0.00    +0.008 C 
ATOM      2  C   UNL     1       1.036   4.980   5.688  0.00  0.00    -0.001 C 
ATOM      3  C   UNL     1       0.076   5.806   6.543  0.00  0.00    +0.008 C 
ATOM      4  C   UNL     1       0.193   7.267   6.084  0.00  0.00    +0.027 C 
ATOM      5  C   UNL     1      -0.163   7.309   4.623  0.00  0.00    -0.027 C 
ATOM      6  C   UNL     1       0.014   6.297   3.829  0.00  0.00    -0.061 C 
ATOM      7  C   UNL     1       0.623   4.978   4.225  0.00  0.00    +0.018 C 
ATOM      8  C   UNL     1      -0.336   3.852   3.882  0.00  0.00    +0.132 C 
ATOM      9  C   UNL     1      -1.148   3.996   2.627  0.00  0.00    +0.071 C 
ATOM     10  C   UNL     1      -1.599   5.399   2.216  0.00  0.00    +0.187 C 
ATOM     11  C   UNL     1      -0.464   6.419   2.396  0.00  0.00    +0.076 C 
ATOM     12  O   UNL     1      -1.824   5.298   0.770  0.00  0.00    -0.460 OA
ATOM     13  C   UNL     1      -1.150   4.266   0.245  0.00  0.00    +0.309 C 
ATOM     14  O   UNL     1      -1.079   4.000  -0.936  0.00  0.00    -0.251 OA
ATOM     15  C   UNL     1      -0.479   3.465   1.351  0.00  0.00    +0.090 C 
ATOM     16  C   UNL     1       1.914   4.790   3.410  0.00  0.00    +0.018 C 
ENDROOT
BRANCH   8  17
ATOM     17  O   UNL     1       0.411   2.627   3.763  0.00  0.00    -0.391 OA
ATOM     18  H   UNL     1      -0.140   1.839   3.662  0.00  0.00    +0.210 HD
ENDBRANCH   8  17
BRANCH  15  19
ATOM     19  C   UNL     1      -0.784   1.974   1.155  0.00  0.00    -0.064 C 
BRANCH  19  29
ATOM     20  C   UNL     1       1.326   1.830  -0.024  0.00  0.00    -0.074 C 
ATOM     21  C   UNL     1       1.970   1.446  -1.358  0.00  0.00    +0.046 C 
ATOM     22  C   UNL     1       1.782  -0.054  -1.595  0.00  0.00    +0.167 C 
ATOM     23  C   UNL     1       0.290  -0.395  -1.567  0.00  0.00    +0.046 C 
ATOM     24  C   UNL     1      -0.303   0.045  -0.227  0.00  0.00    -0.074 C 
ATOM     25  O   UNL     1       2.331  -0.410  -2.874  0.00  0.00    -0.346 OA
ATOM     26  C   UNL     1       3.668  -0.884  -2.583  0.00  0.00    +0.191 C 
ATOM     27  C   UNL     1       3.459  -1.607  -1.229  0.00  0.00    +0.191 C 
ATOM     28  O   UNL     1       2.464  -0.793  -0.575  0.00  0.00    -0.346 OA
ATOM     29  N   UNL     1      -0.116   1.504  -0.076  0.00  0.00    +0.380 N 
ATOM     30  H   UNL     1      -0.535   1.979  -0.884  0.00  0.00    -0.082 HD
ENDBRANCH  19  29
ENDBRANCH  15  19
TORSDOF 3
