REMARK  Name = ZINC06378854
REMARK  5 active torsions:
REMARK  status: ('A' for Active; 'I' for Inactive)
REMARK    1  A    between atoms: C_1  and  N_2
REMARK    2  A    between atoms: N_5  and  C_6
REMARK    3  A    between atoms: C_6  and  C_8
REMARK    4  A    between atoms: C_6  and  C_15
REMARK    5  A    between atoms: C_20  and  O_21
REMARK                            x       y       z     vdW  Elec       q    Type
REMARK                         _______ _______ _______ _____ _____    ______ ____
ROOT
ATOM      1  C   UNL     1       1.249  -2.188  -0.021  0.00  0.00    +0.139 C 
ENDROOT
BRANCH   1   2
ATOM      2  C   UNL     1       1.335  -0.683  -0.024  0.00  0.00    +0.022 A 
ATOM      3  C   UNL     1       2.564  -0.062   0.104  0.00  0.00    +0.059 A 
ATOM      4  C   UNL     1       2.646   1.320   0.101  0.00  0.00    +0.167 A 
ATOM      5  C   UNL     1       1.490   2.085  -0.031  0.00  0.00    +0.170 A 
ATOM      6  C   UNL     1       0.260   1.461  -0.159  0.00  0.00    +0.095 A 
ATOM      7  C   UNL     1       0.182   0.076  -0.156  0.00  0.00    +0.126 A 
ATOM      8  O   UNL     1       1.834   3.406  -0.004  0.00  0.00    -0.452 OA
ATOM      9  C   UNL     1       3.161   3.446   0.555  0.00  0.00    +0.466 C 
ATOM     10  O   UNL     1       3.716   2.163   0.211  0.00  0.00    -0.453 OA
BRANCH   7  11
ATOM     11  O   UNL     1      -1.025  -0.537  -0.281  0.00  0.00    -0.506 OA
ATOM     12  H   UNL     1      -1.279  -0.722  -1.195  0.00  0.00    +0.292 HD
ENDBRANCH   7  11
ENDBRANCH   1   2
BRANCH   1  17
ATOM     13  C   UNL     1       4.217  -3.359  -3.700  0.00  0.00    +0.129 C 
ATOM     14  N   UNL     1       3.957  -3.260  -2.262  0.00  0.00    -0.302 N 
ATOM     15  C   UNL     1       2.753  -2.842  -1.822  0.00  0.00    +0.300 C 
ATOM     16  O   UNL     1       1.884  -2.547  -2.619  0.00  0.00    -0.253 OA
ATOM     17  N   UNL     1       2.514  -2.751  -0.499  0.00  0.00    -0.288 N 
ATOM     18  H   UNL     1       4.651  -3.495  -1.626  0.00  0.00    +0.150 HD
ATOM     19  H   UNL     1       3.179  -3.058   0.136  0.00  0.00    +0.151 HD
ENDBRANCH   1  17
BRANCH   1  20
ATOM     20  C   UNL     1       0.982  -2.672   1.381  0.00  0.00    -0.022 A 
ATOM     21  C   UNL     1       1.992  -2.648   2.325  0.00  0.00    +0.008 A 
ATOM     22  C   UNL     1       1.747  -3.087   3.612  0.00  0.00    +0.038 A 
ATOM     23  C   UNL     1       0.492  -3.562   3.953  0.00  0.00    +0.123 A 
ATOM     24  C   UNL     1      -0.518  -3.591   3.006  0.00  0.00    +0.038 A 
ATOM     25  C   UNL     1      -0.272  -3.147   1.721  0.00  0.00    +0.008 A 
ATOM     26  F   UNL     1       0.252  -3.997   5.210  0.00  0.00    -0.205 F 
ENDBRANCH   1  20
TORSDOF 4
