REMARK  Name = ZINC66924851
REMARK  11 active torsions:
REMARK  status: ('A' for Active; 'I' for Inactive)
REMARK    1  A    between atoms: C_1  and  N_2
REMARK    2  A    between atoms: N_2  and  C_3
REMARK    3  A    between atoms: N_2  and  C_4
REMARK    4  A    between atoms: C_4  and  C_5
REMARK    5  A    between atoms: C_5  and  O_6
REMARK    6  A    between atoms: O_6  and  C_7
REMARK    7  A    between atoms: C_10  and  C_13
REMARK    8  A    between atoms: C_13  and  N_14
REMARK    9  A    between atoms: N_17  and  C_18
REMARK   10  A    between atoms: C_18  and  C_19
REMARK   11  A    between atoms: C_19  and  O_29
REMARK                            x       y       z     vdW  Elec       q    Type
REMARK                         _______ _______ _______ _____ _____    ______ ____
ROOT
ATOM      1  N   UNL     1       0.878  -8.534   1.798  0.00  0.00    -0.295 N 
ATOM      2  C   UNL     1       1.153  -9.852   1.742  0.00  0.00    +0.300 C 
ATOM      3  O   UNL     1       0.308 -10.664   2.068  0.00  0.00    -0.253 OA
ATOM      4  N   UNL     1       2.364 -10.271   1.323  0.00  0.00    -0.296 N 
ATOM      5  H   UNL     1       1.552  -7.887   1.538  0.00  0.00    +0.151 HD
ATOM      6  H   UNL     1       3.038  -9.624   1.063  0.00  0.00    +0.150 HD
ENDROOT
BRANCH   1   7
ATOM      7  C   UNL     1      -0.438  -8.079   2.253  0.00  0.00    +0.141 C 
BRANCH   7  11
ATOM      8  C   UNL     1      -0.577  -3.809   2.169  0.00  0.00    +0.120 A 
ATOM      9  C   UNL     1      -0.957  -4.538   1.052  0.00  0.00    +0.046 A 
ATOM     10  C   UNL     1      -0.911  -5.919   1.082  0.00  0.00    +0.009 A 
ATOM     11  C   UNL     1      -0.487  -6.573   2.223  0.00  0.00    -0.030 A 
ATOM     12  C   UNL     1      -0.108  -5.848   3.338  0.00  0.00    +0.009 A 
ATOM     13  C   UNL     1      -0.146  -4.468   3.311  0.00  0.00    +0.046 A 
BRANCH   8  14
ATOM     14  O   UNL     1      -0.621  -2.451   2.142  0.00  0.00    -0.494 OA
BRANCH  14  15
ATOM     15  C   UNL     1      -1.074  -1.840   0.933  0.00  0.00    +0.210 C 
BRANCH  15  16
ATOM     16  C   UNL     1      -1.055  -0.319   1.091  0.00  0.00    -0.038 C 
BRANCH  16  18
ATOM     17  C   UNL     1       1.079  -0.107   0.017  0.00  0.00    -0.096 C 
ATOM     18  N   UNL     1       0.331   0.139   1.256  0.00  0.00    +0.378 N 
ATOM     19  C   UNL     1       0.339   1.577   1.555  0.00  0.00    -0.096 C 
ATOM     20  H   UNL     1       0.763  -0.365   2.016  0.00  0.00    -0.082 HD
ENDBRANCH  16  18
ENDBRANCH  15  16
ENDBRANCH  14  15
ENDBRANCH   8  14
ENDBRANCH   7  11
ENDBRANCH   1   7
BRANCH   4  21
ATOM     21  C   UNL     1       2.662 -11.704   1.262  0.00  0.00    +0.145 C 
BRANCH  21  22
ATOM     22  C   UNL     1       4.056 -11.909   0.664  0.00  0.00    +0.107 C 
ATOM     23  C   UNL     1       5.083 -11.166   1.514  0.00  0.00    +0.041 C 
ATOM     24  C   UNL     1       6.485 -11.559   1.033  0.00  0.00    +0.008 C 
ATOM     25  C   UNL     1       6.738 -13.014   1.423  0.00  0.00    +0.035 C 
ATOM     26  C   UNL     1       5.600 -13.890   0.969  0.00  0.00    -0.041 A 
ATOM     27  C   UNL     1       4.367 -13.383   0.624  0.00  0.00    -0.011 A 
ATOM     28  C   UNL     1       3.357 -14.246   0.219  0.00  0.00    +0.007 A 
ATOM     29  C   UNL     1       3.580 -15.606   0.157  0.00  0.00    +0.000 A 
ATOM     30  C   UNL     1       4.819 -16.115   0.499  0.00  0.00    +0.000 A 
ATOM     31  C   UNL     1       5.823 -15.259   0.903  0.00  0.00    +0.004 A 
BRANCH  22  32
ATOM     32  O   UNL     1       4.079 -11.387  -0.666  0.00  0.00    -0.382 OA
ATOM     33  H   UNL     1       3.445 -11.805  -1.264  0.00  0.00    +0.211 HD
ENDBRANCH  22  32
ENDBRANCH  21  22
ENDBRANCH   4  21
TORSDOF 9
