REMARK  Name = ZINC34747607
REMARK  6 active torsions:
REMARK  status: ('A' for Active; 'I' for Inactive)
REMARK    1  A    between atoms: C_1  and  C_2
REMARK    2  A    between atoms: C_2  and  C_3
REMARK    3  A    between atoms: C_3  and  N_4
REMARK    4  A    between atoms: N_17  and  C_20
REMARK    5  A    between atoms: C_20  and  C_21
REMARK    6  A    between atoms: N_23  and  C_24
REMARK                            x       y       z     vdW  Elec       q    Type
REMARK                         _______ _______ _______ _____ _____    ______ ____
ROOT
ATOM      1  N   UNL     1      -0.358  -2.942  -0.524  0.00  0.00    -0.280 N 
ATOM      2  C   UNL     1       0.681  -3.530   0.097  0.00  0.00    +0.264 A 
ATOM      3  O   UNL     1       0.637  -3.757   1.294  0.00  0.00    -0.267 OA
ATOM      4  C   UNL     1       1.837  -3.886  -0.668  0.00  0.00    +0.076 A 
ATOM      5  C   UNL     1       3.069  -4.527  -0.205  0.00  0.00    -0.023 A 
ATOM      6  C   UNL     1       4.022  -4.761  -1.129  0.00  0.00    -0.004 A 
ATOM      7  S   UNL     1       3.347  -4.152  -2.651  0.00  0.00    -0.073 S 
ATOM      8  C   UNL     1       1.782  -3.582  -2.038  0.00  0.00    +0.117 A 
ATOM      9  N   UNL     1       0.723  -2.999  -2.590  0.00  0.00    -0.208 NA
ATOM     10  C   UNL     1      -0.330  -2.686  -1.864  0.00  0.00    +0.202 A 
ATOM     11  N   UNL     1      -1.412  -2.090  -2.462  0.00  0.00    -0.304 N 
ATOM     12  C   UNL     1      -1.462  -0.632  -2.653  0.00  0.00    +0.089 C 
ATOM     13  C   UNL     1      -1.820  -0.346  -4.115  0.00  0.00    -0.059 C 
ATOM     14  N   UNL     1      -3.064  -1.046  -4.459  0.00  0.00    +0.387 N 
ATOM     15  C   UNL     1      -2.860  -2.498  -4.379  0.00  0.00    -0.059 C 
ATOM     16  C   UNL     1      -2.551  -2.891  -2.935  0.00  0.00    +0.089 C 
ATOM     17  C   UNL     1       5.361  -5.397  -0.912  0.00  0.00    +0.043 C 
ATOM     18  C   UNL     1       5.651  -5.413   0.595  0.00  0.00    +0.005 C 
ATOM     19  C   UNL     1       4.416  -5.947   1.327  0.00  0.00    +0.005 C 
ATOM     20  C   UNL     1       3.285  -4.920   1.254  0.00  0.00    +0.037 C 
ATOM     21  H   UNL     1      -3.791  -0.774  -3.815  0.00  0.00    -0.081 HD
ENDROOT
BRANCH   1  22
ATOM     22  C   UNL     1      -1.545  -2.575   0.252  0.00  0.00    +0.128 C 
BRANCH  22  24
ATOM     23  C   UNL     1      -3.813  -3.320   0.987  0.00  0.00    +0.005 C 
ATOM     24  C   UNL     1      -2.574  -3.704   0.176  0.00  0.00    +0.018 C 
ENDBRANCH  22  24
ENDBRANCH   1  22
BRANCH  14  25
ATOM     25  C   UNL     1      -3.466  -0.684  -5.825  0.00  0.00    +0.019 C 
BRANCH  25  26
ATOM     26  C   UNL     1      -4.804  -1.304  -6.136  0.00  0.00    +0.201 C 
ATOM     27  O   UNL     1      -5.368  -1.980  -5.302  0.00  0.00    -0.278 OA
ATOM     28  N   UNL     1      -5.375  -1.106  -7.341  0.00  0.00    -0.287 N 
ATOM     29  H   UNL     1      -4.888  -0.638  -8.037  0.00  0.00    +0.155 HD
BRANCH  28  30
ATOM     30  C   UNL     1      -6.666  -1.576  -7.588  0.00  0.00    +0.041 A 
ATOM     31  C   UNL     1      -7.546  -1.769  -6.545  0.00  0.00    +0.024 A 
ATOM     32  C   UNL     1      -8.836  -2.237  -6.780  0.00  0.00    +0.002 A 
ATOM     33  C   UNL     1      -9.263  -2.516  -8.043  0.00  0.00    +0.008 A 
ATOM     34  C   UNL     1      -8.397  -2.332  -9.133  0.00  0.00    -0.016 A 
ATOM     35  C   UNL     1      -7.083  -1.852  -8.907  0.00  0.00    +0.003 A 
ATOM     36  C   UNL     1      -6.220  -1.665  -9.998  0.00  0.00    +0.010 A 
ATOM     37  C   UNL     1      -6.656  -1.942 -11.258  0.00  0.00    +0.001 A 
ATOM     38  C   UNL     1      -7.950  -2.409 -11.482  0.00  0.00    +0.001 A 
ATOM     39  C   UNL     1      -8.810  -2.613 -10.447  0.00  0.00    +0.008 A 
ENDBRANCH  28  30
ENDBRANCH  25  26
ENDBRANCH  14  25
TORSDOF 5
