REMARK  Name = ZINC40799054
REMARK  5 active torsions:
REMARK  status: ('A' for Active; 'I' for Inactive)
REMARK    1  A    between atoms: C_4  and  C_7
REMARK    2  A    between atoms: C_7  and  N_8
REMARK    3  A    between atoms: C_16  and  N_29
REMARK    4  A    between atoms: C_17  and  N_21
REMARK    5  A    between atoms: N_21  and  C_22
REMARK                            x       y       z     vdW  Elec       q    Type
REMARK                         _______ _______ _______ _____ _____    ______ ____
ROOT
ATOM      1  N   UNL     1       4.227  -1.126   1.462  0.00  0.00    -0.264 N 
ATOM      2  C   UNL     1       3.930  -2.316   2.119  0.00  0.00    +0.127 A 
ATOM      3  C   UNL     1       3.161  -3.283   1.479  0.00  0.00    +0.044 A 
ATOM      4  C   UNL     1       2.874  -4.462   2.144  0.00  0.00    +0.005 A 
ATOM      5  C   UNL     1       3.366  -4.634   3.431  0.00  0.00    +0.020 A 
ATOM      6  C   UNL     1       4.123  -3.632   4.005  0.00  0.00    +0.113 A 
ATOM      7  N   UNL     1       4.386  -2.520   3.345  0.00  0.00    -0.240 NA
ATOM      8  C   UNL     1       5.143  -0.236   2.014  0.00  0.00    +0.153 A 
ATOM      9  C   UNL     1       6.485  -0.272   1.631  0.00  0.00    +0.104 A 
ATOM     10  C   UNL     1       7.362   0.644   2.216  0.00  0.00    +0.126 A 
ATOM     11  N   UNL     1       6.888   1.509   3.110  0.00  0.00    -0.333 N 
ATOM     12  C   UNL     1       5.614   1.509   3.443  0.00  0.00    +0.200 A 
ATOM     13  N   UNL     1       4.752   0.665   2.911  0.00  0.00    -0.220 NA
ATOM     14  H   UNL     1       7.490   2.149   3.521  0.00  0.00    +0.168 HD
ENDROOT
BRANCH   9  15
ATOM     15  N   UNL     1       6.940  -1.202   0.684  0.00  0.00    -0.353 N 
ATOM     16  H   UNL     1       6.308  -1.780   0.228  0.00  0.00    +0.143 HD
ATOM     17  H   UNL     1       7.888  -1.268   0.485  0.00  0.00    +0.143 HD
ENDBRANCH   9  15
BRANCH  10  18
ATOM     18  N   UNL     1       8.708   0.652   1.870  0.00  0.00    -0.297 N 
ATOM     19  H   UNL     1       9.051  -0.001   1.240  0.00  0.00    +0.154 HD
BRANCH  18  20
ATOM     20  C   UNL     1       9.568   1.601   2.431  0.00  0.00    +0.070 A 
ATOM     21  C   UNL     1      10.043   2.664   1.666  0.00  0.00    +0.028 A 
ATOM     22  C   UNL     1      10.893   3.579   2.266  0.00  0.00    +0.022 A 
ATOM     23  C   UNL     1      11.239   3.410   3.594  0.00  0.00    +0.112 A 
ATOM     24  N   UNL     1      10.773   2.393   4.292  0.00  0.00    -0.242 NA
ATOM     25  C   UNL     1       9.957   1.502   3.762  0.00  0.00    +0.150 A 
ATOM     26 CL   UNL     1       9.371   0.189   4.734  0.00  0.00    -0.060 Cl
ENDBRANCH  18  20
ENDBRANCH  10  18
BRANCH   1  27
ATOM     27  C   UNL     1       3.575  -0.810   0.188  0.00  0.00    +0.149 C 
BRANCH  27  31
ATOM     28  C   UNL     1      -0.042   1.337   0.932  0.00  0.00    +0.000 A 
ATOM     29  C   UNL     1       1.146   2.022   0.760  0.00  0.00    +0.000 A 
ATOM     30  C   UNL     1       2.316   1.328   0.520  0.00  0.00    +0.005 A 
ATOM     31  C   UNL     1       2.299  -0.053   0.451  0.00  0.00    -0.030 A 
ATOM     32  C   UNL     1       1.111  -0.739   0.624  0.00  0.00    +0.005 A 
ATOM     33  C   UNL     1      -0.059  -0.044   0.863  0.00  0.00    +0.000 A 
ENDBRANCH  27  31
ENDBRANCH   1  27
TORSDOF 5
