REMARK  Name = ZINC09332617
REMARK  4 active torsions:
REMARK  status: ('A' for Active; 'I' for Inactive)
REMARK    1  A    between atoms: C_1  and  C_2
REMARK    2  A    between atoms: C_5  and  N_8
REMARK    3  A    between atoms: C_23  and  C_29
REMARK    4  A    between atoms: N_31  and  C_32
REMARK                            x       y       z     vdW  Elec       q    Type
REMARK                         _______ _______ _______ _____ _____    ______ ____
ROOT
ATOM      1  N   UNL     1      -0.024   1.357   0.036  0.00  0.00    -0.210 N 
ATOM      2  C   UNL     1       1.226   1.905   0.024  0.00  0.00    +0.232 C 
ATOM      3  O   UNL     1       1.529   3.042   0.317  0.00  0.00    -0.274 OA
ATOM      4  C   UNL     1       2.154   0.803  -0.430  0.00  0.00    +0.113 C 
ATOM      5  C   UNL     1       3.483   0.581   0.206  0.00  0.00    +0.100 C 
ATOM      6  C   UNL     1       4.077   1.467   1.213  0.00  0.00    -0.021 A 
ATOM      7  C   UNL     1       3.755   2.802   1.327  0.00  0.00    +0.006 A 
ATOM      8  C   UNL     1       4.351   3.598   2.287  0.00  0.00    +0.000 A 
ATOM      9  C   UNL     1       5.292   3.063   3.150  0.00  0.00    +0.001 A 
ATOM     10  C   UNL     1       5.633   1.731   3.054  0.00  0.00    +0.008 A 
ATOM     11  C   UNL     1       5.035   0.919   2.091  0.00  0.00    -0.019 A 
ATOM     12  C   UNL     1       5.402  -0.507   1.999  0.00  0.00    +0.022 C 
ATOM     13  C   UNL     1       4.684  -1.362   1.246  0.00  0.00    +0.054 C 
ATOM     14  C   UNL     1       2.303  -1.496   0.230  0.00  0.00    +0.156 C 
ATOM     15  C   UNL     1       1.367  -0.354   0.326  0.00  0.00    +0.118 C 
ATOM     16  C   UNL     1      -0.001  -0.017   0.022  0.00  0.00    +0.232 C 
ATOM     17  O   UNL     1      -0.922  -0.773  -0.198  0.00  0.00    -0.274 OA
ATOM     18  N   UNL     1       3.665  -0.836   0.244  0.00  0.00    -0.383 NA
ATOM     19  H   UNL     1       4.080  -1.069  -0.666  0.00  0.00    +0.127 HD
ENDROOT
BRANCH   1  24
ATOM     20  C   UNL     1      -4.802   4.420   0.111  0.00  0.00    +0.044 C 
ATOM     21  C   UNL     1      -3.533   3.606   0.092  0.00  0.00    -0.050 A 
ATOM     22  C   UNL     1      -3.599   2.225   0.079  0.00  0.00    +0.005 A 
ATOM     23  C   UNL     1      -2.438   1.477   0.060  0.00  0.00    +0.024 A 
ATOM     24  C   UNL     1      -1.204   2.113   0.054  0.00  0.00    +0.044 A 
ATOM     25  C   UNL     1      -1.141   3.500   0.073  0.00  0.00    +0.024 A 
ATOM     26  C   UNL     1      -2.306   4.243   0.086  0.00  0.00    +0.005 A 
ENDBRANCH   1  24
BRANCH  14  27
ATOM     27  C   UNL     1       2.351  -2.043  -1.173  0.00  0.00    +0.237 C 
ATOM     28  O   UNL     1       3.263  -1.738  -1.912  0.00  0.00    -0.273 OA
ATOM     29  N   UNL     1       1.381  -2.873  -1.606  0.00  0.00    -0.284 N 
ATOM     30  H   UNL     1       0.689  -3.170  -0.995  0.00  0.00    +0.155 HD
BRANCH  29  31
ATOM     31  C   UNL     1       1.372  -3.304  -2.938  0.00  0.00    +0.034 A 
ATOM     32  C   UNL     1       0.166  -3.503  -3.596  0.00  0.00    +0.025 A 
ATOM     33  C   UNL     1       0.160  -3.924  -4.912  0.00  0.00    +0.022 A 
ATOM     34  C   UNL     1       1.354  -4.158  -5.570  0.00  0.00    +0.041 A 
ATOM     35  C   UNL     1       2.558  -3.966  -4.914  0.00  0.00    +0.022 A 
ATOM     36  C   UNL     1       2.569  -3.539  -3.600  0.00  0.00    +0.025 A 
ATOM     37 CL   UNL     1       1.343  -4.693  -7.221  0.00  0.00    -0.084 Cl
ENDBRANCH  29  31
ENDBRANCH  14  27
TORSDOF 3
