REMARK  Name = ZINC43259140
REMARK  9 active torsions:
REMARK  status: ('A' for Active; 'I' for Inactive)
REMARK    1  A    between atoms: C_1  and  C_2
REMARK    2  A    between atoms: C_2  and  C_3
REMARK    3  A    between atoms: C_3  and  C_5
REMARK    4  A    between atoms: C_3  and  N_22
REMARK    5  A    between atoms: C_5  and  C_7
REMARK    6  A    between atoms: C_5  and  N_13
REMARK    7  A    between atoms: N_13  and  C_14
REMARK    8  A    between atoms: N_13  and  C_15
REMARK    9  A    between atoms: C_15  and  C_16
REMARK                            x       y       z     vdW  Elec       q    Type
REMARK                         _______ _______ _______ _____ _____    ______ ____
ROOT
ATOM      1  C   UNL     1       0.952  -2.072   1.228  0.00  0.00    -0.014 C 
ENDROOT
BRANCH   1   2
ATOM      2  C   UNL     1       1.593  -2.551   2.505  0.00  0.00    -0.021 A 
ATOM      3  C   UNL     1       1.018  -3.159   3.572  0.00  0.00    +0.011 A 
ATOM      4  C   UNL     1       1.811  -3.515   4.647  0.00  0.00    +0.023 A 
ATOM      5  C   UNL     1       3.139  -3.246   4.603  0.00  0.00    +0.055 A 
ATOM      6  S   UNL     1       3.305  -2.473   3.002  0.00  0.00    -0.088 S 
ATOM      7 BR   UNL     1       4.471  -3.603   5.897  0.00  0.00    -0.043 Br
ENDBRANCH   1   2
BRANCH   1   8
ATOM      8  N   UNL     1       1.833  -2.378   0.093  0.00  0.00    +0.386 N 
ATOM      9  C   UNL     1       1.228  -1.875  -1.147  0.00  0.00    -0.095 C 
ATOM     10  H   UNL     1       2.729  -1.936   0.234  0.00  0.00    -0.081 HD
BRANCH   8  11
ATOM     11  C   UNL     1       2.016  -3.833  -0.006  0.00  0.00    -0.042 C 
BRANCH  11  12
ATOM     12  C   UNL     1       3.015  -4.141  -1.091  0.00  0.00    -0.064 A 
ATOM     13  C   UNL     1       2.587  -4.333  -2.391  0.00  0.00    +0.002 A 
ATOM     14  C   UNL     1       3.503  -4.615  -3.387  0.00  0.00    +0.000 A 
ATOM     15  C   UNL     1       4.849  -4.705  -3.082  0.00  0.00    +0.000 A 
ATOM     16  C   UNL     1       5.278  -4.511  -1.782  0.00  0.00    +0.000 A 
ATOM     17  C   UNL     1       4.361  -4.225  -0.787  0.00  0.00    +0.002 A 
ENDBRANCH  11  12
ENDBRANCH   8  11
ENDBRANCH   1   8
BRANCH   1  18
ATOM     18  C   UNL     1       0.728  -0.561   1.306  0.00  0.00    +0.042 C 
BRANCH  18  19
ATOM     19  N   UNL     1       2.018   0.117   1.487  0.00  0.00    -0.328 NA
ATOM     20  H   UNL     1       2.470  -0.187   2.337  0.00  0.00    +0.118 HD
ATOM     21  H   UNL     1       2.617  -0.025   0.688  0.00  0.00    +0.118 HD
ENDBRANCH  18  19
BRANCH  18  23
ATOM     22  C   UNL     1      -0.535   1.249   2.478  0.00  0.00    +0.005 C 
ATOM     23  C   UNL     1      -0.187  -0.241   2.490  0.00  0.00    +0.014 C 
ENDBRANCH  18  23
ENDBRANCH   1  18
TORSDOF 7
