REMARK  Name = ZINC09479347
REMARK  9 active torsions:
REMARK  status: ('A' for Active; 'I' for Inactive)
REMARK    1  A    between atoms: C_1  and  C_2
REMARK    2  A    between atoms: C_2  and  C_3
REMARK    3  A    between atoms: C_2  and  C_4
REMARK    4  A    between atoms: C_4  and  C_6
REMARK    5  A    between atoms: C_4  and  N_56
REMARK    6  A    between atoms: C_17  and  C_18
REMARK    7  A    between atoms: C_17  and  N_56
REMARK    8  A    between atoms: N_20  and  C_21
REMARK    9  A    between atoms: C_22  and  C_29
REMARK                            x       y       z     vdW  Elec       q    Type
REMARK                         _______ _______ _______ _____ _____    ______ ____
ROOT
ATOM      1  N   UNL     1      -2.858   1.532   2.487  0.00  0.00    +0.389 N 
ATOM      2  H   UNL     1      -3.869   1.555   2.310  0.00  0.00    -0.084 HD
ATOM      3  H   UNL     1      -2.528   2.478   2.712  0.00  0.00    -0.084 HD
ENDROOT
BRANCH   1   4
ATOM      4  C   UNL     1      -2.164   1.050   1.278  0.00  0.00    -0.038 C 
BRANCH   4   5
ATOM      5  C   UNL     1      -2.893   1.549   0.057  0.00  0.00    -0.057 A 
ATOM      6  C   UNL     1      -3.403   2.834   0.036  0.00  0.00    +0.006 A 
ATOM      7  C   UNL     1      -4.074   3.299  -1.081  0.00  0.00    +0.049 A 
ATOM      8  C   UNL     1      -4.233   2.472  -2.180  0.00  0.00    +0.162 A 
ATOM      9  C   UNL     1      -3.721   1.182  -2.159  0.00  0.00    +0.162 A 
ATOM     10  C   UNL     1      -3.045   0.722  -1.042  0.00  0.00    +0.051 A 
ATOM     11  O   UNL     1      -3.883   0.375  -3.247  0.00  0.00    -0.488 OA
ATOM     12  C   UNL     1      -3.162   0.755  -4.421  0.00  0.00    +0.232 C 
ATOM     13  C   UNL     1      -3.936   1.794  -5.216  0.00  0.00    +0.082 C 
ATOM     14  C   UNL     1      -4.095   3.103  -4.458  0.00  0.00    +0.232 C 
ATOM     15  O   UNL     1      -4.893   2.917  -3.288  0.00  0.00    -0.488 OA
ENDBRANCH   4   5
BRANCH   4  17
ATOM     16  C   UNL     1      -0.013   1.086   0.008  0.00  0.00    +0.006 C 
ATOM     17  C   UNL     1      -0.729   1.579   1.267  0.00  0.00    -0.027 C 
ATOM     18  C   UNL     1      -0.750   3.109   1.275  0.00  0.00    +0.006 C 
ENDBRANCH   4  17
ENDBRANCH   1   4
BRANCH   1  19
ATOM     19  C   UNL     1      -2.583   0.637   3.627  0.00  0.00    +0.016 C 
BRANCH  19  20
ATOM     20  C   UNL     1      -3.303   1.154   4.845  0.00  0.00    +0.201 C 
ATOM     21  O   UNL     1      -3.974   2.161   4.771  0.00  0.00    -0.278 OA
ATOM     22  N   UNL     1      -3.202   0.496   6.017  0.00  0.00    -0.281 N 
ATOM     23  H   UNL     1      -2.665  -0.309   6.077  0.00  0.00    +0.155 HD
BRANCH  22  24
ATOM     24  C   UNL     1      -3.865   0.972   7.140  0.00  0.00    +0.090 A 
ATOM     25  C   UNL     1      -3.887   0.439   8.416  0.00  0.00    +0.084 A 
ATOM     26  C   UNL     1      -4.668   1.143   9.432  0.00  0.00    -0.018 A 
ATOM     27  C   UNL     1      -5.300   2.250   9.000  0.00  0.00    -0.004 A 
ATOM     28  S   UNL     1      -4.872   2.373   7.281  0.00  0.00    -0.077 S 
ATOM     29  C   UNL     1      -6.084   2.916  10.098  0.00  0.00    +0.043 C 
ATOM     30  C   UNL     1      -5.513   2.316  11.402  0.00  0.00    +0.010 C 
ATOM     31  C   UNL     1      -4.984   0.953  10.916  0.00  0.00    +0.037 C 
BRANCH  25  32
ATOM     32  C   UNL     1      -3.166  -0.757   8.732  0.00  0.00    +0.102 C 
ATOM     33  N   UNL     1      -2.595  -1.707   8.983  0.00  0.00    -0.191 NA
ENDBRANCH  25  32
ENDBRANCH  22  24
ENDBRANCH  19  20
ENDBRANCH   1  19
TORSDOF 7
