REMARK  Name = ZINC67290998
REMARK  8 active torsions:
REMARK  status: ('A' for Active; 'I' for Inactive)
REMARK    1  A    between atoms: C_1  and  C_2
REMARK    2  A    between atoms: C_2  and  N_3
REMARK    3  A    between atoms: N_3  and  C_4
REMARK    4  A    between atoms: C_4  and  C_5
REMARK    5  A    between atoms: C_6  and  C_8
REMARK    6  A    between atoms: C_8  and  N_9
REMARK    7  A    between atoms: C_16  and  C_18
REMARK    8  A    between atoms: C_21  and  N_24
REMARK                            x       y       z     vdW  Elec       q    Type
REMARK                         _______ _______ _______ _____ _____    ______ ____
ROOT
ATOM      1  N   UNL     1       5.582  -0.347   0.931  0.00  0.00    +0.386 N 
ATOM      2  C   UNL     1       6.479   0.081  -0.140  0.00  0.00    -0.077 C 
ATOM      3  C   UNL     1       7.902  -0.276   0.229  0.00  0.00    +0.000 C 
ATOM      4  C   UNL     1       8.257  -1.650  -0.367  0.00  0.00    +0.106 C 
ATOM      5  N   UNL     1       7.120  -2.586  -0.256  0.00  0.00    -0.303 N 
ATOM      6  C   UNL     1       6.296  -2.668   0.932  0.00  0.00    +0.089 C 
ATOM      7  C   UNL     1       5.116  -1.676   0.821  0.00  0.00    -0.059 C 
ATOM      8  C   UNL     1       6.840  -3.394  -1.298  0.00  0.00    +0.219 C 
ATOM      9  O   UNL     1       5.968  -4.231  -1.198  0.00  0.00    -0.275 OA
ATOM     10  H   UNL     1       6.069  -0.252   1.809  0.00  0.00    -0.081 HD
ENDROOT
BRANCH   8  11
ATOM     11  C   UNL     1       7.609  -3.256  -2.587  0.00  0.00    +0.075 C 
ATOM     12  C   UNL     1       6.981  -2.152  -3.440  0.00  0.00    +0.014 C 
ATOM     13  C   UNL     1       7.761  -2.013  -4.748  0.00  0.00    +0.023 C 
ATOM     14  C   UNL     1       7.716  -3.337  -5.513  0.00  0.00    +0.074 C 
ATOM     15  C   UNL     1       8.344  -4.440  -4.660  0.00  0.00    +0.023 C 
ATOM     16  C   UNL     1       7.564  -4.580  -3.352  0.00  0.00    +0.014 C 
BRANCH  14  17
ATOM     17  N   UNL     1       6.324  -3.682  -5.810  0.00  0.00    -0.297 N 
ATOM     18  C   UNL     1       6.035  -4.478  -6.859  0.00  0.00    +0.297 C 
ATOM     19  O   UNL     1       6.931  -4.910  -7.558  0.00  0.00    -0.253 OA
ATOM     20  N   UNL     1       4.754  -4.796  -7.131  0.00  0.00    -0.313 N 
ATOM     21  H   UNL     1       5.609  -3.337  -5.252  0.00  0.00    +0.151 HD
ATOM     22  H   UNL     1       4.040  -4.451  -6.573  0.00  0.00    +0.146 HD
ATOM     23  H   UNL     1       4.547  -5.369  -7.886  0.00  0.00    +0.146 HD
ENDBRANCH  14  17
ENDBRANCH   8  11
BRANCH   1  24
ATOM     24  C   UNL     1       4.420   0.552   0.949  0.00  0.00    +0.019 C 
BRANCH  24  26
ATOM     25  N   UNL     1       2.487   1.011   2.422  0.00  0.00    -0.304 N 
ATOM     26  C   UNL     1       3.607   0.297   2.192  0.00  0.00    +0.199 C 
ATOM     27  O   UNL     1       3.961  -0.549   2.985  0.00  0.00    -0.278 OA
BRANCH  25  29
ATOM     28  C   UNL     1       2.687   3.378   1.840  0.00  0.00    +0.024 C 
ATOM     29  C   UNL     1       2.060   2.034   1.464  0.00  0.00    +0.104 C 
ENDBRANCH  25  29
BRANCH  25  30
ATOM     30  C   UNL     1       1.697   0.763   3.631  0.00  0.00    +0.104 C 
ATOM     31  C   UNL     1       0.646  -0.311   3.342  0.00  0.00    +0.024 C 
ENDBRANCH  25  30
ENDBRANCH  24  26
ENDBRANCH   1  24
TORSDOF 6
