REMARK  Name = ZINC12431748
REMARK  9 active torsions:
REMARK  status: ('A' for Active; 'I' for Inactive)
REMARK    1  A    between atoms: C_1  and  O_2
REMARK    2  A    between atoms: O_2  and  C_3
REMARK    3  A    between atoms: C_6  and  C_10
REMARK    4  A    between atoms: C_10  and  N_11
REMARK    5  A    between atoms: C_17  and  C_19
REMARK    6  A    between atoms: C_19  and  C_20
REMARK    7  A    between atoms: N_22  and  C_23
REMARK    8  A    between atoms: C_23  and  C_24
REMARK    9  A    between atoms: C_24  and  N_25
REMARK                            x       y       z     vdW  Elec       q    Type
REMARK                         _______ _______ _______ _____ _____    ______ ____
ROOT
ATOM      1  N   UNL     1      -5.322  -3.042  -1.450  0.00  0.00    +0.391 N 
ATOM      2  C   UNL     1      -4.449  -4.160  -1.838  0.00  0.00    -0.058 C 
ATOM      3  C   UNL     1      -4.732  -4.525  -3.296  0.00  0.00    +0.085 C 
ATOM      4  N   UNL     1      -6.168  -4.711  -3.492  0.00  0.00    -0.318 N 
ATOM      5  C   UNL     1      -7.079  -4.251  -2.627  0.00  0.00    +0.200 C 
ATOM      6  O   UNL     1      -8.254  -4.425  -2.872  0.00  0.00    -0.278 OA
ATOM      7  C   UNL     1      -6.705  -3.527  -1.365  0.00  0.00    +0.028 C 
ATOM      8  H   UNL     1      -6.473  -5.186  -4.281  0.00  0.00    +0.149 HD
ATOM      9  H   UNL     1      -5.263  -2.310  -2.141  0.00  0.00    -0.080 HD
ENDROOT
BRANCH   1  10
ATOM     10  C   UNL     1      -4.902  -2.520  -0.143  0.00  0.00    -0.039 C 
BRANCH  10  14
ATOM     11  C   UNL     1      -1.021  -0.763  -0.489  0.00  0.00    +0.123 A 
ATOM     12  C   UNL     1      -2.155   0.028  -0.603  0.00  0.00    +0.046 A 
ATOM     13  C   UNL     1      -3.408  -0.543  -0.491  0.00  0.00    +0.008 A 
ATOM     14  C   UNL     1      -3.534  -1.901  -0.265  0.00  0.00    -0.028 A 
ATOM     15  C   UNL     1      -2.404  -2.693  -0.151  0.00  0.00    +0.128 A 
ATOM     16  C   UNL     1      -1.147  -2.126  -0.269  0.00  0.00    +0.084 A 
ATOM     17  F   UNL     1      -2.529  -4.020   0.070  0.00  0.00    -0.205 F 
BRANCH  11  19
ATOM     18  C   UNL     1       0.267   1.207  -0.827  0.00  0.00    +0.277 C 
ATOM     19  O   UNL     1       0.213  -0.203  -0.600  0.00  0.00    -0.495 OA
ENDBRANCH  11  19
ENDBRANCH  10  14
ENDBRANCH   1  10
BRANCH   7  20
ATOM     20  C   UNL     1      -7.648  -2.339  -1.163  0.00  0.00    +0.089 C 
BRANCH  20  21
ATOM     21  C   UNL     1      -7.602  -1.449  -2.379  0.00  0.00    +0.212 C 
ATOM     22  O   UNL     1      -6.822  -1.689  -3.276  0.00  0.00    -0.276 OA
ATOM     23  N   UNL     1      -8.427  -0.388  -2.469  0.00  0.00    -0.314 N 
ATOM     24  H   UNL     1      -9.050  -0.196  -1.751  0.00  0.00    +0.149 HD
BRANCH  23  25
ATOM     25  C   UNL     1      -8.382   0.477  -3.650  0.00  0.00    +0.125 C 
BRANCH  25  26
ATOM     26  C   UNL     1      -9.412   1.599  -3.501  0.00  0.00    +0.140 C 
BRANCH  26  27
ATOM     27  N   UNL     1      -9.367   2.464  -4.683  0.00  0.00    -0.345 N 
ATOM     28  C   UNL     1      -8.640   3.619  -4.784  0.00  0.00    +0.087 A 
ATOM     29  C   UNL     1      -8.820   4.168  -5.996  0.00  0.00    +0.027 A 
ATOM     30  C   UNL     1      -9.736   3.292  -6.731  0.00  0.00    -0.000 A 
ATOM     31  C   UNL     1     -10.044   2.232  -5.859  0.00  0.00    +0.049 A 
ATOM     32  C   UNL     1     -10.902   1.224  -6.287  0.00  0.00    +0.026 A 
ATOM     33  C   UNL     1     -11.436   1.274  -7.556  0.00  0.00    +0.002 A 
ATOM     34  C   UNL     1     -11.126   2.320  -8.414  0.00  0.00    +0.001 A 
ATOM     35  C   UNL     1     -10.292   3.325  -8.011  0.00  0.00    +0.010 A 
ENDBRANCH  26  27
ENDBRANCH  25  26
ENDBRANCH  23  25
ENDBRANCH  20  21
ENDBRANCH   7  20
TORSDOF 8
