REMARK  Name = ZINC32693281
REMARK  7 active torsions:
REMARK  status: ('A' for Active; 'I' for Inactive)
REMARK    1  A    between atoms: C_4  and  N_7
REMARK    2  A    between atoms: C_16  and  S_17
REMARK    3  A    between atoms: S_17  and  C_18
REMARK    4  A    between atoms: C_18  and  C_19
REMARK    5  A    between atoms: N_21  and  C_22
REMARK    6  A    between atoms: C_27  and  O_28
REMARK    7  A    between atoms: O_28  and  C_29
REMARK                            x       y       z     vdW  Elec       q    Type
REMARK                         _______ _______ _______ _____ _____    ______ ____
ROOT
ATOM      1  N   UNL     1       1.394  -4.470  -0.412  0.00  0.00    -0.255 N 
ATOM      2  C   UNL     1       1.996  -3.272  -0.598  0.00  0.00    +0.268 A 
ATOM      3  O   UNL     1       3.174  -3.179  -0.899  0.00  0.00    -0.267 OA
ATOM      4  C   UNL     1       1.164  -2.119  -0.418  0.00  0.00    +0.076 A 
ATOM      5  C   UNL     1       1.565  -0.729  -0.560  0.00  0.00    -0.023 A 
ATOM      6  C   UNL     1       0.609   0.203  -0.342  0.00  0.00    -0.004 A 
ATOM      7  S   UNL     1      -0.856  -0.717   0.056  0.00  0.00    -0.073 S 
ATOM      8  C   UNL     1      -0.187  -2.345  -0.069  0.00  0.00    +0.117 A 
ATOM      9  N   UNL     1      -0.718  -3.550   0.100  0.00  0.00    -0.215 NA
ATOM     10  C   UNL     1       0.079  -4.595  -0.074  0.00  0.00    +0.178 A 
ATOM     11  C   UNL     1       0.758   1.691  -0.422  0.00  0.00    +0.043 C 
ATOM     12  C   UNL     1       2.256   2.030  -0.428  0.00  0.00    +0.005 C 
ATOM     13  C   UNL     1       2.958   1.128  -1.446  0.00  0.00    +0.005 C 
ATOM     14  C   UNL     1       2.984  -0.311  -0.934  0.00  0.00    +0.037 C 
ENDROOT
BRANCH   1  18
ATOM     15  C   UNL     1       3.662  -7.934  -0.893  0.00  0.00    +0.000 A 
ATOM     16  C   UNL     1       3.160  -7.606   0.352  0.00  0.00    +0.002 A 
ATOM     17  C   UNL     1       2.408  -6.458   0.515  0.00  0.00    +0.026 A 
ATOM     18  C   UNL     1       2.157  -5.635  -0.574  0.00  0.00    +0.052 A 
ATOM     19  C   UNL     1       2.658  -5.970  -1.825  0.00  0.00    +0.026 A 
ATOM     20  C   UNL     1       3.414  -7.115  -1.980  0.00  0.00    +0.002 A 
ENDBRANCH   1  18
BRANCH  10  21
ATOM     21  S   UNL     1      -0.589  -6.212   0.140  0.00  0.00    -0.078 S 
BRANCH  21  22
ATOM     22  C   UNL     1      -2.298  -5.792   0.562  0.00  0.00    +0.173 C 
BRANCH  22  23
ATOM     23  C   UNL     1      -3.083  -7.057   0.797  0.00  0.00    +0.228 C 
ATOM     24  O   UNL     1      -2.540  -8.137   0.689  0.00  0.00    -0.275 OA
ATOM     25  N   UNL     1      -4.388  -6.990   1.126  0.00  0.00    -0.282 N 
ATOM     26  H   UNL     1      -4.896  -6.015   1.163  0.00  0.00    +0.155 HD
BRANCH  25  27
ATOM     27  C   UNL     1      -5.098  -8.161   1.422  0.00  0.00    +0.076 A 
ATOM     28  C   UNL     1      -4.684  -9.377   0.897  0.00  0.00    +0.027 A 
ATOM     29  C   UNL     1      -5.382 -10.531   1.194  0.00  0.00    +0.002 A 
ATOM     30  C   UNL     1      -6.500 -10.478   2.007  0.00  0.00    +0.004 A 
ATOM     31  C   UNL     1      -6.921  -9.269   2.530  0.00  0.00    +0.048 A 
ATOM     32  C   UNL     1      -6.224  -8.108   2.241  0.00  0.00    +0.148 A 
BRANCH  32  33
ATOM     33  O   UNL     1      -6.637  -6.918   2.754  0.00  0.00    -0.432 OA
BRANCH  33  34
ATOM     34  C   UNL     1      -7.800  -6.940   3.585  0.00  0.00    +0.541 C 
ATOM     35  F   UNL     1      -8.886  -7.432   2.854  0.00  0.00    -0.166 F 
ATOM     36  F   UNL     1      -7.568  -7.766   4.690  0.00  0.00    -0.166 F 
ENDBRANCH  33  34
ENDBRANCH  32  33
ENDBRANCH  25  27
ENDBRANCH  22  23
ENDBRANCH  21  22
ENDBRANCH  10  21
TORSDOF 7
