REMARK  Name = ZINC01228314
REMARK  13 active torsions:
REMARK  status: ('A' for Active; 'I' for Inactive)
REMARK    1  A    between atoms: C_1  and  C_2
REMARK    2  A    between atoms: C_2  and  C_3
REMARK    3  A    between atoms: C_2  and  C_4
REMARK    4  A    between atoms: C_2  and  C_5
REMARK    5  A    between atoms: C_7  and  C_16
REMARK    6  A    between atoms: C_9  and  C_12
REMARK    7  A    between atoms: C_10  and  O_11
REMARK    8  A    between atoms: C_12  and  C_13
REMARK    9  A    between atoms: C_12  and  C_14
REMARK   10  A    between atoms: C_12  and  C_15
REMARK   11  A    between atoms: N_17  and  N_18
REMARK   12  A    between atoms: C_19  and  C_21
REMARK   13  A    between atoms: C_21  and  N_60
REMARK                            x       y       z     vdW  Elec       q    Type
REMARK                         _______ _______ _______ _____ _____    ______ ____
ROOT
ATOM      1  C   UNL     1       2.421   4.146   0.001  0.00  0.00    +0.000 A 
ATOM      2  C   UNL     1       1.234   3.445   0.009  0.00  0.00    +0.017 A 
ATOM      3  C   UNL     1       1.251   2.048   0.001  0.00  0.00    -0.005 A 
ATOM      4  C   UNL     1       2.472   1.368  -0.008  0.00  0.00    +0.017 A 
ATOM      5  C   UNL     1       3.653   2.077  -0.021  0.00  0.00    +0.000 A 
ATOM      6  C   UNL     1       3.632   3.466  -0.014  0.00  0.00    +0.124 A 
ENDROOT
BRANCH   1   8
ATOM      7  C   UNL     1       0.957   6.147   0.026  0.00  0.00    +0.015 C 
ATOM      8  C   UNL     1       2.404   5.653   0.009  0.00  0.00    -0.009 C 
ATOM      9  C   UNL     1       3.132   6.164   1.254  0.00  0.00    +0.015 C 
ATOM     10  C   UNL     1       3.108   6.178  -1.244  0.00  0.00    +0.015 C 
ENDBRANCH   1   8
BRANCH   5  11
ATOM     11  C   UNL     1       4.970   1.345  -0.036  0.00  0.00    -0.009 C 
ATOM     12  C   UNL     1       4.715  -0.163  -0.041  0.00  0.00    +0.015 C 
ATOM     13  C   UNL     1       5.756   1.734  -1.290  0.00  0.00    +0.015 C 
ATOM     14  C   UNL     1       5.777   1.722   1.208  0.00  0.00    +0.015 C 
ENDBRANCH   5  11
BRANCH   6  15
ATOM     15  O   UNL     1       4.799   4.161  -0.021  0.00  0.00    -0.506 OA
ATOM     16  H   UNL     1       5.145   4.358   0.861  0.00  0.00    +0.292 HD
ENDBRANCH   6  15
BRANCH   3  17
ATOM     17  C   UNL     1      -0.015   1.294   0.009  0.00  0.00    +0.138 C 
ATOM     18  N   UNL     1       0.002  -0.004   0.002  0.00  0.00    -0.188 NA
BRANCH  18  19
ATOM     19  N   UNL     1      -1.202  -0.721   0.010  0.00  0.00    -0.209 N 
ATOM     20  C   UNL     1      -1.183  -2.069   0.002  0.00  0.00    +0.216 C 
ATOM     21  O   UNL     1      -0.125  -2.661  -0.011  0.00  0.00    -0.276 OA
ATOM     22  H   UNL     1      -2.048  -0.247   0.020  0.00  0.00    +0.177 HD
BRANCH  20  23
ATOM     23  C   UNL     1      -2.478  -2.840   0.011  0.00  0.00    +0.020 C 
BRANCH  23  29
ATOM     24  C   UNL     1      -1.509  -4.670  -1.237  0.00  0.00    -0.067 C 
ATOM     25  C   UNL     1      -0.820  -6.027  -1.045  0.00  0.00    +0.050 C 
ATOM     26  S   UNL     1      -2.095  -7.268  -0.665  0.00  0.00    -0.164 S 
ATOM     27  C   UNL     1      -3.031  -6.481   0.683  0.00  0.00    +0.050 C 
ATOM     28  C   UNL     1      -3.405  -5.060   0.245  0.00  0.00    -0.067 C 
ATOM     29  N   UNL     1      -2.166  -4.280   0.033  0.00  0.00    +0.387 N 
ATOM     30  H   UNL     1      -1.521  -4.468   0.809  0.00  0.00    -0.081 HD
ENDBRANCH  23  29
ENDBRANCH  20  23
ENDBRANCH  18  19
ENDBRANCH   3  17
TORSDOF 7
