REMARK  Name = ZINC04139855
REMARK  12 active torsions:
REMARK  status: ('A' for Active; 'I' for Inactive)
REMARK    1  A    between atoms: C_1  and  C_2
REMARK    2  A    between atoms: C_8  and  C_26
REMARK    3  A    between atoms: C_9  and  C_20
REMARK    4  A    between atoms: N_10  and  C_11
REMARK    5  A    between atoms: C_11  and  C_12
REMARK    6  A    between atoms: C_12  and  C_14
REMARK    7  A    between atoms: C_12  and  O_19
REMARK    8  A    between atoms: C_14  and  N_62
REMARK    9  A    between atoms: C_15  and  C_16
REMARK   10  A    between atoms: C_15  and  C_17
REMARK   11  A    between atoms: C_15  and  C_18
REMARK   12  A    between atoms: C_15  and  N_62
REMARK                            x       y       z     vdW  Elec       q    Type
REMARK                         _______ _______ _______ _____ _____    ______ ____
ROOT
ATOM      1  C   UNL     1       8.752   4.514   1.643  0.00  0.00    +0.044 C 
ATOM      2  C   UNL     1       7.483   4.171   0.907  0.00  0.00    -0.050 A 
ATOM      3  C   UNL     1       7.180   4.817  -0.283  0.00  0.00    +0.005 A 
ATOM      4  C   UNL     1       6.025   4.519  -0.972  0.00  0.00    +0.027 A 
ATOM      5  C   UNL     1       5.149   3.559  -0.471  0.00  0.00    +0.050 A 
ATOM      6  C   UNL     1       5.461   2.907   0.735  0.00  0.00    +0.008 A 
ATOM      7  C   UNL     1       6.638   3.225   1.416  0.00  0.00    +0.014 A 
ATOM      8  C   UNL     1       4.361   1.967   0.993  0.00  0.00    +0.015 A 
ATOM      9  C   UNL     1       3.473   2.108  -0.052  0.00  0.00    +0.058 A 
ATOM     10  N   UNL     1       3.950   3.054  -0.926  0.00  0.00    -0.337 N 
ENDROOT
BRANCH   9  11
ATOM     11  C   UNL     1       2.212   1.356  -0.210  0.00  0.00    -0.001 A 
ATOM     12  C   UNL     1       1.244   1.390   0.796  0.00  0.00    +0.010 A 
ATOM     13  C   UNL     1       0.069   0.685   0.642  0.00  0.00    +0.001 A 
ATOM     14  C   UNL     1      -0.153  -0.055  -0.506  0.00  0.00    +0.000 A 
ATOM     15  C   UNL     1       0.802  -0.093  -1.507  0.00  0.00    +0.001 A 
ATOM     16  C   UNL     1       1.982   0.607  -1.367  0.00  0.00    +0.010 A 
ENDBRANCH   9  11
BRANCH   8  17
ATOM     17  C   UNL     1       4.232   1.051   2.148  0.00  0.00    -0.015 A 
ATOM     18  C   UNL     1       3.316   1.328   3.163  0.00  0.00    +0.008 A 
ATOM     19  C   UNL     1       3.197   0.467   4.234  0.00  0.00    +0.001 A 
ATOM     20  C   UNL     1       3.991  -0.664   4.308  0.00  0.00    +0.000 A 
ATOM     21  C   UNL     1       4.904  -0.942   3.307  0.00  0.00    +0.001 A 
ATOM     22  C   UNL     1       5.030  -0.091   2.228  0.00  0.00    +0.008 A 
ENDBRANCH   8  17
BRANCH  10  23
ATOM     23  C   UNL     1       3.280   3.469  -2.161  0.00  0.00    +0.151 C 
BRANCH  23  24
ATOM     24  C   UNL     1       2.245   4.549  -1.841  0.00  0.00    +0.117 C 
BRANCH  24  25
ATOM     25  O   UNL     1       2.908   5.712  -1.341  0.00  0.00    -0.392 OA
ATOM     26  H   UNL     1       3.543   6.099  -1.959  0.00  0.00    +0.210 HD
ENDBRANCH  24  25
BRANCH  24  27
ATOM     27  C   UNL     1       1.474   4.910  -3.113  0.00  0.00    -0.048 C 
BRANCH  27  28
ATOM     28  N   UNL     1       0.478   5.951  -2.796  0.00  0.00    +0.384 N 
ATOM     29  H   UNL     1       0.961   6.782  -2.433  0.00  0.00    -0.085 HD
ATOM     30  H   UNL     1      -0.170   5.594  -2.084  0.00  0.00    -0.085 HD
BRANCH  28  31
ATOM     31  C   UNL     1      -0.281   6.318  -4.006  0.00  0.00    -0.077 C 
ATOM     32  C   UNL     1      -1.009   5.087  -4.550  0.00  0.00    -0.011 C 
ATOM     33  C   UNL     1      -1.304   7.398  -3.647  0.00  0.00    -0.011 C 
ATOM     34  C   UNL     1       0.676   6.857  -5.070  0.00  0.00    -0.011 C 
ENDBRANCH  28  31
ENDBRANCH  27  28
ENDBRANCH  24  27
ENDBRANCH  23  24
ENDBRANCH  10  23
TORSDOF 8
