REMARK  Name = ZINC67005579
REMARK  9 active torsions:
REMARK  status: ('A' for Active; 'I' for Inactive)
REMARK    1  A    between atoms: C_1  and  C_2
REMARK    2  A    between atoms: C_2  and  C_3
REMARK    3  A    between atoms: C_2  and  C_4
REMARK    4  A    between atoms: C_2  and  N_13
REMARK    5  A    between atoms: C_4  and  N_5
REMARK    6  A    between atoms: N_5  and  C_6
REMARK    7  A    between atoms: C_6  and  C_7
REMARK    8  A    between atoms: N_13  and  S_14
REMARK    9  A    between atoms: S_14  and  C_17
REMARK                            x       y       z     vdW  Elec       q    Type
REMARK                         _______ _______ _______ _____ _____    ______ ____
ROOT
ATOM      1  C   UNL     1      -1.484  -0.806   0.244  0.00  0.00    -0.059 C 
ENDROOT
BRANCH   1   3
ATOM      2  C   UNL     1      -0.001   1.195   0.438  0.00  0.00    +0.027 C 
ATOM      3  C   UNL     1      -0.037  -0.313   0.183  0.00  0.00    +0.019 C 
ATOM      4  C   UNL     1       0.792  -1.030   1.250  0.00  0.00    +0.027 C 
BRANCH   3   5
ATOM      5  N   UNL     1       0.520  -0.597  -1.142  0.00  0.00    -0.191 NA
ATOM      6  H   UNL     1       0.133  -1.297  -1.691  0.00  0.00    +0.148 HD
BRANCH   5   7
ATOM      7  S   UNL     1       1.811   0.276  -1.702  0.00  0.00    +0.027 S 
ATOM      8  O   UNL     1       2.137  -0.319  -2.950  0.00  0.00    -0.158 OA
ATOM      9  O   UNL     1       1.390   1.631  -1.633  0.00  0.00    -0.158 OA
ATOM     10  C   UNL     1       3.136  -0.029  -0.500  0.00  0.00    +0.214 C 
ENDBRANCH   5   7
ENDBRANCH   3   5
ENDBRANCH   1   3
BRANCH   1  11
ATOM     11  N   UNL     1      -1.518  -2.254  -0.001  0.00  0.00    +0.383 N 
ATOM     12  H   UNL     1      -1.134  -2.450  -0.913  0.00  0.00    -0.085 HD
ATOM     13  H   UNL     1      -0.972  -2.728   0.703  0.00  0.00    -0.085 HD
BRANCH  11  14
ATOM     14  C   UNL     1      -2.908  -2.728   0.058  0.00  0.00    -0.039 C 
BRANCH  14  15
ATOM     15  C   UNL     1      -2.943  -4.214  -0.193  0.00  0.00    -0.026 A 
ATOM     16  C   UNL     1      -2.864  -5.232   0.698  0.00  0.00    +0.024 A 
ATOM     17  C   UNL     1      -2.918  -6.534   0.234  0.00  0.00    +0.025 A 
ATOM     18  C   UNL     1      -3.049  -6.753  -1.097  0.00  0.00    +0.060 A 
ATOM     19  S   UNL     1      -3.107  -5.088  -1.741  0.00  0.00    -0.102 S 
ATOM     20 BR   UNL     1      -2.812  -7.987   1.440  0.00  0.00    -0.050 Br
ENDBRANCH  14  15
ENDBRANCH  11  14
ENDBRANCH   1  11
TORSDOF 6
