REMARK  Name = ZINC39034895
REMARK  6 active torsions:
REMARK  status: ('A' for Active; 'I' for Inactive)
REMARK    1  A    between atoms: C_4  and  C_7
REMARK    2  A    between atoms: C_7  and  C_8
REMARK    3  A    between atoms: C_8  and  C_10
REMARK    4  A    between atoms: C_8  and  N_27
REMARK    5  A    between atoms: C_28  and  C_30
REMARK    6  A    between atoms: C_30  and  C_31
REMARK                            x       y       z     vdW  Elec       q    Type
REMARK                         _______ _______ _______ _____ _____    ______ ____
ROOT
ATOM      1  C   UNL     1       4.171  -0.963   1.401  0.00  0.00    +0.163 C 
ENDROOT
BRANCH   1   2
ATOM      2  C   UNL     1       5.487  -1.699   1.381  0.00  0.00    +0.236 C 
ATOM      3  O   UNL     1       5.506  -2.909   1.465  0.00  0.00    -0.274 OA
ATOM      4  N   UNL     1       6.641  -1.013   1.271  0.00  0.00    -0.300 N 
ATOM      5  C   UNL     1       6.643   0.457   1.283  0.00  0.00    +0.106 C 
ATOM      6  C   UNL     1       7.614   0.939   2.365  0.00  0.00    +0.009 C 
ATOM      7  C   UNL     1       8.987   0.309   2.131  0.00  0.00    -0.037 C 
ATOM      8  C   UNL     1       8.881  -1.213   2.220  0.00  0.00    +0.009 C 
ATOM      9  C   UNL     1       7.923  -1.719   1.143  0.00  0.00    +0.106 C 
ATOM     10  C   UNL     1       9.973   0.819   3.184  0.00  0.00    +0.140 C 
ATOM     11  C   UNL     1      10.111   2.317   2.928  0.00  0.00    +0.042 C 
ATOM     12  N   UNL     1       9.812   2.893   4.026  0.00  0.00    -0.243 NA
ATOM     13  C   UNL     1       9.401   2.003   4.963  0.00  0.00    +0.216 C 
ATOM     14  N   UNL     1       9.440   0.755   4.546  0.00  0.00    -0.264 NA
ATOM     15  C   UNL     1      10.416   2.854   1.553  0.00  0.00    +0.034 C 
ATOM     16  C   UNL     1       9.442   2.143   0.594  0.00  0.00    -0.076 C 
ATOM     17  N   UNL     1       9.487   0.694   0.803  0.00  0.00    +0.385 N 
ATOM     18  H   UNL     1      10.440   0.379   0.708  0.00  0.00    -0.085 HD
ATOM     19  H   UNL     1       8.922   0.244   0.098  0.00  0.00    -0.085 HD
ENDBRANCH   1   2
BRANCH   1  20
ATOM     20  N   UNL     1       3.156  -1.795   2.051  0.00  0.00    -0.303 N 
ATOM     21  C   UNL     1       2.086  -1.220   2.635  0.00  0.00    +0.218 C 
ATOM     22  O   UNL     1       1.964  -0.013   2.623  0.00  0.00    -0.275 OA
ATOM     23  H   UNL     1       3.253  -2.760   2.061  0.00  0.00    +0.149 HD
BRANCH  21  24
ATOM     24  C   UNL     1       1.042  -2.076   3.304  0.00  0.00    +0.130 C 
BRANCH  24  25
ATOM     25  C   UNL     1      -0.040  -1.195   3.874  0.00  0.00    -0.039 A 
ATOM     26  C   UNL     1       0.069  -0.715   5.165  0.00  0.00    +0.004 A 
ATOM     27  C   UNL     1      -0.924   0.093   5.688  0.00  0.00    +0.000 A 
ATOM     28  C   UNL     1      -2.025   0.421   4.919  0.00  0.00    +0.000 A 
ATOM     29  C   UNL     1      -2.133  -0.058   3.627  0.00  0.00    +0.000 A 
ATOM     30  C   UNL     1      -1.138  -0.863   3.103  0.00  0.00    +0.004 A 
ENDBRANCH  24  25
ENDBRANCH  21  24
ENDBRANCH   1  20
BRANCH   1  31
ATOM     31  C   UNL     1       3.737  -0.656  -0.033  0.00  0.00    +0.067 C 
BRANCH  31  35
ATOM     32  C   UNL     1       0.238   1.793   0.029  0.00  0.00    +0.000 A 
ATOM     33  C   UNL     1       1.491   2.378   0.022  0.00  0.00    +0.000 A 
ATOM     34  C   UNL     1       2.623   1.585   0.002  0.00  0.00    +0.004 A 
ATOM     35  C   UNL     1       2.503   0.208  -0.011  0.00  0.00    -0.045 A 
ATOM     36  C   UNL     1       1.250  -0.377  -0.003  0.00  0.00    +0.004 A 
ATOM     37  C   UNL     1       0.118   0.416   0.016  0.00  0.00    +0.000 A 
ENDBRANCH  31  35
ENDBRANCH   1  31
TORSDOF 6
