REMARK  Name = ZINC23372229
REMARK  9 active torsions:
REMARK  status: ('A' for Active; 'I' for Inactive)
REMARK    1  A    between atoms: C_1  and  C_2
REMARK    2  A    between atoms: C_5  and  C_36
REMARK    3  A    between atoms: C_10  and  C_12
REMARK    4  A    between atoms: C_12  and  N_13
REMARK    5  A    between atoms: N_16  and  C_19
REMARK    6  A    between atoms: C_19  and  C_21
REMARK    7  A    between atoms: C_19  and  C_22
REMARK    8  A    between atoms: N_24  and  C_25
REMARK    9  A    between atoms: C_26  and  C_33
REMARK                            x       y       z     vdW  Elec       q    Type
REMARK                         _______ _______ _______ _____ _____    ______ ____
ROOT
ATOM      1  C   UNL     1      -1.803   2.255  -4.912  0.00  0.00    +0.140 C 
ATOM      2  C   UNL     1      -1.559   0.822  -5.388  0.00  0.00    +0.034 C 
ENDROOT
BRANCH   1   6
ATOM      3  N   UNL     1      -4.934   2.906  -7.671  0.00  0.00    +0.387 N 
ATOM      4  C   UNL     1      -3.595   3.397  -8.022  0.00  0.00    -0.063 C 
ATOM      5  C   UNL     1      -2.549   2.663  -7.179  0.00  0.00    +0.066 C 
ATOM      6  N   UNL     1      -2.830   2.882  -5.754  0.00  0.00    -0.295 NA
ATOM      7  C   UNL     1      -4.170   2.391  -5.403  0.00  0.00    +0.066 C 
ATOM      8  C   UNL     1      -5.216   3.125  -6.246  0.00  0.00    -0.063 C 
ATOM      9  H   UNL     1      -4.960   1.823  -7.860  0.00  0.00    -0.081 HD
BRANCH   3  10
ATOM     10  C   UNL     1      -5.962   3.533  -8.513  0.00  0.00    +0.019 C 
BRANCH  10  18
ATOM     11  C   UNL     1     -11.617   1.560  -9.971  0.00  0.00    +0.009 C 
ATOM     12  C   UNL     1     -10.211   2.140 -10.141  0.00  0.00    +0.004 C 
ATOM     13  C   UNL     1     -10.268   3.353 -11.072  0.00  0.00    +0.009 C 
ATOM     14  C   UNL     1      -8.858   3.913 -11.269  0.00  0.00    +0.004 C 
ATOM     15  C   UNL     1      -8.300   4.370  -9.912  0.00  0.00    +0.111 C 
ATOM     16  N   UNL     1      -8.375   3.243  -8.973  0.00  0.00    -0.303 N 
ATOM     17  C   UNL     1      -9.668   2.572  -8.776  0.00  0.00    +0.111 C 
ATOM     18  C   UNL     1      -7.281   2.835  -8.300  0.00  0.00    +0.199 C 
ATOM     19  O   UNL     1      -7.357   1.907  -7.524  0.00  0.00    -0.278 OA
ATOM     20  C   UNL     1      -8.911   5.107 -12.225  0.00  0.00    +0.009 C 
ENDBRANCH  10  18
ENDBRANCH   3  10
ENDBRANCH   1   6
BRANCH   1  21
ATOM     21  C   UNL     1      -0.522   3.042  -5.012  0.00  0.00    +0.235 C 
ATOM     22  O   UNL     1      -0.377   3.854  -5.902  0.00  0.00    -0.274 OA
ATOM     23  N   UNL     1       0.463   2.845  -4.113  0.00  0.00    -0.278 N 
ATOM     24  H   UNL     1       0.331   2.109  -3.306  0.00  0.00    +0.155 HD
BRANCH  23  25
ATOM     25  C   UNL     1       1.641   3.570  -4.205  0.00  0.00    +0.084 A 
ATOM     26  C   UNL     1       2.755   3.508  -3.386  0.00  0.00    +0.068 A 
ATOM     27  C   UNL     1       3.882   4.384  -3.707  0.00  0.00    -0.023 A 
ATOM     28  C   UNL     1       3.705   5.170  -4.784  0.00  0.00    -0.004 A 
ATOM     29  S   UNL     1       2.077   4.771  -5.372  0.00  0.00    -0.077 S 
ATOM     30  C   UNL     1       4.905   6.037  -5.054  0.00  0.00    +0.043 C 
ATOM     31  C   UNL     1       6.047   5.382  -4.245  0.00  0.00    +0.010 C 
ATOM     32  C   UNL     1       5.268   4.665  -3.125  0.00  0.00    +0.037 C 
BRANCH  26  33
ATOM     33  C   UNL     1       2.806   2.595  -2.240  0.00  0.00    +0.244 C 
ATOM     34  O   UNL     1       2.420   2.966  -1.148  0.00  0.00    -0.270 OA
ATOM     35  N   UNL     1       3.276   1.341  -2.398  0.00  0.00    -0.325 N 
ATOM     36  H   UNL     1       3.314   0.656  -1.539  0.00  0.00    +0.145 HD
ATOM     37  H   UNL     1       3.621   1.004  -3.387  0.00  0.00    +0.145 HD
ENDBRANCH  26  33
ENDBRANCH  23  25
ENDBRANCH   1  21
TORSDOF 6
