REMARK  Name = ZINC05390503
REMARK  12 active torsions:
REMARK  status: ('A' for Active; 'I' for Inactive)
REMARK    1  A    between atoms: C_9  and  N_11
REMARK    2  A    between atoms: N_11  and  C_12
REMARK    3  A    between atoms: C_12  and  N_14
REMARK    4  A    between atoms: N_14  and  C_15
REMARK    5  A    between atoms: C_15  and  C_16
REMARK    6  A    between atoms: C_16  and  C_17
REMARK    7  A    between atoms: C_17  and  C_18
REMARK    8  A    between atoms: C_18  and  C_19
REMARK    9  A    between atoms: C_19  and  C_20
REMARK   10  A    between atoms: C_20  and  N_21
REMARK   11  A    between atoms: N_21  and  C_22
REMARK   12  A    between atoms: C_22  and  N_24
REMARK                            x       y       z     vdW  Elec       q    Type
REMARK                         _______ _______ _______ _____ _____    ______ ____
ROOT
ATOM      1  C   UNL     1       4.108  12.467   0.589  0.00  0.00    +0.002 C 
ENDROOT
BRANCH   1   2
ATOM      2  C   UNL     1       2.829  11.633   0.484  0.00  0.00    +0.019 C 
BRANCH   2   3
ATOM      3  C   UNL     1       3.195  10.151   0.376  0.00  0.00    +0.103 C 
BRANCH   3   4
ATOM      4  N   UNL     1       1.971   9.352   0.275  0.00  0.00    -0.326 N 
ATOM      5  H   UNL     1       1.105   9.789   0.284  0.00  0.00    +0.148 HD
BRANCH   4   6
ATOM      6  C   UNL     1       2.048   8.011   0.170  0.00  0.00    +0.136 C 
ATOM      7  S   UNL     1       3.577   7.240   0.154  0.00  0.00    -0.019 S 
BRANCH   6   8
ATOM      8  N   UNL     1       0.922   7.276   0.077  0.00  0.00    -0.282 N 
ATOM      9  H   UNL     1       0.060   7.716   0.009  0.00  0.00    +0.155 HD
BRANCH   8  18
ATOM     10  C   UNL     1       2.509   1.205   0.066  0.00  0.00    +0.001 A 
ATOM     11  C   UNL     1       3.651   2.002   0.058  0.00  0.00    +0.002 A 
ATOM     12  C   UNL     1       3.560   3.360   0.053  0.00  0.00    +0.028 A 
ATOM     13  C   UNL     1       2.296   3.974   0.066  0.00  0.00    +0.073 A 
ATOM     14  C   UNL     1       1.135   3.162   0.079  0.00  0.00    +0.001 A 
ATOM     15  C   UNL     1       1.267   1.765   0.079  0.00  0.00    +0.010 A 
ATOM     16  C   UNL     1      -0.133   3.778   0.092  0.00  0.00    +0.013 A 
ATOM     17  C   UNL     1      -0.189   5.139   0.090  0.00  0.00    +0.044 A 
ATOM     18  C   UNL     1       0.996   5.887   0.078  0.00  0.00    +0.125 A 
ATOM     19  N   UNL     1       2.177   5.306   0.066  0.00  0.00    -0.232 NA
ENDBRANCH   8  18
ENDBRANCH   6   8
ENDBRANCH   4   6
ENDBRANCH   3   4
ENDBRANCH   2   3
ENDBRANCH   1   2
BRANCH   1  20
ATOM     20  C   UNL     1       3.743  13.948   0.697  0.00  0.00    +0.002 C 
BRANCH  20  21
ATOM     21  C   UNL     1       5.021  14.783   0.802  0.00  0.00    +0.019 C 
BRANCH  21  22
ATOM     22  C   UNL     1       4.655  16.264   0.910  0.00  0.00    +0.103 C 
BRANCH  22  23
ATOM     23  N   UNL     1       5.880  17.063   1.011  0.00  0.00    -0.326 N 
ATOM     24  H   UNL     1       6.746  16.626   1.002  0.00  0.00    +0.148 HD
BRANCH  23  25
ATOM     25  C   UNL     1       5.802  18.404   1.116  0.00  0.00    +0.136 C 
ATOM     26  S   UNL     1       4.274  19.175   1.132  0.00  0.00    -0.019 S 
BRANCH  25  27
ATOM     27  N   UNL     1       6.928  19.139   1.209  0.00  0.00    -0.282 N 
ATOM     28  C   UNL     1       6.848  20.510   1.427  0.00  0.00    +0.125 A 
ATOM     29  C   UNL     1       8.027  21.241   1.629  0.00  0.00    +0.044 A 
ATOM     30  C   UNL     1       7.964  22.586   1.838  0.00  0.00    +0.013 A 
ATOM     31  C   UNL     1       6.696  23.201   1.855  0.00  0.00    +0.001 A 
ATOM     32  C   UNL     1       6.557  24.581   2.072  0.00  0.00    +0.010 A 
ATOM     33  C   UNL     1       5.316  25.140   2.082  0.00  0.00    +0.001 A 
ATOM     34  C   UNL     1       4.179  24.360   1.879  0.00  0.00    +0.002 A 
ATOM     35  C   UNL     1       4.277  23.019   1.667  0.00  0.00    +0.028 A 
ATOM     36  C   UNL     1       5.542  22.406   1.650  0.00  0.00    +0.073 A 
ATOM     37  N   UNL     1       5.666  21.090   1.443  0.00  0.00    -0.232 NA
ATOM     38  H   UNL     1       7.795  18.712   1.124  0.00  0.00    +0.155 HD
ENDBRANCH  25  27
ENDBRANCH  23  25
ENDBRANCH  22  23
ENDBRANCH  21  22
ENDBRANCH  20  21
ENDBRANCH   1  20
TORSDOF 12
