REMARK  Name = ZINC06125683
REMARK  4 active torsions:
REMARK  status: ('A' for Active; 'I' for Inactive)
REMARK    1  A    between atoms: C_1  and  C_2
REMARK    2  A    between atoms: C_2  and  N_3
REMARK    3  A    between atoms: C_4  and  C_8
REMARK    4  A    between atoms: C_13  and  S_15
REMARK                            x       y       z     vdW  Elec       q    Type
REMARK                         _______ _______ _______ _____ _____    ______ ____
ROOT
ATOM      1  C   UNL     1       2.496   1.496  -0.015  0.00  0.00    +0.047 C 
ATOM      2  C   UNL     1       2.817   0.178   0.077  0.00  0.00    +0.080 C 
ATOM      3  C   UNL     1       4.144  -0.470   0.180  0.00  0.00    +0.275 C 
ATOM      4  O   UNL     1       5.178   0.179   0.195  0.00  0.00    -0.267 OA
ATOM      5  N   UNL     1       4.149  -1.782   0.256  0.00  0.00    -0.162 NA
ATOM      6  C   UNL     1       3.034  -2.498   0.241  0.00  0.00    +0.125 C 
ATOM      7  S   UNL     1       1.754  -1.260   0.114  0.00  0.00    -0.060 S 
ENDROOT
BRANCH   1   9
ATOM      8  N   UNL     1       0.625   3.196   0.031  0.00  0.00    -0.265 N 
ATOM      9  C   UNL     1       1.094   1.911   0.006  0.00  0.00    +0.063 A 
ATOM     10  C   UNL     1      -0.012   1.077   0.004  0.00  0.00    +0.049 A 
ATOM     11  C   UNL     1      -1.147   1.883   0.021  0.00  0.00    +0.135 A 
ATOM     12  N   UNL     1      -0.774   3.138   0.043  0.00  0.00    -0.179 NA
BRANCH   8  14
ATOM     13  C   UNL     1       1.606   4.930  -1.388  0.00  0.00    +0.029 C 
ATOM     14  C   UNL     1       1.440   4.414   0.043  0.00  0.00    +0.141 C 
ENDBRANCH   8  14
ENDBRANCH   1   9
BRANCH   6  15
ATOM     15  S   UNL     1       2.857  -4.249   0.332  0.00  0.00    -0.119 S 
ATOM     16  H   UNL     1       4.213  -4.627   0.423  0.00  0.00    +0.109 HD
ENDBRANCH   6  15
TORSDOF 3
