REMARK  Name = ZINC09647017
REMARK  10 active torsions:
REMARK  status: ('A' for Active; 'I' for Inactive)
REMARK    1  A    between atoms: C_1  and  C_2
REMARK    2  A    between atoms: C_2  and  N_3
REMARK    3  A    between atoms: N_3  and  C_4
REMARK    4  A    between atoms: N_3  and  C_6
REMARK    5  A    between atoms: C_4  and  C_5
REMARK    6  A    between atoms: C_9  and  C_12
REMARK    7  A    between atoms: C_15  and  S_23
REMARK    8  A    between atoms: N_16  and  C_17
REMARK    9  A    between atoms: S_23  and  C_24
REMARK   10  A    between atoms: C_24  and  C_25
REMARK                            x       y       z     vdW  Elec       q    Type
REMARK                         _______ _______ _______ _____ _____    ______ ____
ROOT
ATOM      1  C   UNL     1      -2.500   0.980  -0.131  0.00  0.00    +0.169 A 
ATOM      2  N   UNL     1      -2.640  -0.303   0.109  0.00  0.00    -0.128 NA
ATOM      3  N   UNL     1      -3.886  -0.595   0.227  0.00  0.00    -0.122 NA
ATOM      4  C   UNL     1      -4.620   0.483   0.070  0.00  0.00    +0.197 A 
ATOM      5  N   UNL     1      -3.764   1.527  -0.158  0.00  0.00    -0.270 N 
ENDROOT
BRANCH   1   9
ATOM      6  C   UNL     1       1.162   3.061  -0.696  0.00  0.00    +0.030 A 
ATOM      7  C   UNL     1      -0.034   3.636  -1.111  0.00  0.00    +0.024 A 
ATOM      8  C   UNL     1      -1.223   2.962  -0.933  0.00  0.00    +0.013 A 
ATOM      9  C   UNL     1      -1.226   1.703  -0.329  0.00  0.00    +0.020 A 
ATOM     10  C   UNL     1      -0.023   1.126   0.083  0.00  0.00    +0.013 A 
ATOM     11  C   UNL     1       1.163   1.805  -0.099  0.00  0.00    +0.024 A 
BRANCH   6  12
ATOM     12  N   UNL     1       2.364   3.746  -0.878  0.00  0.00    -0.330 N 
BRANCH  12  14
ATOM     13  C   UNL     1       4.218   2.315  -1.584  0.00  0.00    +0.024 C 
ATOM     14  C   UNL     1       3.625   3.141  -0.440  0.00  0.00    +0.102 C 
ENDBRANCH  12  14
BRANCH  12  15
ATOM     15  C   UNL     1       2.366   5.069  -1.506  0.00  0.00    +0.102 C 
ATOM     16  C   UNL     1       2.212   6.145  -0.429  0.00  0.00    +0.024 C 
ENDBRANCH  12  15
ENDBRANCH   6  12
ENDBRANCH   1   9
BRANCH   5  17
ATOM     17  C   UNL     1      -4.104   2.869  -0.377  0.00  0.00    +0.051 A 
ATOM     18  C   UNL     1      -3.780   3.831   0.571  0.00  0.00    +0.026 A 
ATOM     19  C   UNL     1      -4.111   5.154   0.350  0.00  0.00    +0.002 A 
ATOM     20  C   UNL     1      -4.773   5.519  -0.808  0.00  0.00    +0.000 A 
ATOM     21  C   UNL     1      -5.101   4.562  -1.751  0.00  0.00    +0.002 A 
ATOM     22  C   UNL     1      -4.768   3.239  -1.538  0.00  0.00    +0.026 A 
ENDBRANCH   5  17
BRANCH   4  23
ATOM     23  S   UNL     1      -6.379   0.571   0.146  0.00  0.00    -0.078 S 
BRANCH  23  24
ATOM     24  C   UNL     1      -6.765  -1.166   0.481  0.00  0.00    +0.153 C 
BRANCH  24  25
ATOM     25  C   UNL     1      -8.259  -1.336   0.590  0.00  0.00    +0.146 A 
ATOM     26  N   UNL     1      -8.852  -1.212   1.764  0.00  0.00    -0.199 NA
ATOM     27  C   UNL     1     -10.172  -1.357   1.863  0.00  0.00    +0.217 A 
ATOM     28  N   UNL     1     -10.891  -1.636   0.782  0.00  0.00    -0.181 NA
ATOM     29  C   UNL     1     -10.290  -1.765  -0.396  0.00  0.00    +0.217 A 
ATOM     30  N   UNL     1      -8.971  -1.614  -0.488  0.00  0.00    -0.199 NA
ATOM     31  N   UNL     1     -11.033  -2.056  -1.522  0.00  0.00    -0.327 N 
ATOM     32  N   UNL     1     -10.791  -1.222   3.089  0.00  0.00    -0.327 N 
ATOM     33  H   UNL     1     -10.593  -2.151  -2.382  0.00  0.00    +0.145 HD
ATOM     34  H   UNL     1     -11.994  -2.166  -1.454  0.00  0.00    +0.145 HD
ATOM     35  H   UNL     1     -11.752  -1.331   3.162  0.00  0.00    +0.145 HD
ATOM     36  H   UNL     1     -10.265  -1.017   3.878  0.00  0.00    +0.145 HD
ENDBRANCH  24  25
ENDBRANCH  23  24
ENDBRANCH   4  23
TORSDOF 8
