REMARK  Name = ZINC67274535
REMARK  6 active torsions:
REMARK  status: ('A' for Active; 'I' for Inactive)
REMARK    1  A    between atoms: C_1  and  C_2
REMARK    2  A    between atoms: C_2  and  C_3
REMARK    3  A    between atoms: C_3  and  C_4
REMARK    4  A    between atoms: C_4  and  N_5
REMARK    5  A    between atoms: C_11  and  N_14
REMARK    6  A    between atoms: C_15  and  C_17
REMARK                            x       y       z     vdW  Elec       q    Type
REMARK                         _______ _______ _______ _____ _____    ______ ____
ROOT
ATOM      1  N   UNL     1       2.387  -6.645  -3.786  0.00  0.00    -0.285 N 
ATOM      2  C   UNL     1       3.174  -7.548  -4.403  0.00  0.00    +0.220 C 
ATOM      3  O   UNL     1       3.454  -7.409  -5.575  0.00  0.00    -0.275 OA
ATOM      4  H   UNL     1       2.228  -6.712  -2.832  0.00  0.00    +0.155 HD
ENDROOT
BRANCH   2   5
ATOM      5  C   UNL     1       3.706  -8.732  -3.637  0.00  0.00    +0.075 C 
ATOM      6  C   UNL     1       4.557  -8.240  -2.464  0.00  0.00    +0.015 C 
ATOM      7  C   UNL     1       5.086  -9.443  -1.680  0.00  0.00    +0.036 C 
ATOM      8  C   UNL     1       5.922 -10.326  -2.600  0.00  0.00    +0.112 C 
ATOM      9  C   UNL     1       5.095 -10.804  -3.788  0.00  0.00    +0.036 C 
ATOM     10  C   UNL     1       4.565  -9.595  -4.564  0.00  0.00    +0.015 C 
ATOM     11  C   UNL     1       7.148  -9.581  -3.076  0.00  0.00    +0.244 C 
ATOM     12  O   UNL     1       7.179  -8.563  -3.733  0.00  0.00    -0.273 OA
ATOM     13  N   UNL     1       8.201 -10.288  -2.615  0.00  0.00    -0.238 N 
ATOM     14  C   UNL     1       7.807 -11.364  -1.923  0.00  0.00    +0.307 C 
ATOM     15  O   UNL     1       8.574 -12.155  -1.409  0.00  0.00    -0.252 OA
ATOM     16  N   UNL     1       6.466 -11.471  -1.859  0.00  0.00    -0.285 N 
ATOM     17  H   UNL     1       9.128 -10.047  -2.768  0.00  0.00    +0.159 HD
ATOM     18  H   UNL     1       5.960 -12.167  -1.411  0.00  0.00    +0.151 HD
ENDBRANCH   2   5
BRANCH   1  25
ATOM     19  N   UNL     1       1.407  -2.502  -2.487  0.00  0.00    +0.385 N 
ATOM     20  C   UNL     1       0.576  -2.254  -3.687  0.00  0.00    -0.042 C 
ATOM     21  C   UNL     1       0.858  -3.406  -4.624  0.00  0.00    -0.061 A 
ATOM     22  C   UNL     1       0.636  -3.566  -5.979  0.00  0.00    +0.002 A 
ATOM     23  C   UNL     1       0.994  -4.744  -6.608  0.00  0.00    +0.002 A 
ATOM     24  C   UNL     1       1.575  -5.766  -5.884  0.00  0.00    +0.023 A 
ATOM     25  C   UNL     1       1.799  -5.610  -4.523  0.00  0.00    +0.035 A 
ATOM     26  C   UNL     1       1.439  -4.427  -3.893  0.00  0.00    -0.041 A 
ATOM     27  C   UNL     1       1.556  -3.974  -2.456  0.00  0.00    -0.040 C 
ATOM     28  H   UNL     1       2.308  -2.057  -2.580  0.00  0.00    -0.081 HD
BRANCH  19  29
ATOM     29  C   UNL     1       0.721  -2.027  -1.278  0.00  0.00    -0.078 C 
BRANCH  29  30
ATOM     30  C   UNL     1       0.692  -0.497  -1.275  0.00  0.00    -0.019 C 
BRANCH  30  32
ATOM     31  C   UNL     1      -0.052   1.527  -0.013  0.00  0.00    +0.004 C 
ATOM     32  C   UNL     1      -0.023  -0.003  -0.016  0.00  0.00    -0.005 C 
ENDBRANCH  30  32
ENDBRANCH  29  30
ENDBRANCH  19  29
ENDBRANCH   1  25
TORSDOF 5
