REMARK  Name = ZINC11661700
REMARK  9 active torsions:
REMARK  status: ('A' for Active; 'I' for Inactive)
REMARK    1  A    between atoms: C_1  and  O_2
REMARK    2  A    between atoms: O_2  and  C_3
REMARK    3  A    between atoms: C_8  and  C_9
REMARK    4  A    between atoms: C_10  and  C_11
REMARK    5  A    between atoms: C_11  and  N_60
REMARK    6  A    between atoms: C_17  and  C_19
REMARK    7  A    between atoms: C_19  and  C_20
REMARK    8  A    between atoms: N_22  and  C_23
REMARK    9  A    between atoms: C_23  and  C_24
REMARK                            x       y       z     vdW  Elec       q    Type
REMARK                         _______ _______ _______ _____ _____    ______ ____
ROOT
ATOM      1  C   UNL     1     -10.566   4.150  -2.225  0.00  0.00    -0.058 C 
ATOM      2  C   UNL     1     -11.002   4.457  -3.659  0.00  0.00    +0.085 C 
ATOM      3  N   UNL     1     -10.266   3.614  -4.597  0.00  0.00    -0.318 N 
ATOM      4  C   UNL     1      -9.130   2.990  -4.274  0.00  0.00    +0.200 C 
ATOM      5  O   UNL     1      -8.566   2.336  -5.125  0.00  0.00    -0.278 OA
ATOM      6  C   UNL     1      -8.523   3.062  -2.901  0.00  0.00    +0.028 C 
ATOM      7  H   UNL     1     -10.616   3.504  -5.495  0.00  0.00    +0.149 HD
ATOM      8  N   UNL     1      -9.092   4.211  -2.173  0.00  0.00    +0.391 N 
ATOM      9  H   UNL     1      -8.776   5.081  -2.619  0.00  0.00    -0.080 HD
ENDROOT
BRANCH   8  10
ATOM     10  C   UNL     1      -8.632   4.198  -0.766  0.00  0.00    -0.050 C 
BRANCH  10  12
ATOM     11  C   UNL     1      -9.986   5.045   1.099  0.00  0.00    +0.005 C 
ATOM     12  C   UNL     1      -9.314   5.311  -0.013  0.00  0.00    -0.045 C 
BRANCH  11  18
ATOM     13  C   UNL     1     -11.369   5.858   3.009  0.00  0.00    +0.127 A 
ATOM     14  C   UNL     1     -11.990   6.889   3.696  0.00  0.00    +0.046 A 
ATOM     15  C   UNL     1     -11.911   8.184   3.221  0.00  0.00    +0.004 A 
ATOM     16  C   UNL     1     -11.210   8.462   2.060  0.00  0.00    +0.001 A 
ATOM     17  C   UNL     1     -10.582   7.447   1.367  0.00  0.00    +0.011 A 
ATOM     18  C   UNL     1     -10.655   6.136   1.837  0.00  0.00    +0.016 A 
BRANCH  13  20
ATOM     19  C   UNL     1     -12.196   4.376   4.673  0.00  0.00    +0.277 C 
ATOM     20  O   UNL     1     -11.450   4.584   3.472  0.00  0.00    -0.495 OA
ENDBRANCH  13  20
ENDBRANCH  11  18
ENDBRANCH  10  12
ENDBRANCH   8  10
BRANCH   6  21
ATOM     21  C   UNL     1      -7.010   3.250  -3.024  0.00  0.00    +0.089 C 
BRANCH  21  22
ATOM     22  C   UNL     1      -6.721   4.534  -3.758  0.00  0.00    +0.212 C 
ATOM     23  O   UNL     1      -7.631   5.278  -4.059  0.00  0.00    -0.276 OA
ATOM     24  N   UNL     1      -5.453   4.856  -4.080  0.00  0.00    -0.310 N 
ATOM     25  H   UNL     1      -4.726   4.261  -3.840  0.00  0.00    +0.149 HD
BRANCH  24  26
ATOM     26  C   UNL     1      -5.173   6.104  -4.794  0.00  0.00    +0.157 C 
BRANCH  26  27
ATOM     27  C   UNL     1      -3.689   6.225  -5.031  0.00  0.00    +0.034 A 
ATOM     28  C   UNL     1      -2.834   6.893  -4.240  0.00  0.00    +0.032 A 
ATOM     29  C   UNL     1      -1.502   6.751  -4.833  0.00  0.00    +0.003 A 
ATOM     30  C   UNL     1      -0.232   7.216  -4.486  0.00  0.00    +0.048 A 
ATOM     31  C   UNL     1       0.849   6.903  -5.281  0.00  0.00    +0.124 A 
ATOM     32  C   UNL     1       0.678   6.133  -6.426  0.00  0.00    +0.040 A 
ATOM     33  C   UNL     1      -0.569   5.672  -6.783  0.00  0.00    +0.029 A 
ATOM     34  C   UNL     1      -1.674   5.976  -5.994  0.00  0.00    +0.047 A 
ATOM     35  N   UNL     1      -3.014   5.671  -6.084  0.00  0.00    -0.357 N 
ATOM     36  H   UNL     1      -3.419   5.141  -6.789  0.00  0.00    +0.166 HD
ATOM     37  F   UNL     1       2.080   7.346  -4.947  0.00  0.00    -0.205 F 
ENDBRANCH  26  27
ENDBRANCH  24  26
ENDBRANCH  21  22
ENDBRANCH   6  21
TORSDOF 8
