REMARK  Name = ZINC25036572
REMARK  6 active torsions:
REMARK  status: ('A' for Active; 'I' for Inactive)
REMARK    1  A    between atoms: C_1  and  C_2
REMARK    2  A    between atoms: C_2  and  C_4
REMARK    3  A    between atoms: C_2  and  N_15
REMARK    4  A    between atoms: N_6  and  C_7
REMARK    5  A    between atoms: C_8  and  C_12
REMARK    6  A    between atoms: C_18  and  C_21
REMARK                            x       y       z     vdW  Elec       q    Type
REMARK                         _______ _______ _______ _____ _____    ______ ____
ROOT
ATOM      1  N   UNL     1       2.590  -2.640  -0.036  0.00  0.00    +0.387 N 
ATOM      2  C   UNL     1       3.292  -2.168  -1.236  0.00  0.00    -0.077 C 
ATOM      3  C   UNL     1       4.771  -2.552  -1.148  0.00  0.00    -0.009 C 
ATOM      4  C   UNL     1       4.891  -4.074  -1.028  0.00  0.00    +0.041 C 
ATOM      5  C   UNL     1       4.112  -4.545   0.203  0.00  0.00    -0.009 C 
ATOM      6  C   UNL     1       2.652  -4.103   0.075  0.00  0.00    -0.077 C 
ATOM      7  H   UNL     1       3.102  -2.215   0.840  0.00  0.00    -0.081 HD
ENDROOT
BRANCH   4   8
ATOM      8  C   UNL     1       6.342  -4.455  -0.881  0.00  0.00    +0.082 A 
ATOM      9  N   UNL     1       7.059  -5.221  -1.655  0.00  0.00    -0.244 NA
ATOM     10  C   UNL     1       8.359  -5.485  -1.410  0.00  0.00    +0.080 A 
ATOM     11  C   UNL     1       9.259  -6.287  -2.148  0.00  0.00    +0.049 A 
ATOM     12  C   UNL     1      10.558  -6.437  -1.736  0.00  0.00    +0.043 A 
ATOM     13  C   UNL     1      11.032  -5.812  -0.590  0.00  0.00    +0.021 A 
ATOM     14  C   UNL     1      10.178  -5.020   0.155  0.00  0.00    +0.018 A 
ATOM     15  C   UNL     1       8.875  -4.864  -0.250  0.00  0.00    +0.039 A 
ATOM     16  S   UNL     1       7.462  -3.975   0.355  0.00  0.00    -0.072 S 
ATOM     17 CL   UNL     1      11.634  -7.430  -2.668  0.00  0.00    -0.083 Cl
ENDBRANCH   4   8
BRANCH   1  19
ATOM     18  C   UNL     1       0.473  -2.682  -1.266  0.00  0.00    -0.004 C 
ATOM     19  C   UNL     1       1.199  -2.169  -0.021  0.00  0.00    +0.016 C 
BRANCH  19  20
ATOM     20  C   UNL     1       1.178  -0.662  -0.012  0.00  0.00    +0.204 C 
ATOM     21  O   UNL     1       2.220  -0.041  -0.018  0.00  0.00    -0.277 OA
ATOM     22  N   UNL     1       0.002  -0.004   0.002  0.00  0.00    -0.281 N 
ATOM     23  H   UNL     1      -0.943  -0.567   0.008  0.00  0.00    +0.155 HD
BRANCH  22  24
ATOM     24  C   UNL     1      -0.017   1.382   0.010  0.00  0.00    +0.084 A 
ATOM     25  C   UNL     1      -1.117   2.231   0.019  0.00  0.00    +0.065 A 
ATOM     26  C   UNL     1      -0.845   3.648   0.029  0.00  0.00    +0.022 A 
ATOM     27  C   UNL     1       0.447   4.025   0.019  0.00  0.00    +0.048 A 
ATOM     28  S   UNL     1       1.325   2.476   0.003  0.00  0.00    -0.081 S 
BRANCH  25  29
ATOM     29  C   UNL     1      -2.489   1.712   0.021  0.00  0.00    +0.244 C 
ATOM     30  O   UNL     1      -2.685   0.510   0.015  0.00  0.00    -0.270 OA
ATOM     31  N   UNL     1      -3.532   2.565   0.030  0.00  0.00    -0.325 N 
ATOM     32  H   UNL     1      -4.561   2.175   0.032  0.00  0.00    +0.145 HD
ATOM     33  H   UNL     1      -3.355   3.650   0.035  0.00  0.00    +0.145 HD
ENDBRANCH  25  29
ENDBRANCH  22  24
ENDBRANCH  19  20
ENDBRANCH   1  19
TORSDOF 5
