REMARK  Name = ZINC58960209
REMARK  8 active torsions:
REMARK  status: ('A' for Active; 'I' for Inactive)
REMARK    1  A    between atoms: C_1  and  C_2
REMARK    2  A    between atoms: C_5  and  C_8
REMARK    3  A    between atoms: C_10  and  C_31
REMARK    4  A    between atoms: C_12  and  S_14
REMARK    5  A    between atoms: S_14  and  C_15
REMARK    6  A    between atoms: C_15  and  C_16
REMARK    7  A    between atoms: N_18  and  C_19
REMARK    8  A    between atoms: C_20  and  C_28
REMARK                            x       y       z     vdW  Elec       q    Type
REMARK                         _______ _______ _______ _____ _____    ______ ____
ROOT
ATOM      1  C   UNL     1       0.121  -8.850  -2.264  0.00  0.00    +0.173 C 
ENDROOT
BRANCH   1   2
ATOM      2  C   UNL     1       0.132  -9.697  -3.510  0.00  0.00    +0.228 C 
ATOM      3  O   UNL     1       0.125  -9.170  -4.603  0.00  0.00    -0.275 OA
ATOM      4  N   UNL     1       0.150 -11.041  -3.411  0.00  0.00    -0.279 N 
ATOM      5  H   UNL     1       0.156 -11.463  -2.538  0.00  0.00    +0.155 HD
BRANCH   4   6
ATOM      6  C   UNL     1       0.161 -11.821  -4.558  0.00  0.00    +0.084 A 
ATOM      7  C   UNL     1       0.174 -13.204  -4.648  0.00  0.00    +0.068 A 
ATOM      8  C   UNL     1       0.183 -13.783  -5.980  0.00  0.00    -0.023 A 
ATOM      9  C   UNL     1       0.178 -12.873  -6.978  0.00  0.00    -0.004 A 
ATOM     10  S   UNL     1       0.153 -11.306  -6.157  0.00  0.00    -0.077 S 
ATOM     11  C   UNL     1       0.186 -13.151  -8.449  0.00  0.00    +0.043 C 
ATOM     12  C   UNL     1       0.583 -14.620  -8.660  0.00  0.00    +0.005 C 
ATOM     13  C   UNL     1      -0.248 -15.497  -7.719  0.00  0.00    +0.005 C 
ATOM     14  C   UNL     1       0.197 -15.276  -6.272  0.00  0.00    +0.037 C 
BRANCH   7  15
ATOM     15  C   UNL     1       0.179 -14.047  -3.449  0.00  0.00    +0.244 C 
ATOM     16  O   UNL     1      -0.873 -14.408  -2.954  0.00  0.00    -0.270 OA
ATOM     17  N   UNL     1       1.348 -14.424  -2.894  0.00  0.00    -0.325 N 
ATOM     18  H   UNL     1       2.187 -14.137  -3.289  0.00  0.00    +0.145 HD
ATOM     19  H   UNL     1       1.351 -14.982  -2.101  0.00  0.00    +0.145 HD
ENDBRANCH   7  15
ENDBRANCH   4   6
ENDBRANCH   1   2
BRANCH   1  20
ATOM     20  S   UNL     1       0.097  -7.096  -2.726  0.00  0.00    -0.077 S 
BRANCH  20  25
ATOM     21  C   UNL     1       0.060  -4.255  -0.021  0.00  0.00    +0.076 A 
ATOM     22  C   UNL     1       0.070  -4.971   1.179  0.00  0.00    +0.060 A 
ATOM     23  C   UNL     1       0.088  -6.354   1.122  0.00  0.00    +0.148 A 
ATOM     24  N   UNL     1       0.096  -6.953  -0.058  0.00  0.00    -0.218 NA
ATOM     25  C   UNL     1       0.086  -6.249  -1.181  0.00  0.00    +0.190 A 
ATOM     26  N   UNL     1       0.063  -4.925  -1.172  0.00  0.00    -0.222 NA
BRANCH  21  31
ATOM     27  C   UNL     1      -0.018   1.503   0.010  0.00  0.00    +0.044 C 
ATOM     28  C   UNL     1       0.002  -0.004   0.002  0.00  0.00    -0.050 A 
ATOM     29  C   UNL     1       0.006  -0.686  -1.201  0.00  0.00    +0.004 A 
ATOM     30  C   UNL     1       0.024  -2.066  -1.215  0.00  0.00    +0.010 A 
ATOM     31  C   UNL     1       0.040  -2.772  -0.013  0.00  0.00    +0.001 A 
ATOM     32  C   UNL     1       0.037  -2.079   1.196  0.00  0.00    +0.010 A 
ATOM     33  C   UNL     1       0.023  -0.699   1.198  0.00  0.00    +0.004 A 
ENDBRANCH  21  31
BRANCH  23  34
ATOM     34  C   UNL     1       0.100  -7.168   2.390  0.00  0.00    +0.434 C 
ATOM     35  F   UNL     1      -1.215  -7.437   2.783  0.00  0.00    -0.164 F 
ATOM     36  F   UNL     1       0.775  -8.372   2.164  0.00  0.00    -0.164 F 
ATOM     37  F   UNL     1       0.751  -6.450   3.399  0.00  0.00    -0.164 F 
ENDBRANCH  23  34
ENDBRANCH  20  25
ENDBRANCH   1  20
TORSDOF 7
