REMARK  Name = ZINC56710736
REMARK  9 active torsions:
REMARK  status: ('A' for Active; 'I' for Inactive)
REMARK    1  A    between atoms: C_1  and  C_2
REMARK    2  A    between atoms: C_4  and  O_25
REMARK    3  A    between atoms: C_7  and  N_8
REMARK    4  A    between atoms: N_11  and  C_12
REMARK    5  A    between atoms: C_12  and  C_13
REMARK    6  A    between atoms: C_13  and  C_15
REMARK    7  A    between atoms: C_13  and  N_20
REMARK    8  A    between atoms: O_25  and  C_26
REMARK    9  A    between atoms: C_26  and  C_27
REMARK                            x       y       z     vdW  Elec       q    Type
REMARK                         _______ _______ _______ _____ _____    ______ ____
ROOT
ATOM      1  N   UNL     1       0.314   0.001   2.457  0.00  0.00    -0.269 N 
ATOM      2  C   UNL     1       0.128  -0.681   3.604  0.00  0.00    +0.304 C 
ATOM      3  O   UNL     1       0.090  -1.896   3.590  0.00  0.00    -0.253 OA
ATOM      4  N   UNL     1      -0.016  -0.016   4.768  0.00  0.00    -0.300 N 
ATOM      5  H   UNL     1       0.415   0.966   2.477  0.00  0.00    +0.156 HD
ATOM      6  H   UNL     1       0.014   0.954   4.779  0.00  0.00    +0.150 HD
ENDROOT
BRANCH   1  13
ATOM      7  C   UNL     1      -0.756   1.287   0.156  0.00  0.00    +0.046 C 
ATOM      8  C   UNL     1      -0.150  -0.091   0.087  0.00  0.00    -0.026 A 
ATOM      9  C   UNL     1      -0.099  -0.764  -1.118  0.00  0.00    +0.050 A 
ATOM     10  C   UNL     1       0.459  -2.032  -1.181  0.00  0.00    +0.122 A 
ATOM     11  C   UNL     1       0.964  -2.627  -0.034  0.00  0.00    +0.047 A 
ATOM     12  C   UNL     1       0.912  -1.956   1.172  0.00  0.00    +0.027 A 
ATOM     13  C   UNL     1       0.361  -0.683   1.234  0.00  0.00    +0.038 A 
BRANCH  10  14
ATOM     14  O   UNL     1       0.509  -2.694  -2.368  0.00  0.00    -0.483 OA
BRANCH  14  15
ATOM     15  C   UNL     1       1.097  -3.997  -2.360  0.00  0.00    +0.324 C 
BRANCH  15  16
ATOM     16  C   UNL     1       1.065  -4.571  -3.753  0.00  0.00    +0.248 C 
ATOM     17  O   UNL     1       0.586  -3.927  -4.663  0.00  0.00    -0.272 OA
ATOM     18  N   UNL     1       1.568  -5.799  -3.988  0.00  0.00    -0.327 N 
ATOM     19  H   UNL     1       1.951  -6.313  -3.260  0.00  0.00    +0.145 HD
ATOM     20  H   UNL     1       1.548  -6.168  -4.885  0.00  0.00    +0.145 HD
ENDBRANCH  15  16
ENDBRANCH  14  15
ENDBRANCH  10  14
ENDBRANCH   1  13
BRANCH   4  21
ATOM     21  C   UNL     1      -0.218  -0.757   6.015  0.00  0.00    +0.098 C 
BRANCH  21  22
ATOM     22  C   UNL     1      -0.473   0.227   7.158  0.00  0.00    +0.016 C 
BRANCH  22  23
ATOM     23  N   UNL     1      -0.800  -0.517   8.382  0.00  0.00    +0.387 N 
ATOM     24  C   UNL     1      -1.227   0.420   9.452  0.00  0.00    -0.078 C 
ATOM     25  C   UNL     1      -2.042  -0.485  10.410  0.00  0.00    -0.020 C 
ATOM     26  C   UNL     1      -2.781  -1.437   9.442  0.00  0.00    -0.020 C 
ATOM     27  C   UNL     1      -1.954  -1.410   8.143  0.00  0.00    -0.078 C 
ATOM     28  H   UNL     1      -0.002  -1.054   8.686  0.00  0.00    -0.081 HD
ENDBRANCH  22  23
BRANCH  22  29
ATOM     29  C   UNL     1       0.762   1.059   7.390  0.00  0.00    +0.093 A 
ATOM     30  C   UNL     1       0.959   2.314   6.949  0.00  0.00    +0.043 A 
ATOM     31  C   UNL     1       2.244   2.706   7.392  0.00  0.00    +0.041 A 
ATOM     32  C   UNL     1       2.754   1.667   8.076  0.00  0.00    +0.195 A 
ATOM     33  O   UNL     1       1.850   0.674   8.077  0.00  0.00    -0.469 OA
ENDBRANCH  22  29
ENDBRANCH  21  22
ENDBRANCH   4  21
TORSDOF 8
