REMARK  Name = ZINC44690218
REMARK  14 active torsions:
REMARK  status: ('A' for Active; 'I' for Inactive)
REMARK    1  A    between atoms: C_1  and  C_2
REMARK    2  A    between atoms: C_2  and  C_3
REMARK    3  A    between atoms: C_2  and  C_4
REMARK    4  A    between atoms: C_11  and  C_37
REMARK    5  A    between atoms: C_19  and  C_20
REMARK    6  A    between atoms: C_19  and  C_21
REMARK    7  A    between atoms: N_23  and  C_24
REMARK    8  A    between atoms: C_24  and  C_26
REMARK    9  A    between atoms: C_24  and  C_33
REMARK   10  A    between atoms: C_26  and  C_27
REMARK   11  A    between atoms: C_27  and  C_28
REMARK   12  A    between atoms: C_28  and  N_29
REMARK   13  A    between atoms: C_33  and  O_35
REMARK   14  A    between atoms: O_35  and  C_36
REMARK                            x       y       z     vdW  Elec       q    Type
REMARK                         _______ _______ _______ _____ _____    ______ ____
ROOT
ATOM      1  C   UNL     1      -8.062  -2.057  -1.287  0.00  0.00    +0.220 C 
ATOM      2  O   UNL     1      -7.862  -1.930  -2.476  0.00  0.00    -0.275 OA
ATOM      3  N   UNL     1      -8.807  -1.148  -0.628  0.00  0.00    -0.302 N 
ATOM      4  H   UNL     1      -8.905  -1.208   0.336  0.00  0.00    +0.150 HD
ENDROOT
BRANCH   1  18
ATOM      5  C   UNL     1      -1.213  -1.769  -1.734  0.00  0.00    -0.067 C 
ATOM      6  C   UNL     1      -2.038  -2.583  -2.369  0.00  0.00    +0.003 C 
ATOM      7  C   UNL     1      -3.442  -2.711  -1.918  0.00  0.00    -0.048 C 
ATOM      8  C   UNL     1      -4.322  -3.312  -2.692  0.00  0.00    -0.023 C 
ATOM      9  C   UNL     1      -5.774  -3.439  -2.343  0.00  0.00    +0.032 C 
ATOM     10  C   UNL     1      -5.974  -3.315  -0.830  0.00  0.00    +0.014 C 
ATOM     11  C   UNL     1      -5.268  -2.051  -0.336  0.00  0.00    -0.021 C 
ATOM     12  C   UNL     1      -3.785  -2.139  -0.573  0.00  0.00    +0.025 C 
ATOM     13  C   UNL     1      -3.117  -0.766  -0.455  0.00  0.00    +0.013 C 
ATOM     14  C   UNL     1      -1.599  -0.952  -0.539  0.00  0.00    +0.031 C 
ATOM     15  C   UNL     1      -5.527  -1.863   1.162  0.00  0.00    +0.007 C 
ATOM     16  C   UNL     1      -7.029  -1.752   1.421  0.00  0.00    +0.002 C 
ATOM     17  C   UNL     1      -7.714  -3.038   0.952  0.00  0.00    +0.016 C 
ATOM     18  C   UNL     1      -7.477  -3.232  -0.546  0.00  0.00    +0.048 C 
ATOM     19  C   UNL     1      -8.155  -4.519  -1.022  0.00  0.00    +0.021 C 
ATOM     20  C   UNL     1      -5.808  -0.837  -1.095  0.00  0.00    +0.012 C 
BRANCH   5  22
ATOM     21  C   UNL     1       0.492  -0.212  -2.639  0.00  0.00    +0.012 C 
ATOM     22  C   UNL     1       0.202  -1.660  -2.240  0.00  0.00    +0.009 C 
ATOM     23  C   UNL     1       1.172  -2.089  -1.137  0.00  0.00    +0.012 C 
ENDBRANCH   5  22
ENDBRANCH   1  18
BRANCH   3  24
ATOM     24  C   UNL     1      -9.470  -0.070  -1.366  0.00  0.00    +0.182 C 
BRANCH  24  25
ATOM     25  C   UNL     1     -10.794  -0.562  -1.891  0.00  0.00    +0.327 C 
ATOM     26  O   UNL     1     -11.148  -1.696  -1.671  0.00  0.00    -0.249 OA
BRANCH  25  27
ATOM     27  O   UNL     1     -11.581   0.261  -2.603  0.00  0.00    -0.467 OA
ATOM     28  C   UNL     1     -12.822  -0.272  -3.070  0.00  0.00    +0.280 C 
ENDBRANCH  25  27
ENDBRANCH  24  25
BRANCH  24  29
ATOM     29  C   UNL     1      -9.702   1.120  -0.432  0.00  0.00    +0.035 C 
BRANCH  29  30
ATOM     30  C   UNL     1      -8.353   1.697   0.003  0.00  0.00    +0.023 C 
BRANCH  30  31
ATOM     31  C   UNL     1      -8.584   2.886   0.936  0.00  0.00    +0.115 C 
BRANCH  31  32
ATOM     32  N   UNL     1      -7.293   3.439   1.353  0.00  0.00    -0.358 N 
ATOM     33  C   UNL     1      -7.249   4.516   2.195  0.00  0.00    +0.166 C 
ATOM     34  N   UNL     1      -6.075   5.018   2.573  0.00  0.00    -0.372 N 
ATOM     35  N   UNL     1      -8.381   5.063   2.636  0.00  0.00    -0.372 N 
ATOM     36  H   UNL     1      -6.469   3.041   1.031  0.00  0.00    +0.162 HD
ATOM     37  H   UNL     1      -5.251   4.620   2.252  0.00  0.00    +0.159 HD
ATOM     38  H   UNL     1      -9.236   4.697   2.360  0.00  0.00    +0.159 HD
ATOM     39  H   UNL     1      -8.350   5.827   3.233  0.00  0.00    +0.159 HD
ATOM     40  H   UNL     1      -6.044   5.782   3.170  0.00  0.00    +0.159 HD
ENDBRANCH  31  32
ENDBRANCH  30  31
ENDBRANCH  29  30
ENDBRANCH  24  29
ENDBRANCH   3  24
TORSDOF 9
