REMARK  Name = ZINC39695864
REMARK  6 active torsions:
REMARK  status: ('A' for Active; 'I' for Inactive)
REMARK    1  A    between atoms: C_1  and  C_2
REMARK    2  A    between atoms: C_10  and  C_12
REMARK    3  A    between atoms: C_12  and  C_13
REMARK    4  A    between atoms: C_12  and  N_14
REMARK    5  A    between atoms: C_15  and  C_17
REMARK    6  A    between atoms: C_27  and  C_29
REMARK                            x       y       z     vdW  Elec       q    Type
REMARK                         _______ _______ _______ _____ _____    ______ ____
ROOT
ATOM      1  C   UNL     1       1.878  -8.733   0.984  0.00  0.00    +0.100 C 
ATOM      2  C   UNL     1       0.773  -9.488   0.210  0.00  0.00    +0.121 C 
ATOM      3  N   UNL     1       1.253 -10.888   0.143  0.00  0.00    -0.300 N 
ATOM      4  C   UNL     1       1.864 -11.133   1.471  0.00  0.00    +0.115 C 
ATOM      5  C   UNL     1       2.588  -9.818   1.811  0.00  0.00    -0.004 C 
ATOM      6  C   UNL     1       2.458  -9.516   3.301  0.00  0.00    -0.010 C 
ATOM      7  C   UNL     1       3.222 -10.576   4.100  0.00  0.00    -0.082 C 
ATOM      8  N   UNL     1       4.634 -10.570   3.700  0.00  0.00    +0.379 N 
ATOM      9  C   UNL     1       4.756 -10.953   2.288  0.00  0.00    -0.082 C 
ATOM     10  C   UNL     1       4.058  -9.909   1.412  0.00  0.00    -0.010 C 
ATOM     11  C   UNL     1       1.157 -11.745  -0.893  0.00  0.00    +0.219 C 
ATOM     12  O   UNL     1       1.601 -12.869  -0.793  0.00  0.00    -0.275 OA
ATOM     13  H   UNL     1       5.016  -9.645   3.831  0.00  0.00    -0.086 HD
ATOM     14  H   UNL     1       5.147 -11.226   4.271  0.00  0.00    -0.086 HD
ENDROOT
BRANCH  11  15
ATOM     15  C   UNL     1       0.496 -11.307  -2.175  0.00  0.00    +0.079 C 
ATOM     16  C   UNL     1      -0.958 -10.916  -1.894  0.00  0.00    +0.041 C 
ATOM     17  C   UNL     1      -1.643 -10.548  -3.212  0.00  0.00    +0.160 C 
ATOM     18  O   UNL     1      -1.561 -11.653  -4.115  0.00  0.00    -0.380 OA
ATOM     19  C   UNL     1      -0.225 -12.033  -4.451  0.00  0.00    +0.160 C 
ATOM     20  C   UNL     1       0.517 -12.461  -3.182  0.00  0.00    +0.041 C 
ENDBRANCH  11  15
BRANCH   1  22
ATOM     21  N   UNL     1       1.962  -6.586   2.208  0.00  0.00    -0.305 N 
ATOM     22  C   UNL     1       1.268  -7.697   1.892  0.00  0.00    +0.219 C 
ATOM     23  O   UNL     1       0.152  -7.862   2.338  0.00  0.00    -0.275 OA
ATOM     24  H   UNL     1       2.854  -6.454   1.852  0.00  0.00    +0.149 HD
BRANCH  21  25
ATOM     25  C   UNL     1       1.369  -5.578   3.091  0.00  0.00    +0.136 C 
ATOM     26  C   UNL     1       0.503  -4.624   2.266  0.00  0.00    +0.036 C 
BRANCH  25  36
ATOM     27  C   UNL     1       5.867  -1.506   7.401  0.00  0.00    +0.044 C 
ATOM     28  C   UNL     1       5.342  -2.347   6.266  0.00  0.00    -0.048 A 
ATOM     29  C   UNL     1       6.176  -2.670   5.204  0.00  0.00    +0.005 A 
ATOM     30  C   UNL     1       5.719  -3.431   4.166  0.00  0.00    +0.030 A 
ATOM     31  C   UNL     1       4.400  -3.892   4.168  0.00  0.00    +0.089 A 
ATOM     32  C   UNL     1       3.556  -3.566   5.242  0.00  0.00    +0.067 A 
ATOM     33  C   UNL     1       4.039  -2.795   6.291  0.00  0.00    +0.031 A 
ATOM     34  N   UNL     1       2.338  -4.154   4.963  0.00  0.00    -0.340 N 
ATOM     35  H   UNL     1       1.541  -4.114   5.513  0.00  0.00    +0.167 HD
ATOM     36  C   UNL     1       2.465  -4.799   3.772  0.00  0.00    +0.128 A 
ATOM     37  N   UNL     1       3.671  -4.646   3.306  0.00  0.00    -0.231 NA
ENDBRANCH  25  36
ENDBRANCH  21  25
ENDBRANCH   1  22
TORSDOF 4
