REMARK  Name = ZINC50194355
REMARK  4 active torsions:
REMARK  status: ('A' for Active; 'I' for Inactive)
REMARK    1  A    between atoms: C_1  and  C_2
REMARK    2  A    between atoms: C_8  and  C_11
REMARK    3  A    between atoms: C_11  and  N_19
REMARK    4  A    between atoms: C_15  and  C_18
REMARK                            x       y       z     vdW  Elec       q    Type
REMARK                         _______ _______ _______ _____ _____    ______ ____
ROOT
ATOM      1  C   UNL     1       3.670  -2.629  -0.032  0.00  0.00    -0.008 C 
ATOM      2  C   UNL     1       4.053  -1.936   1.278  0.00  0.00    -0.005 C 
ATOM      3  C   UNL     1       5.551  -1.626   1.272  0.00  0.00    -0.001 C 
ATOM      4  C   UNL     1       6.341  -2.930   1.134  0.00  0.00    +0.003 C 
ATOM      5  C   UNL     1       5.958  -3.622  -0.175  0.00  0.00    -0.015 C 
ATOM      6  C   UNL     1       4.460  -3.932  -0.169  0.00  0.00    -0.002 C 
ATOM      7  C   UNL     1       6.747  -4.926  -0.313  0.00  0.00    +0.007 C 
ENDROOT
BRANCH   1  15
ATOM      8  C   UNL     1      -0.018   1.503   0.010  0.00  0.00    +0.067 C 
ATOM      9  C   UNL     1       0.002  -0.004   0.002  0.00  0.00    +0.059 A 
ATOM     10  C   UNL     1      -1.208  -0.710   0.004  0.00  0.00    +0.028 A 
ATOM     11  C   UNL     1      -1.206  -2.072  -0.004  0.00  0.00    +0.052 A 
ATOM     12  C   UNL     1       0.025  -2.753  -0.013  0.00  0.00    +0.178 A 
ATOM     13  N   UNL     1       0.367  -4.030  -0.022  0.00  0.00    -0.128 NA
ATOM     14  N   UNL     1       1.651  -4.126  -0.029  0.00  0.00    -0.134 NA
ATOM     15  C   UNL     1       2.194  -2.934  -0.026  0.00  0.00    +0.144 A 
ATOM     16  N   UNL     1       1.193  -2.027  -0.016  0.00  0.00    -0.198 N 
ATOM     17  N   UNL     1       1.148  -0.632  -0.012  0.00  0.00    -0.169 NA
ENDBRANCH   1  15
BRANCH   1  18
ATOM     18  N   UNL     1       3.983  -1.745  -1.163  0.00  0.00    +0.387 N 
ATOM     19  H   UNL     1       3.462  -0.886  -1.072  0.00  0.00    -0.089 HD
ATOM     20  H   UNL     1       4.971  -1.541  -1.167  0.00  0.00    -0.089 HD
ATOM     21  H   UNL     1       3.730  -2.202  -2.026  0.00  0.00    -0.089 HD
ENDBRANCH   1  18
TORSDOF 2
