REMARK  Name = ZINC37950738
REMARK  12 active torsions:
REMARK  status: ('A' for Active; 'I' for Inactive)
REMARK    1  A    between atoms: C_1  and  C_2
REMARK    2  A    between atoms: C_2  and  C_3
REMARK    3  A    between atoms: C_3  and  C_4
REMARK    4  A    between atoms: C_3  and  C_11
REMARK    5  A    between atoms: C_3  and  N_14
REMARK    6  A    between atoms: N_14  and  C_15
REMARK    7  A    between atoms: C_15  and  C_16
REMARK    8  A    between atoms: C_16  and  N_17
REMARK    9  A    between atoms: N_17  and  C_18
REMARK   10  A    between atoms: N_17  and  C_20
REMARK   11  A    between atoms: C_18  and  C_19
REMARK   12  A    between atoms: C_20  and  C_21
REMARK                            x       y       z     vdW  Elec       q    Type
REMARK                         _______ _______ _______ _____ _____    ______ ____
ROOT
ATOM      1  C   UNL     1      -0.776  -1.598   0.065  0.00  0.00    +0.121 C 
ENDROOT
BRANCH   1   2
ATOM      2  C   UNL     1      -1.260  -1.270   1.454  0.00  0.00    -0.019 A 
ATOM      3  C   UNL     1      -0.395  -1.371   2.528  0.00  0.00    +0.007 A 
ATOM      4  C   UNL     1      -0.838  -1.069   3.802  0.00  0.00    +0.015 A 
ATOM      5  C   UNL     1      -2.146  -0.666   4.002  0.00  0.00    +0.018 A 
ATOM      6  C   UNL     1      -3.011  -0.566   2.927  0.00  0.00    +0.015 A 
ATOM      7  C   UNL     1      -2.566  -0.863   1.653  0.00  0.00    +0.007 A 
ATOM      8 BR   UNL     1      -2.753  -0.254   5.745  0.00  0.00    -0.050 Br
ENDBRANCH   1   2
BRANCH   1   9
ATOM      9  C   UNL     1      -1.009  -3.061  -0.216  0.00  0.00    +0.235 C 
ATOM     10  O   UNL     1      -0.119  -3.863  -0.029  0.00  0.00    -0.274 OA
ATOM     11  N   UNL     1      -2.206  -3.477  -0.674  0.00  0.00    -0.328 N 
ATOM     12  H   UNL     1      -2.918  -2.835  -0.823  0.00  0.00    +0.145 HD
ATOM     13  H   UNL     1      -2.356  -4.418  -0.854  0.00  0.00    +0.145 HD
ENDBRANCH   1   9
BRANCH   1  15
ATOM     14  C   UNL     1       0.956   0.194   0.244  0.00  0.00    +0.006 C 
ATOM     15  C   UNL     1       0.719  -1.291  -0.041  0.00  0.00    +0.033 C 
ENDBRANCH   1  15
BRANCH   1  16
ATOM     16  N   UNL     1      -1.513  -0.788  -0.915  0.00  0.00    -0.301 NA
ATOM     17  H   UNL     1      -2.508  -0.925  -0.821  0.00  0.00    +0.123 HD
BRANCH  16  18
ATOM     18  C   UNL     1      -1.067  -1.083  -2.283  0.00  0.00    +0.063 C 
BRANCH  18  19
ATOM     19  C   UNL     1      -1.855  -0.222  -3.272  0.00  0.00    -0.064 C 
BRANCH  19  20
ATOM     20  N   UNL     1      -1.409  -0.516  -4.641  0.00  0.00    +0.380 N 
ATOM     21  H   UNL     1      -0.411  -0.389  -4.704  0.00  0.00    -0.082 HD
BRANCH  20  22
ATOM     22  C   UNL     1      -1.748  -1.905  -4.978  0.00  0.00    -0.082 C 
ATOM     23  C   UNL     1      -1.159  -2.256  -6.346  0.00  0.00    -0.017 C 
ENDBRANCH  20  22
BRANCH  20  24
ATOM     24  C   UNL     1      -2.079   0.393  -5.580  0.00  0.00    -0.082 C 
ATOM     25  C   UNL     1      -1.616   1.828  -5.319  0.00  0.00    -0.017 C 
ENDBRANCH  20  24
ENDBRANCH  19  20
ENDBRANCH  18  19
ENDBRANCH  16  18
ENDBRANCH   1  16
TORSDOF 9
