REMARK  Name = ZINC15009332
REMARK  11 active torsions:
REMARK  status: ('A' for Active; 'I' for Inactive)
REMARK    1  A    between atoms: C_1  and  C_2
REMARK    2  A    between atoms: C_6  and  N_9
REMARK    3  A    between atoms: C_7  and  C_8
REMARK    4  A    between atoms: C_10  and  C_12
REMARK    5  A    between atoms: C_12  and  C_31
REMARK    6  A    between atoms: C_13  and  C_14
REMARK    7  A    between atoms: C_18  and  O_29
REMARK    8  A    between atoms: C_19  and  O_20
REMARK    9  A    between atoms: O_20  and  C_21
REMARK   10  A    between atoms: C_21  and  C_22
REMARK   11  A    between atoms: O_29  and  C_30
REMARK                            x       y       z     vdW  Elec       q    Type
REMARK                         _______ _______ _______ _____ _____    ______ ____
ROOT
ATOM      1  C   UNL     1      -3.771   2.062  -0.094  0.00  0.00    +0.022 A 
ATOM      2  C   UNL     1      -3.787   3.465  -0.086  0.00  0.00    +0.012 A 
ATOM      3  C   UNL     1      -4.981   4.139  -0.205  0.00  0.00    +0.004 A 
ATOM      4  C   UNL     1      -6.173   3.440  -0.323  0.00  0.00    +0.049 A 
ATOM      5  C   UNL     1      -6.176   2.055  -0.327  0.00  0.00    +0.162 A 
ATOM      6  C   UNL     1      -4.980   1.355  -0.213  0.00  0.00    +0.169 A 
ENDROOT
BRANCH   1   8
ATOM      7  C   UNL     1      -1.444   1.913   0.695  0.00  0.00    +0.114 C 
ATOM      8  C   UNL     1      -2.504   1.339   0.027  0.00  0.00    +0.035 C 
BRANCH   7  10
ATOM      9  N   UNL     1       0.916   1.835   1.315  0.00  0.00    -0.281 N 
ATOM     10  C   UNL     1      -0.121   1.271   0.666  0.00  0.00    +0.259 C 
ATOM     11  O   UNL     1       0.037   0.233   0.051  0.00  0.00    -0.269 OA
ATOM     12  H   UNL     1       0.810   2.700   1.740  0.00  0.00    +0.155 HD
BRANCH   9  18
ATOM     13  C   UNL     1       5.801   2.021   1.834  0.00  0.00    +0.044 C 
ATOM     14  C   UNL     1       4.530   1.238   1.627  0.00  0.00    -0.046 A 
ATOM     15  C   UNL     1       4.580  -0.138   1.498  0.00  0.00    +0.004 A 
ATOM     16  C   UNL     1       3.416  -0.860   1.308  0.00  0.00    +0.002 A 
ATOM     17  C   UNL     1       2.200  -0.209   1.247  0.00  0.00    +0.023 A 
ATOM     18  C   UNL     1       2.146   1.173   1.376  0.00  0.00    +0.037 A 
ATOM     19  C   UNL     1       3.318   1.896   1.561  0.00  0.00    -0.026 A 
ATOM     20  C   UNL     1       3.265   3.396   1.695  0.00  0.00    +0.046 C 
ENDBRANCH   9  18
ENDBRANCH   7  10
BRANCH   7  21
ATOM     21  C   UNL     1      -1.631   3.134   1.419  0.00  0.00    +0.104 C 
ATOM     22  N   UNL     1      -1.780   4.103   1.994  0.00  0.00    -0.191 NA
ENDBRANCH   7  21
ENDBRANCH   1   8
BRANCH   5  23
ATOM     23  O   UNL     1      -7.351   1.379  -0.442  0.00  0.00    -0.491 OA
ATOM     24  C   UNL     1      -8.541   2.161  -0.555  0.00  0.00    +0.277 C 
ENDBRANCH   5  23
BRANCH   6  25
ATOM     25  O   UNL     1      -4.979  -0.002  -0.216  0.00  0.00    -0.483 OA
BRANCH  25  26
ATOM     26  C   UNL     1      -5.102  -0.654   1.049  0.00  0.00    +0.264 C 
BRANCH  26  27
ATOM     27  C   UNL     1      -5.082  -2.148   0.848  0.00  0.00    -0.010 A 
ATOM     28  C   UNL     1      -6.266  -2.833   0.647  0.00  0.00    +0.008 A 
ATOM     29  C   UNL     1      -6.248  -4.202   0.457  0.00  0.00    +0.020 A 
ATOM     30  C   UNL     1      -5.047  -4.888   0.480  0.00  0.00    +0.041 A 
ATOM     31  C   UNL     1      -3.863  -4.202   0.687  0.00  0.00    +0.020 A 
ATOM     32  C   UNL     1      -3.882  -2.832   0.871  0.00  0.00    +0.008 A 
ATOM     33 CL   UNL     1      -5.025  -6.608   0.248  0.00  0.00    -0.084 Cl
ENDBRANCH  26  27
ENDBRANCH  25  26
ENDBRANCH   6  25
TORSDOF 8
