REMARK  Name = ZINC20434231
REMARK  2 active torsions:
REMARK  status: ('A' for Active; 'I' for Inactive)
REMARK    1  A    between atoms: C_13  and  C_15
REMARK    2  A    between atoms: C_18  and  O_22
REMARK                            x       y       z     vdW  Elec       q    Type
REMARK                         _______ _______ _______ _____ _____    ______ ____
ROOT
ATOM      1  C   UNL     1      -0.886  -8.089   1.030  0.00  0.00    +0.005 A 
ATOM      2  C   UNL     1      -1.434  -8.314   2.286  0.00  0.00    +0.018 A 
ATOM      3  C   UNL     1      -2.099  -7.289   2.927  0.00  0.00    +0.084 A 
ATOM      4  N   UNL     1      -2.215  -6.101   2.364  0.00  0.00    -0.350 N 
ATOM      5  C   UNL     1      -1.712  -5.848   1.166  0.00  0.00    +0.099 A 
ATOM      6  C   UNL     1      -1.029  -6.836   0.462  0.00  0.00    +0.042 A 
ATOM      7  N   UNL     1      -1.863  -4.585   0.608  0.00  0.00    -0.314 N 
ATOM      8  C   UNL     1      -2.611  -3.697   1.508  0.00  0.00    +0.125 C 
ATOM      9  C   UNL     1      -2.912  -2.379   0.787  0.00  0.00    +0.126 C 
ATOM     10  N   UNL     1      -1.648  -1.826   0.277  0.00  0.00    -0.300 N 
ATOM     11  C   UNL     1      -0.780  -2.700  -0.526  0.00  0.00    +0.126 C 
ATOM     12  C   UNL     1      -0.560  -4.007   0.251  0.00  0.00    +0.125 C 
ATOM     13  C   UNL     1      -1.298  -0.550   0.535  0.00  0.00    +0.202 C 
ATOM     14  O   UNL     1      -2.028   0.158   1.195  0.00  0.00    -0.277 OA
ATOM     15  H   UNL     1      -2.741  -5.291   2.892  0.00  0.00    +0.166 HD
ENDROOT
BRANCH  13  16
ATOM     16  C   UNL     1       0.002  -0.004   0.002  0.00  0.00    +0.019 C 
ATOM     17  C   UNL     1       1.169  -0.382   0.939  0.00  0.00    +0.023 C 
ATOM     18  C   UNL     1       2.100   0.848   0.937  0.00  0.00    +0.097 C 
ATOM     19  C   UNL     1       1.417   1.866  -0.001  0.00  0.00    -0.050 C 
ATOM     20  N   UNL     1      -0.018   1.481   0.010  0.00  0.00    +0.388 N 
ATOM     21  H   UNL     1      -0.550   1.846  -0.881  0.00  0.00    -0.085 HD
ATOM     22  H   UNL     1      -0.533   1.836   0.915  0.00  0.00    -0.085 HD
BRANCH  18  23
ATOM     23  O   UNL     1       3.389   0.494   0.431  0.00  0.00    -0.394 OA
ATOM     24  H   UNL     1       4.180   1.255   0.360  0.00  0.00    +0.210 HD
ENDBRANCH  18  23
ENDBRANCH  13  16
TORSDOF 2
