REMARK  Name = ZINC08930229
REMARK  9 active torsions:
REMARK  status: ('A' for Active; 'I' for Inactive)
REMARK    1  A    between atoms: C_1  and  O_2
REMARK    2  A    between atoms: O_2  and  C_3
REMARK    3  A    between atoms: C_6  and  C_9
REMARK    4  A    between atoms: C_9  and  C_28
REMARK    5  A    between atoms: N_12  and  C_16
REMARK    6  A    between atoms: C_16  and  C_17
REMARK    7  A    between atoms: N_19  and  C_20
REMARK    8  A    between atoms: C_31  and  O_34
REMARK    9  A    between atoms: O_34  and  C_35
REMARK                            x       y       z     vdW  Elec       q    Type
REMARK                         _______ _______ _______ _____ _____    ______ ____
ROOT
ATOM      1  C   UNL     1      -1.298   2.102   0.217  0.00  0.00    +0.164 C 
ATOM      2  C   UNL     1      -0.037   1.260   0.202  0.00  0.00    +0.256 C 
ATOM      3  O   UNL     1       0.036   0.051   0.226  0.00  0.00    -0.272 OA
ATOM      4  N   UNL     1       0.985   2.137   0.149  0.00  0.00    -0.215 N 
ATOM      5  C   UNL     1       0.551   3.402   0.134  0.00  0.00    +0.310 C 
ATOM      6  O   UNL     1       1.286   4.369   0.088  0.00  0.00    -0.252 OA
ATOM      7  N   UNL     1      -0.791   3.485   0.175  0.00  0.00    -0.278 N 
ATOM      8  H   UNL     1      -1.323   4.296   0.173  0.00  0.00    +0.152 HD
ENDROOT
BRANCH   1  12
ATOM      9  C   UNL     1      -3.703   1.269  -3.216  0.00  0.00    +0.120 A 
ATOM     10  C   UNL     1      -2.822   0.311  -2.736  0.00  0.00    +0.046 A 
ATOM     11  C   UNL     1      -2.046   0.583  -1.626  0.00  0.00    +0.010 A 
ATOM     12  C   UNL     1      -2.146   1.808  -0.994  0.00  0.00    -0.011 A 
ATOM     13  C   UNL     1      -3.027   2.763  -1.467  0.00  0.00    +0.010 A 
ATOM     14  C   UNL     1      -3.802   2.498  -2.580  0.00  0.00    +0.046 A 
BRANCH   9  16
ATOM     15  C   UNL     1      -5.353   2.037  -4.745  0.00  0.00    +0.277 C 
ATOM     16  O   UNL     1      -4.469   1.004  -4.307  0.00  0.00    -0.495 OA
ENDBRANCH   9  16
ENDBRANCH   1  12
BRANCH   1  17
ATOM     17  C   UNL     1      -2.079   1.864   1.483  0.00  0.00    -0.011 A 
ATOM     18  C   UNL     1      -2.972   0.811   1.556  0.00  0.00    +0.010 A 
ATOM     19  C   UNL     1      -3.685   0.588   2.718  0.00  0.00    +0.046 A 
ATOM     20  C   UNL     1      -3.513   1.428   3.808  0.00  0.00    +0.120 A 
ATOM     21  C   UNL     1      -2.620   2.486   3.731  0.00  0.00    +0.046 A 
ATOM     22  C   UNL     1      -1.905   2.702   2.569  0.00  0.00    +0.010 A 
BRANCH  20  23
ATOM     23  O   UNL     1      -4.218   1.214   4.950  0.00  0.00    -0.495 OA
ATOM     24  C   UNL     1      -5.119   0.105   4.958  0.00  0.00    +0.277 C 
ENDBRANCH  20  23
ENDBRANCH   1  17
BRANCH   4  25
ATOM     25  C   UNL     1       2.398   1.752   0.113  0.00  0.00    +0.214 C 
BRANCH  25  26
ATOM     26  C   UNL     1       2.838   1.587  -1.319  0.00  0.00    +0.235 C 
ATOM     27  O   UNL     1       2.049   1.772  -2.221  0.00  0.00    -0.274 OA
ATOM     28  N   UNL     1       4.109   1.232  -1.597  0.00  0.00    -0.282 N 
ATOM     29  H   UNL     1       4.717   1.004  -0.877  0.00  0.00    +0.155 HD
BRANCH  28  30
ATOM     30  C   UNL     1       4.550   1.194  -2.925  0.00  0.00    +0.070 A 
ATOM     31  C   UNL     1       3.922   1.971  -3.889  0.00  0.00    +0.046 A 
ATOM     32  C   UNL     1       4.363   1.936  -5.199  0.00  0.00    +0.043 A 
ATOM     33  C   UNL     1       5.423   1.119  -5.552  0.00  0.00    +0.023 A 
ATOM     34  C   UNL     1       6.048   0.340  -4.596  0.00  0.00    +0.041 A 
ATOM     35  C   UNL     1       5.614   0.374  -3.283  0.00  0.00    +0.145 A 
ATOM     36  F   UNL     1       6.225  -0.387  -2.348  0.00  0.00    -0.204 F 
ATOM     37 CL   UNL     1       3.583   2.912  -6.403  0.00  0.00    -0.083 Cl
ENDBRANCH  28  30
ENDBRANCH  25  26
ENDBRANCH   4  25
TORSDOF 7
