REMARK  Name = ZINC63111142
REMARK  6 active torsions:
REMARK  status: ('A' for Active; 'I' for Inactive)
REMARK    1  A    between atoms: C_1  and  C_2
REMARK    2  A    between atoms: C_4  and  C_20
REMARK    3  A    between atoms: C_5  and  C_14
REMARK    4  A    between atoms: N_7  and  C_8
REMARK    5  A    between atoms: N_22  and  C_23
REMARK    6  A    between atoms: C_23  and  C_24
REMARK                            x       y       z     vdW  Elec       q    Type
REMARK                         _______ _______ _______ _____ _____    ______ ____
ROOT
ATOM      1  C   UNL     1      -0.407   1.298  -0.127  0.00  0.00    +0.035 C 
ATOM      2  C   UNL     1      -0.105  -0.197  -0.005  0.00  0.00    +0.128 C 
ATOM      3  C   UNL     1       0.674  -0.678  -1.210  0.00  0.00    +0.059 C 
ATOM      4  C   UNL     1       1.867  -1.142  -0.748  0.00  0.00    +0.062 C 
ATOM      5  N   UNL     1       1.954  -1.018   0.611  0.00  0.00    -0.262 N 
ATOM      6  N   UNL     1       0.785  -0.450   1.139  0.00  0.00    -0.246 N 
ATOM      7  H   UNL     1       2.721  -1.289   1.140  0.00  0.00    +0.170 HD
ENDROOT
BRANCH   6   8
ATOM      8  C   UNL     1       0.519  -0.176   2.483  0.00  0.00    +0.048 A 
ATOM      9  C   UNL     1      -0.696   0.388   2.850  0.00  0.00    +0.025 A 
ATOM     10  C   UNL     1      -0.957   0.656   4.179  0.00  0.00    +0.002 A 
ATOM     11  C   UNL     1      -0.010   0.365   5.144  0.00  0.00    +0.000 A 
ATOM     12  C   UNL     1       1.200  -0.196   4.782  0.00  0.00    +0.002 A 
ATOM     13  C   UNL     1       1.465  -0.473   3.455  0.00  0.00    +0.025 A 
ENDBRANCH   6   8
BRANCH   4  14
ATOM     14  C   UNL     1       2.931  -1.705  -1.605  0.00  0.00    -0.002 A 
ATOM     15  C   UNL     1       3.449  -2.974  -1.337  0.00  0.00    +0.010 A 
ATOM     16  C   UNL     1       4.442  -3.494  -2.140  0.00  0.00    +0.001 A 
ATOM     17  C   UNL     1       4.925  -2.762  -3.210  0.00  0.00    +0.000 A 
ATOM     18  C   UNL     1       4.416  -1.504  -3.482  0.00  0.00    +0.001 A 
ATOM     19  C   UNL     1       3.419  -0.974  -2.689  0.00  0.00    +0.010 A 
ENDBRANCH   4  14
BRANCH   3  20
ATOM     20  C   UNL     1       0.245  -0.653  -2.553  0.00  0.00    +0.244 C 
ATOM     21  O   UNL     1       0.973  -1.077  -3.433  0.00  0.00    -0.270 OA
ATOM     22  N   UNL     1      -0.970  -0.158  -2.863  0.00  0.00    -0.309 N 
ATOM     23  H   UNL     1      -1.549   0.180  -2.162  0.00  0.00    +0.149 HD
BRANCH  22  24
ATOM     24  C   UNL     1      -1.415  -0.131  -4.258  0.00  0.00    +0.133 C 
BRANCH  24  25
ATOM     25  C   UNL     1      -2.818   0.474  -4.334  0.00  0.00    +0.120 C 
ATOM     26  C   UNL     1      -3.221   0.678  -5.777  0.00  0.00    +0.009 C 
ATOM     27  C   UNL     1      -3.428   2.006  -5.925  0.00  0.00    -0.003 A 
ATOM     28  C   UNL     1      -3.831   2.828  -7.072  0.00  0.00    +0.029 A 
ATOM     29  C   UNL     1      -3.958   4.165  -6.909  0.00  0.00    +0.042 A 
ATOM     30  C   UNL     1      -3.715   4.784  -5.674  0.00  0.00    +0.022 A 
ATOM     31  C   UNL     1      -3.341   4.095  -4.575  0.00  0.00    +0.027 A 
ATOM     32  C   UNL     1      -3.176   2.683  -4.633  0.00  0.00    +0.043 A 
ATOM     33  N   UNL     1      -2.828   1.807  -3.720  0.00  0.00    -0.376 N 
ATOM     34 CL   UNL     1      -4.435   5.141  -8.264  0.00  0.00    -0.084 Cl
ATOM     35  H   UNL     1      -2.613   2.006  -2.796  0.00  0.00    +0.160 HD
ENDBRANCH  24  25
ENDBRANCH  22  24
ENDBRANCH   3  20
TORSDOF 5
