REMARK  Name = ZINC23259782
REMARK  10 active torsions:
REMARK  status: ('A' for Active; 'I' for Inactive)
REMARK    1  A    between atoms: C_1  and  C_2
REMARK    2  A    between atoms: C_2  and  C_4
REMARK    3  A    between atoms: C_2  and  N_14
REMARK    4  A    between atoms: C_7  and  S_10
REMARK    5  A    between atoms: S_10  and  N_13
REMARK    6  A    between atoms: N_14  and  C_15
REMARK    7  A    between atoms: N_14  and  C_16
REMARK    8  A    between atoms: C_16  and  C_17
REMARK    9  A    between atoms: N_19  and  C_20
REMARK   10  A    between atoms: C_25  and  N_26
REMARK                            x       y       z     vdW  Elec       q    Type
REMARK                         _______ _______ _______ _____ _____    ______ ____
ROOT
ATOM      1  N   UNL     1      -0.436   1.139   0.750  0.00  0.00    +0.388 N 
ATOM      2  C   UNL     1      -1.821   0.732   1.026  0.00  0.00    -0.095 C 
ATOM      3  H   UNL     1      -0.394   2.238   0.784  0.00  0.00    -0.081 HD
ENDROOT
BRANCH   1   5
ATOM      4  C   UNL     1      -0.046   0.992   3.163  0.00  0.00    -0.008 C 
ATOM      5  C   UNL     1       0.479   0.621   1.775  0.00  0.00    -0.041 C 
BRANCH   5   6
ATOM      6  C   UNL     1       1.847   1.222   1.578  0.00  0.00    -0.061 A 
ATOM      7  C   UNL     1       1.977   2.576   1.331  0.00  0.00    +0.004 A 
ATOM      8  C   UNL     1       3.232   3.128   1.155  0.00  0.00    +0.029 A 
ATOM      9  C   UNL     1       4.356   2.326   1.216  0.00  0.00    +0.105 A 
ATOM     10  C   UNL     1       4.225   0.971   1.459  0.00  0.00    +0.029 A 
ATOM     11  C   UNL     1       2.970   0.419   1.640  0.00  0.00    +0.004 A 
BRANCH   9  12
ATOM     12  S   UNL     1       5.955   3.029   0.985  0.00  0.00    +0.056 S 
ATOM     13  O   UNL     1       5.844   4.406   1.315  0.00  0.00    -0.153 OA
ATOM     14  O   UNL     1       6.877   2.162   1.631  0.00  0.00    -0.153 OA
BRANCH  12  15
ATOM     15  N   UNL     1       6.292   2.956  -0.635  0.00  0.00    -0.204 NA
ATOM     16  H   UNL     1       7.286   3.387  -0.822  0.00  0.00    +0.144 HD
ATOM     17  H   UNL     1       5.534   3.526  -1.193  0.00  0.00    +0.144 HD
ENDBRANCH  12  15
ENDBRANCH   9  12
ENDBRANCH   5   6
ENDBRANCH   1   5
BRANCH   1  18
ATOM     18  C   UNL     1      -0.019   0.713  -0.592  0.00  0.00    +0.019 C 
BRANCH  18  19
ATOM     19  C   UNL     1      -0.824   1.455  -1.628  0.00  0.00    +0.201 C 
ATOM     20  O   UNL     1      -1.663   2.260  -1.281  0.00  0.00    -0.278 OA
ATOM     21  N   UNL     1      -0.613   1.224  -2.938  0.00  0.00    -0.285 N 
ATOM     22  H   UNL     1       0.194   0.546  -3.254  0.00  0.00    +0.155 HD
BRANCH  21  23
ATOM     23  C   UNL     1      -1.418   1.848  -3.898  0.00  0.00    +0.060 A 
ATOM     24  C   UNL     1      -1.885   3.137  -3.683  0.00  0.00    +0.045 A 
ATOM     25  C   UNL     1      -2.677   3.753  -4.635  0.00  0.00    +0.043 A 
ATOM     26  C   UNL     1      -3.015   3.083  -5.798  0.00  0.00    +0.022 A 
ATOM     27  C   UNL     1      -2.558   1.797  -6.017  0.00  0.00    +0.031 A 
ATOM     28  C   UNL     1      -1.759   1.174  -5.070  0.00  0.00    +0.088 A 
ATOM     29 CL   UNL     1      -3.254   5.368  -4.367  0.00  0.00    -0.083 Cl
BRANCH  28  30
ATOM     30  N   UNL     1      -1.296  -0.132  -5.290  0.00  0.00    -0.218 N 
ATOM     31  C   UNL     1      -1.458  -0.869  -6.406  0.00  0.00    +0.225 A 
ATOM     32  N   UNL     1      -0.877  -2.026  -6.215  0.00  0.00    -0.222 NA
ATOM     33  C   UNL     1      -0.345  -2.069  -4.994  0.00  0.00    +0.245 A 
ATOM     34  N   UNL     1      -0.575  -0.933  -4.389  0.00  0.00    -0.153 NA
ENDBRANCH  28  30
ENDBRANCH  21  23
ENDBRANCH  18  19
ENDBRANCH   1  18
TORSDOF 8
