REMARK  Name = ZINC10066126
REMARK  10 active torsions:
REMARK  status: ('A' for Active; 'I' for Inactive)
REMARK    1  A    between atoms: C_1  and  C_2
REMARK    2  A    between atoms: C_7  and  C_8
REMARK    3  A    between atoms: N_12  and  C_13
REMARK    4  A    between atoms: C_13  and  C_14
REMARK    5  A    between atoms: C_14  and  N_66
REMARK    6  A    between atoms: C_15  and  N_66
REMARK    7  A    between atoms: C_16  and  N_66
REMARK    8  A    between atoms: C_17  and  C_19
REMARK    9  A    between atoms: C_22  and  S_25
REMARK   10  A    between atoms: S_25  and  N_28
REMARK                            x       y       z     vdW  Elec       q    Type
REMARK                         _______ _______ _______ _____ _____    ______ ____
ROOT
ATOM      1  C   UNL     1      -0.850  -1.936   2.133  0.00  0.00    +0.044 C 
ATOM      2  C   UNL     1       0.427  -1.177   1.881  0.00  0.00    -0.045 A 
ATOM      3  C   UNL     1       0.481   0.176   2.184  0.00  0.00    +0.005 A 
ATOM      4  C   UNL     1       1.652   0.875   1.954  0.00  0.00    +0.017 A 
ATOM      5  C   UNL     1       2.740   0.221   1.431  0.00  0.00    +0.041 A 
ATOM      6  C   UNL     1       2.720  -1.155   1.109  0.00  0.00    +0.083 A 
ATOM      7  C   UNL     1       1.507  -1.837   1.358  0.00  0.00    -0.021 A 
ATOM      8  C   UNL     1       1.401  -3.308   1.044  0.00  0.00    +0.046 C 
ATOM      9  N   UNL     1       3.869  -1.654   0.603  0.00  0.00    -0.224 NA
ATOM     10  C   UNL     1       4.938  -0.915   0.417  0.00  0.00    +0.168 A 
ATOM     11  S   UNL     1       4.394   0.691   0.983  0.00  0.00    -0.052 S 
ATOM     12  N   UNL     1       6.172  -1.285  -0.088  0.00  0.00    -0.248 N 
ATOM     13  C   UNL     1       6.391  -2.560  -0.466  0.00  0.00    +0.252 C 
ATOM     14  O   UNL     1       5.480  -3.364  -0.448  0.00  0.00    -0.270 OA
ENDROOT
BRANCH  13  15
ATOM     15  C   UNL     1       7.739  -2.980  -0.901  0.00  0.00    +0.037 A 
ATOM     16  C   UNL     1       8.860  -2.639  -0.142  0.00  0.00    +0.015 A 
ATOM     17  C   UNL     1      10.115  -3.040  -0.551  0.00  0.00    +0.029 A 
ATOM     18  C   UNL     1      10.265  -3.769  -1.717  0.00  0.00    +0.106 A 
ATOM     19  C   UNL     1       9.160  -4.106  -2.478  0.00  0.00    +0.029 A 
ATOM     20  C   UNL     1       7.899  -3.716  -2.077  0.00  0.00    +0.015 A 
BRANCH  18  21
ATOM     21  S   UNL     1      11.873  -4.270  -2.237  0.00  0.00    +0.061 S 
ATOM     22  O   UNL     1      12.685  -4.301  -1.071  0.00  0.00    -0.153 OA
ATOM     23  O   UNL     1      11.694  -5.407  -3.071  0.00  0.00    -0.153 OA
BRANCH  21  24
ATOM     24  N   UNL     1      12.474  -3.066  -3.201  0.00  0.00    -0.177 NA
ATOM     25  C   UNL     1      12.248  -3.085  -4.652  0.00  0.00    +0.109 C 
ATOM     26  C   UNL     1      11.625  -1.744  -5.068  0.00  0.00    +0.017 C 
ATOM     27  C   UNL     1      12.523  -0.601  -4.588  0.00  0.00    +0.003 C 
ATOM     28  C   UNL     1      12.620  -0.634  -3.061  0.00  0.00    +0.017 C 
ATOM     29  C   UNL     1      13.249  -1.960  -2.622  0.00  0.00    +0.109 C 
ENDBRANCH  21  24
ENDBRANCH  18  21
ENDBRANCH  13  15
BRANCH  12  30
ATOM     30  C   UNL     1       7.241  -0.290  -0.213  0.00  0.00    +0.097 C 
BRANCH  30  31
ATOM     31  C   UNL     1       7.818   0.015   1.171  0.00  0.00    -0.060 C 
BRANCH  31  34
ATOM     32  C   UNL     1       8.546   2.234   0.534  0.00  0.00    -0.097 C 
ATOM     33  C   UNL     1       9.691   1.047   2.307  0.00  0.00    -0.097 C 
ATOM     34  N   UNL     1       8.985   0.907   1.015  0.00  0.00    +0.377 N 
ATOM     35  H   UNL     1       9.628   0.499   0.326  0.00  0.00    -0.083 HD
ENDBRANCH  31  34
ENDBRANCH  30  31
ENDBRANCH  12  30
TORSDOF 6
