REMARK  Name = ZINC43034898
REMARK  11 active torsions:
REMARK  status: ('A' for Active; 'I' for Inactive)
REMARK    1  A    between atoms: C_1  and  C_2
REMARK    2  A    between atoms: C_2  and  C_3
REMARK    3  A    between atoms: C_2  and  C_4
REMARK    4  A    between atoms: N_6  and  C_7
REMARK    5  A    between atoms: C_11  and  C_13
REMARK    6  A    between atoms: C_13  and  N_14
REMARK    7  A    between atoms: N_17  and  C_18
REMARK    8  A    between atoms: C_18  and  C_19
REMARK    9  A    between atoms: C_19  and  C_20
REMARK   10  A    between atoms: C_20  and  N_21
REMARK   11  A    between atoms: N_21  and  C_22
REMARK                            x       y       z     vdW  Elec       q    Type
REMARK                         _______ _______ _______ _____ _____    ______ ____
ROOT
ATOM      1  N   UNL     1       5.967   0.999  -5.121  0.00  0.00    -0.295 N 
ATOM      2  C   UNL     1       7.159   1.509  -5.488  0.00  0.00    +0.300 C 
ATOM      3  O   UNL     1       8.182   0.895  -5.251  0.00  0.00    -0.253 OA
ATOM      4  N   UNL     1       7.218   2.699  -6.118  0.00  0.00    -0.299 N 
ATOM      5  H   UNL     1       5.151   1.489  -5.310  0.00  0.00    +0.151 HD
ATOM      6  H   UNL     1       6.402   3.189  -6.307  0.00  0.00    +0.150 HD
ENDROOT
BRANCH   1   7
ATOM      7  C   UNL     1       5.903  -0.294  -4.436  0.00  0.00    +0.141 C 
BRANCH   7  12
ATOM      8  C   UNL     1       2.571  -0.548  -2.670  0.00  0.00    +0.034 A 
ATOM      9  C   UNL     1       1.824  -1.264  -3.596  0.00  0.00    +0.023 A 
ATOM     10  C   UNL     1       2.399  -1.660  -4.787  0.00  0.00    +0.002 A 
ATOM     11  C   UNL     1       3.719  -1.345  -5.058  0.00  0.00    +0.005 A 
ATOM     12  C   UNL     1       4.465  -0.634  -4.137  0.00  0.00    -0.029 A 
ATOM     13  C   UNL     1       3.894  -0.229  -2.947  0.00  0.00    +0.028 A 
BRANCH   8  16
ATOM     14  C   UNL     1       2.335   1.034  -0.909  0.00  0.00    +0.220 C 
ATOM     15  O   UNL     1       3.208   1.709  -1.414  0.00  0.00    -0.275 OA
ATOM     16  N   UNL     1       1.991  -0.146  -1.462  0.00  0.00    -0.285 N 
ATOM     17  H   UNL     1       1.341  -0.716  -1.022  0.00  0.00    +0.155 HD
BRANCH  14  19
ATOM     18  C   UNL     1       1.848   0.504   1.464  0.00  0.00    +0.017 C 
ATOM     19  C   UNL     1       1.636   1.516   0.336  0.00  0.00    +0.069 C 
ATOM     20  C   UNL     1       2.211   2.872   0.752  0.00  0.00    +0.017 C 
ENDBRANCH  14  19
ENDBRANCH   8  16
ENDBRANCH   7  12
ENDBRANCH   1   7
BRANCH   4  21
ATOM     21  C   UNL     1       8.514   3.253  -6.518  0.00  0.00    +0.104 C 
BRANCH  21  22
ATOM     22  C   UNL     1       8.301   4.602  -7.208  0.00  0.00    -0.000 C 
BRANCH  22  23
ATOM     23  C   UNL     1       9.655   5.181  -7.625  0.00  0.00    -0.081 C 
BRANCH  23  24
ATOM     24  N   UNL     1       9.450   6.475  -8.288  0.00  0.00    +0.381 N 
ATOM     25  H   UNL     1       8.873   6.347  -9.106  0.00  0.00    -0.086 HD
ATOM     26  H   UNL     1       8.994   7.111  -7.651  0.00  0.00    -0.086 HD
BRANCH  24  27
ATOM     27  C   UNL     1      10.750   7.031  -8.689  0.00  0.00    -0.072 C 
ATOM     28  C   UNL     1      11.578   7.342  -7.441  0.00  0.00    -0.016 C 
ATOM     29  C   UNL     1      12.931   7.921  -7.858  0.00  0.00    -0.002 C 
ATOM     30  C   UNL     1      12.712   9.206  -8.657  0.00  0.00    -0.000 C 
ATOM     31  C   UNL     1      11.883   8.896  -9.905  0.00  0.00    -0.002 C 
ATOM     32  C   UNL     1      10.530   8.317  -9.488  0.00  0.00    -0.016 C 
ENDBRANCH  24  27
ENDBRANCH  23  24
ENDBRANCH  22  23
ENDBRANCH  21  22
ENDBRANCH   4  21
TORSDOF 9
