REMARK  Name = ZINC22216470
REMARK  10 active torsions:
REMARK  status: ('A' for Active; 'I' for Inactive)
REMARK    1  A    between atoms: C_1  and  C_2
REMARK    2  A    between atoms: C_5  and  N_12
REMARK    3  A    between atoms: C_7  and  S_8
REMARK    4  A    between atoms: S_8  and  N_11
REMARK    5  A    between atoms: C_13  and  C_15
REMARK    6  A    between atoms: C_15  and  S_16
REMARK    7  A    between atoms: S_16  and  C_17
REMARK    8  A    between atoms: C_19  and  C_29
REMARK    9  A    between atoms: C_20  and  C_28
REMARK   10  A    between atoms: N_21  and  C_22
REMARK                            x       y       z     vdW  Elec       q    Type
REMARK                         _______ _______ _______ _____ _____    ______ ____
ROOT
ATOM      1  N   UNL     1       0.059  -4.170  -0.021  0.00  0.00    -0.285 N 
ATOM      2  C   UNL     1      -0.040  -4.839  -1.187  0.00  0.00    +0.227 C 
ATOM      3  O   UNL     1      -0.054  -4.230  -2.236  0.00  0.00    -0.275 OA
ATOM      4  H   UNL     1       0.147  -4.658   0.812  0.00  0.00    +0.155 HD
ENDROOT
BRANCH   1   9
ATOM      5  C   UNL     1      -0.041   1.502   0.014  0.00  0.00    +0.046 C 
ATOM      6  C   UNL     1      -0.015  -0.004   0.004  0.00  0.00    -0.024 A 
ATOM      7  C   UNL     1      -0.752  -0.702  -0.935  0.00  0.00    +0.007 A 
ATOM      8  C   UNL     1      -0.730  -2.082  -0.946  0.00  0.00    +0.023 A 
ATOM      9  C   UNL     1       0.034  -2.771  -0.013  0.00  0.00    +0.035 A 
ATOM     10  C   UNL     1       0.773  -2.068   0.929  0.00  0.00    +0.052 A 
ATOM     11  C   UNL     1       0.751  -0.686   0.932  0.00  0.00    +0.110 A 
BRANCH  11  12
ATOM     12  S   UNL     1       1.694   0.207   2.122  0.00  0.00    +0.056 S 
ATOM     13  O   UNL     1       0.818   1.167   2.697  0.00  0.00    -0.153 OA
ATOM     14  O   UNL     1       2.382  -0.760   2.904  0.00  0.00    -0.153 OA
BRANCH  12  15
ATOM     15  N   UNL     1       2.849   1.056   1.294  0.00  0.00    -0.204 NA
ATOM     16  H   UNL     1       3.174   1.901   1.644  0.00  0.00    +0.144 HD
ATOM     17  H   UNL     1       3.201   0.710   0.460  0.00  0.00    +0.144 HD
ENDBRANCH  12  15
ENDBRANCH  11  12
ENDBRANCH   1   9
BRANCH   2  18
ATOM     18  C   UNL     1      -0.134  -6.343  -1.187  0.00  0.00    +0.173 C 
BRANCH  18  19
ATOM     19  S   UNL     1      -0.255  -6.941  -2.895  0.00  0.00    -0.080 S 
BRANCH  19  20
ATOM     20  C   UNL     1      -0.356  -8.692  -2.728  0.00  0.00    +0.148 A 
ATOM     21  N   UNL     1      -0.347  -9.357  -1.596  0.00  0.00    -0.338 N 
ATOM     22  C   UNL     1      -0.440 -10.672  -1.853  0.00  0.00    +0.034 A 
ATOM     23  C   UNL     1      -0.509 -10.839  -3.185  0.00  0.00    +0.037 A 
ATOM     24  N   UNL     1      -0.462  -9.585  -3.750  0.00  0.00    -0.321 N 
ATOM     25  C   UNL     1      -0.622 -12.150  -3.919  0.00  0.00    +0.065 C 
ATOM     26  C   UNL     1      -0.463 -11.773  -0.824  0.00  0.00    +0.065 C 
ATOM     27  H   UNL     1      -0.284  -8.960  -0.713  0.00  0.00    +0.168 HD
BRANCH  24  28
ATOM     28  C   UNL     1      -0.512  -9.271  -5.180  0.00  0.00    +0.089 C 
ATOM     29  C   UNL     1       0.767  -8.537  -5.586  0.00  0.00    +0.025 C 
ATOM     30  C   UNL     1       0.715  -8.209  -7.080  0.00  0.00    +0.002 C 
ATOM     31  C   UNL     1      -0.496  -7.318  -7.364  0.00  0.00    +0.000 C 
ATOM     32  C   UNL     1      -1.776  -8.052  -6.957  0.00  0.00    +0.002 C 
ATOM     33  C   UNL     1      -1.723  -8.380  -5.464  0.00  0.00    +0.025 C 
ENDBRANCH  24  28
ENDBRANCH  19  20
ENDBRANCH  18  19
ENDBRANCH   2  18
TORSDOF 7
