REMARK  Name = ZINC12090184
REMARK  12 active torsions:
REMARK  status: ('A' for Active; 'I' for Inactive)
REMARK    1  A    between atoms: C_1  and  O_2
REMARK    2  A    between atoms: O_2  and  C_3
REMARK    3  A    between atoms: C_3  and  C_4
REMARK    4  A    between atoms: C_4  and  N_69
REMARK    5  A    between atoms: C_5  and  C_6
REMARK    6  A    between atoms: C_5  and  N_69
REMARK    7  A    between atoms: C_7  and  C_8
REMARK    8  A    between atoms: C_11  and  O_14
REMARK    9  A    between atoms: O_14  and  C_15
REMARK   10  A    between atoms: C_16  and  C_17
REMARK   11  A    between atoms: C_16  and  N_69
REMARK   12  A    between atoms: C_23  and  N_71
REMARK                            x       y       z     vdW  Elec       q    Type
REMARK                         _______ _______ _______ _____ _____    ______ ____
ROOT
ATOM      1  C   UNL     1      -4.331   0.608  -0.139  0.00  0.00    -0.077 C 
ENDROOT
BRANCH   1   2
ATOM      2  C   UNL     1      -3.163   1.547  -0.446  0.00  0.00    -0.044 C 
ATOM      3  C   UNL     1      -2.131   1.466   0.682  0.00  0.00    -0.002 C 
ATOM      4  C   UNL     1      -0.939   2.363   0.338  0.00  0.00    -0.018 C 
ATOM      5  C   UNL     1      -0.346   1.924  -1.003  0.00  0.00    -0.078 C 
ATOM      6  C   UNL     1      -2.506   1.132  -1.764  0.00  0.00    -0.077 C 
ATOM      7  N   UNL     1      -1.383   2.049  -2.050  0.00  0.00    +0.382 N 
ATOM      8  H   UNL     1      -1.734   3.014  -2.057  0.00  0.00    -0.081 HD
BRANCH   7   9
ATOM      9  C   UNL     1      -0.803   1.740  -3.373  0.00  0.00    -0.060 C 
ATOM     10  C   UNL     1       0.162   2.864  -3.806  0.00  0.00    +0.020 C 
ATOM     11  C   UNL     1      -0.030   2.991  -5.305  0.00  0.00    -0.046 A 
ATOM     12  C   UNL     1       0.769   3.595  -6.262  0.00  0.00    +0.004 A 
ATOM     13  C   UNL     1       0.390   3.585  -7.590  0.00  0.00    +0.000 A 
ATOM     14  C   UNL     1      -0.790   2.970  -7.966  0.00  0.00    +0.000 A 
ATOM     15  C   UNL     1      -1.587   2.367  -7.014  0.00  0.00    +0.004 A 
ATOM     16  C   UNL     1      -1.209   2.376  -5.681  0.00  0.00    -0.046 A 
ATOM     17  C   UNL     1      -1.895   1.796  -4.463  0.00  0.00    +0.020 C 
ENDBRANCH   7   9
ENDBRANCH   1   2
BRANCH   1  18
ATOM     18  N   UNL     1      -5.016   1.081   1.083  0.00  0.00    +0.384 N 
ATOM     19  H   UNL     1      -4.319   1.212   1.826  0.00  0.00    -0.081 HD
BRANCH  18  20
ATOM     20  C   UNL     1      -5.683   2.373   0.819  0.00  0.00    -0.050 C 
BRANCH  20  21
ATOM     21  C   UNL     1      -6.584   2.270  -0.414  0.00  0.00    +0.141 C 
BRANCH  21  23
ATOM     22  C   UNL     1      -8.587   1.231  -1.223  0.00  0.00    +0.193 C 
ATOM     23  O   UNL     1      -7.680   1.398  -0.131  0.00  0.00    -0.385 OA
ENDBRANCH  21  23
ENDBRANCH  20  21
ENDBRANCH  18  20
BRANCH  18  24
ATOM     24  C   UNL     1      -6.009   0.081   1.526  0.00  0.00    -0.051 C 
BRANCH  24  25
ATOM     25  C   UNL     1      -6.629   0.547   2.818  0.00  0.00    -0.045 C 
ATOM     26  C   UNL     1      -7.947   0.650   2.921  0.00  0.00    +0.002 C 
BRANCH  26  27
ATOM     27  C   UNL     1      -8.555   1.107   4.188  0.00  0.00    -0.025 A 
ATOM     28  C   UNL     1      -7.745   1.425   5.279  0.00  0.00    +0.011 A 
ATOM     29  C   UNL     1      -8.315   1.856   6.457  0.00  0.00    +0.046 A 
ATOM     30  C   UNL     1      -9.696   1.963   6.564  0.00  0.00    +0.120 A 
ATOM     31  C   UNL     1     -10.506   1.642   5.482  0.00  0.00    +0.046 A 
ATOM     32  C   UNL     1      -9.942   1.216   4.299  0.00  0.00    +0.011 A 
BRANCH  30  33
ATOM     33  O   UNL     1     -10.255   2.383   7.728  0.00  0.00    -0.495 OA
ATOM     34  C   UNL     1      -9.363   2.696   8.800  0.00  0.00    +0.277 C 
ENDBRANCH  30  33
ENDBRANCH  26  27
ENDBRANCH  24  25
ENDBRANCH  18  24
ENDBRANCH   1  18
TORSDOF 10
