REMARK  Name = ZINC38669791
REMARK  10 active torsions:
REMARK  status: ('A' for Active; 'I' for Inactive)
REMARK    1  A    between atoms: C_1  and  O_2
REMARK    2  A    between atoms: O_2  and  C_3
REMARK    3  A    between atoms: C_9  and  C_32
REMARK    4  A    between atoms: C_11  and  N_13
REMARK    5  A    between atoms: C_14  and  C_16
REMARK    6  A    between atoms: C_16  and  N_17
REMARK    7  A    between atoms: C_20  and  C_23
REMARK    8  A    between atoms: C_20  and  N_26
REMARK    9  A    between atoms: C_32  and  O_34
REMARK   10  A    between atoms: O_34  and  C_35
REMARK                            x       y       z     vdW  Elec       q    Type
REMARK                         _______ _______ _______ _____ _____    ______ ____
ROOT
ATOM      1  N   UNL     1       0.783  -3.077   0.086  0.00  0.00    -0.285 N 
ATOM      2  C   UNL     1       0.373  -2.301  -0.937  0.00  0.00    +0.231 C 
ATOM      3  O   UNL     1       0.556  -1.103  -0.900  0.00  0.00    -0.274 OA
ATOM      4  H   UNL     1       0.691  -4.041   0.030  0.00  0.00    +0.155 HD
ENDROOT
BRANCH   1  12
ATOM      5  C   UNL     1       1.651  -4.546   2.787  0.00  0.00    +0.131 A 
ATOM      6  C   UNL     1       2.107  -4.875   4.032  0.00  0.00    +0.046 A 
ATOM      7  C   UNL     1       2.615  -3.910   4.898  0.00  0.00    +0.006 A 
ATOM      8  C   UNL     1       2.690  -2.597   4.568  0.00  0.00    +0.026 A 
ATOM      9  C   UNL     1       2.245  -2.148   3.301  0.00  0.00    +0.048 A 
ATOM     10  N   UNL     1       2.216  -0.946   2.759  0.00  0.00    -0.367 N 
ATOM     11  C   UNL     1       1.649  -1.044   1.410  0.00  0.00    +0.234 C 
ATOM     12  C   UNL     1       1.329  -2.508   1.197  0.00  0.00    +0.056 C 
ATOM     13  C   UNL     1       1.707  -3.147   2.360  0.00  0.00    +0.059 A 
ATOM     14  H   UNL     1       2.519  -0.129   3.184  0.00  0.00    +0.161 HD
BRANCH   5  16
ATOM     15  C   UNL     1       1.142  -6.842   2.454  0.00  0.00    +0.277 C 
ATOM     16  O   UNL     1       1.161  -5.501   1.959  0.00  0.00    -0.494 OA
ENDBRANCH   5  16
BRANCH  11  17
ATOM     17  C   UNL     1       2.655  -0.579   0.389  0.00  0.00    +0.335 C 
ATOM     18  O   UNL     1       3.822  -0.864   0.518  0.00  0.00    -0.248 OA
BRANCH  17  19
ATOM     19  O   UNL     1       2.255   0.153  -0.663  0.00  0.00    -0.466 OA
ATOM     20  C   UNL     1       3.262   0.560  -1.591  0.00  0.00    +0.280 C 
ENDBRANCH  17  19
ENDBRANCH  11  17
ENDBRANCH   1  12
BRANCH   2  21
ATOM     21  C   UNL     1      -0.315  -2.922  -2.125  0.00  0.00    +0.180 C 
BRANCH  21  22
ATOM     22  N   UNL     1      -0.661  -1.873  -3.094  0.00  0.00    -0.294 NA
ATOM     23  C   UNL     1      -1.667  -0.957  -2.541  0.00  0.00    +0.084 C 
ATOM     24  C   UNL     1      -1.895   0.201  -3.515  0.00  0.00    +0.013 C 
ATOM     25  C   UNL     1      -2.369  -0.356  -4.860  0.00  0.00    +0.015 C 
ATOM     26  C   UNL     1      -1.326  -1.344  -5.391  0.00  0.00    +0.013 C 
ATOM     27  C   UNL     1      -1.115  -2.457  -4.362  0.00  0.00    +0.084 C 
BRANCH  25  28
ATOM     28  N   UNL     1      -2.534   0.746  -5.818  0.00  0.00    +0.389 N 
ATOM     29  C   UNL     1      -3.548   1.680  -5.316  0.00  0.00    -0.077 C 
ATOM     30  C   UNL     1      -3.666   2.872  -6.269  0.00  0.00    -0.019 C 
ATOM     31  C   UNL     1      -4.074   2.369  -7.657  0.00  0.00    -0.004 C 
ATOM     32  C   UNL     1      -3.048   1.340  -8.139  0.00  0.00    -0.019 C 
ATOM     33  C   UNL     1      -2.953   0.205  -7.116  0.00  0.00    -0.077 C 
ATOM     34  H   UNL     1      -1.656   1.231  -5.925  0.00  0.00    -0.080 HD
ENDBRANCH  25  28
BRANCH  25  35
ATOM     35  C   UNL     1      -3.686  -1.065  -4.675  0.00  0.00    +0.200 C 
ATOM     36  O   UNL     1      -4.325  -0.901  -3.658  0.00  0.00    -0.278 OA
ATOM     37  N   UNL     1      -4.153  -1.882  -5.641  0.00  0.00    -0.330 N 
ATOM     38  H   UNL     1      -3.607  -2.076  -6.418  0.00  0.00    +0.145 HD
ATOM     39  H   UNL     1      -5.036  -2.275  -5.558  0.00  0.00    +0.145 HD
ENDBRANCH  25  35
ENDBRANCH  21  22
ENDBRANCH   2  21
TORSDOF 8
