REMARK  Name = ZINC56011182
REMARK  11 active torsions:
REMARK  status: ('A' for Active; 'I' for Inactive)
REMARK    1  A    between atoms: C_1  and  C_2
REMARK    2  A    between atoms: C_5  and  C_29
REMARK    3  A    between atoms: N_8  and  C_10
REMARK    4  A    between atoms: C_10  and  C_11
REMARK    5  A    between atoms: C_16  and  C_17
REMARK    6  A    between atoms: C_17  and  N_18
REMARK    7  A    between atoms: C_19  and  C_21
REMARK    8  A    between atoms: C_21  and  C_22
REMARK    9  A    between atoms: C_21  and  C_23
REMARK   10  A    between atoms: C_21  and  N_24
REMARK   11  A    between atoms: N_27  and  C_28
REMARK                            x       y       z     vdW  Elec       q    Type
REMARK                         _______ _______ _______ _____ _____    ______ ____
ROOT
ATOM      1  C   UNL     1       2.363   0.068   3.841  0.00  0.00    -0.059 A 
ATOM      2  C   UNL     1       2.950   1.202   4.373  0.00  0.00    +0.002 A 
ATOM      3  C   UNL     1       2.326   1.888   5.397  0.00  0.00    +0.000 A 
ATOM      4  C   UNL     1       1.114   1.441   5.891  0.00  0.00    +0.000 A 
ATOM      5  C   UNL     1       0.526   0.309   5.359  0.00  0.00    +0.005 A 
ATOM      6  C   UNL     1       1.149  -0.375   4.331  0.00  0.00    -0.029 A 
ENDROOT
BRANCH   1   7
ATOM      7  C   UNL     1       3.043  -0.680   2.724  0.00  0.00    -0.043 C 
BRANCH   7  13
ATOM      8  C   UNL     1       5.749   2.541   2.397  0.00  0.00    +0.005 C 
ATOM      9  C   UNL     1       4.910   2.180   1.169  0.00  0.00    -0.031 C 
ATOM     10  C   UNL     1       5.768   1.385   0.180  0.00  0.00    +0.003 C 
ATOM     11  C   UNL     1       6.199   0.070   0.836  0.00  0.00    -0.031 C 
ATOM     12  C   UNL     1       4.955  -0.704   1.279  0.00  0.00    -0.075 C 
ATOM     13  N   UNL     1       4.193   0.098   2.243  0.00  0.00    +0.383 N 
ATOM     14  C   UNL     1       3.714   1.329   1.600  0.00  0.00    -0.075 C 
ATOM     15  C   UNL     1       6.991  -0.767  -0.170  0.00  0.00    +0.005 C 
ATOM     16  H   UNL     1       4.786   0.336   3.024  0.00  0.00    -0.081 HD
ENDBRANCH   7  13
ENDBRANCH   1   7
BRANCH   6  17
ATOM     17  C   UNL     1       0.505  -1.607   3.748  0.00  0.00    +0.139 C 
BRANCH  17  18
ATOM     18  N   UNL     1       1.208  -2.799   4.228  0.00  0.00    -0.309 N 
ATOM     19  C   UNL     1       0.805  -4.024   3.835  0.00  0.00    +0.236 C 
ATOM     20  O   UNL     1      -0.139  -4.138   3.083  0.00  0.00    -0.273 OA
ATOM     21  H   UNL     1       1.964  -2.707   4.830  0.00  0.00    +0.149 HD
BRANCH  19  22
ATOM     22  C   UNL     1       1.528  -5.250   4.329  0.00  0.00    +0.106 C 
ATOM     23  C   UNL     1       0.962  -5.662   5.690  0.00  0.00    +0.041 C 
ATOM     24  C   UNL     1       1.337  -6.393   3.330  0.00  0.00    +0.041 C 
BRANCH  22  25
ATOM     25  N   UNL     1       2.957  -4.954   4.464  0.00  0.00    -0.286 N 
ATOM     26  C   UNL     1       3.805  -5.908   4.894  0.00  0.00    +0.300 C 
ATOM     27  O   UNL     1       3.385  -7.015   5.171  0.00  0.00    -0.253 OA
ATOM     28  N   UNL     1       5.119  -5.635   5.018  0.00  0.00    -0.302 N 
ATOM     29  C   UNL     1       6.042  -6.673   5.486  0.00  0.00    +0.129 C 
ATOM     30  H   UNL     1       3.292  -4.070   4.244  0.00  0.00    +0.151 HD
ATOM     31  H   UNL     1       5.454  -4.752   4.798  0.00  0.00    +0.150 HD
ENDBRANCH  22  25
ENDBRANCH  19  22
ENDBRANCH  17  18
ENDBRANCH   6  17
TORSDOF 6
