REMARK  Name = ZINC21228425
REMARK  11 active torsions:
REMARK  status: ('A' for Active; 'I' for Inactive)
REMARK    1  A    between atoms: C_1  and  C_2
REMARK    2  A    between atoms: C_2  and  C_3
REMARK    3  A    between atoms: C_6  and  C_9
REMARK    4  A    between atoms: C_14  and  C_20
REMARK    5  A    between atoms: C_23  and  O_29
REMARK    6  A    between atoms: C_24  and  O_26
REMARK    7  A    between atoms: O_26  and  C_27
REMARK    8  A    between atoms: C_27  and  C_28
REMARK    9  A    between atoms: O_29  and  C_30
REMARK   10  A    between atoms: C_30  and  C_31
REMARK   11  A    between atoms: C_30  and  C_32
REMARK                            x       y       z     vdW  Elec       q    Type
REMARK                         _______ _______ _______ _____ _____    ______ ____
ROOT
ATOM      1  C   UNL     1       4.492   1.996   3.243  0.00  0.00    +0.032 C 
ATOM      2  C   UNL     1       5.089   1.767   1.852  0.00  0.00    +0.059 C 
ATOM      3  C   UNL     1       4.158   2.322   0.804  0.00  0.00    +0.018 C 
ATOM      4  C   UNL     1       3.372   3.388   1.070  0.00  0.00    +0.020 C 
ATOM      5  C   UNL     1       2.456   3.934  -0.000  0.00  0.00    +0.063 C 
ATOM      6  C   UNL     1       3.127   3.786  -1.367  0.00  0.00    +0.109 C 
ATOM      7  C   UNL     1       3.656   2.382  -1.508  0.00  0.00    +0.218 C 
ATOM      8  O   UNL     1       3.660   1.843  -2.594  0.00  0.00    -0.275 OA
ATOM      9  N   UNL     1       4.125   1.727  -0.431  0.00  0.00    -0.289 N 
ATOM     10  C   UNL     1       3.385   4.008   2.330  0.00  0.00    +0.162 C 
ATOM     11  O   UNL     1       2.671   4.971   2.529  0.00  0.00    -0.292 OA
ATOM     12  C   UNL     1       4.268   3.499   3.437  0.00  0.00    +0.088 C 
ATOM     13  H   UNL     1       4.486   0.695  -0.554  0.00  0.00    +0.155 HD
ENDROOT
BRANCH   1  17
ATOM     14  C   UNL     1       7.197   0.553   6.218  0.00  0.00    -0.048 A 
ATOM     15  C   UNL     1       5.924   0.022   6.125  0.00  0.00    +0.004 A 
ATOM     16  C   UNL     1       5.049   0.489   5.162  0.00  0.00    +0.004 A 
ATOM     17  C   UNL     1       5.447   1.487   4.292  0.00  0.00    -0.043 A 
ATOM     18  C   UNL     1       6.721   2.015   4.382  0.00  0.00    +0.004 A 
ATOM     19  C   UNL     1       7.595   1.551   5.348  0.00  0.00    +0.004 A 
BRANCH  14  21
ATOM     20  C   UNL     1       8.958  -1.125   6.700  0.00  0.00    +0.009 C 
ATOM     21  C   UNL     1       8.151   0.044   7.268  0.00  0.00    +0.032 C 
ENDBRANCH  14  21
ENDBRANCH   1  17
BRANCH   5  22
ATOM     22  C   UNL     1       1.159   3.167   0.008  0.00  0.00    -0.036 A 
ATOM     23  C   UNL     1       1.163   1.802  -0.217  0.00  0.00    +0.008 A 
ATOM     24  C   UNL     1      -0.024   1.094  -0.210  0.00  0.00    +0.050 A 
ATOM     25  C   UNL     1      -1.222   1.752   0.018  0.00  0.00    +0.162 A 
ATOM     26  C   UNL     1      -1.225   3.124   0.251  0.00  0.00    +0.162 A 
ATOM     27  C   UNL     1      -0.032   3.828   0.242  0.00  0.00    +0.053 A 
BRANCH  26  28
ATOM     28  O   UNL     1      -2.398   3.774   0.480  0.00  0.00    -0.489 OA
BRANCH  28  29
ATOM     29  C   UNL     1      -2.326   5.183   0.705  0.00  0.00    +0.226 C 
ATOM     30  C   UNL     1      -3.733   5.734   0.942  0.00  0.00    +0.048 C 
ENDBRANCH  28  29
ENDBRANCH  26  28
BRANCH  25  31
ATOM     31  O   UNL     1      -2.391   1.058   0.019  0.00  0.00    -0.486 OA
BRANCH  31  32
ATOM     32  C   UNL     1      -2.302  -0.363  -0.100  0.00  0.00    +0.167 C 
ATOM     33  C   UNL     1      -3.543  -1.006   0.522  0.00  0.00    +0.051 C 
ATOM     34  C   UNL     1      -2.215  -0.747  -1.579  0.00  0.00    +0.051 C 
ENDBRANCH  31  32
ENDBRANCH  25  31
ENDBRANCH   5  22
TORSDOF 7
