REMARK  Name = ZINC03172056
REMARK  3 active torsions:
REMARK  status: ('A' for Active; 'I' for Inactive)
REMARK    1  A    between atoms: C_1  and  C_2
REMARK    2  A    between atoms: C_2  and  C_21
REMARK    3  A    between atoms: N_9  and  C_10
REMARK                            x       y       z     vdW  Elec       q    Type
REMARK                         _______ _______ _______ _____ _____    ______ ____
ROOT
ATOM      1  C   UNL     1       1.812   7.970  -0.482  0.00  0.00    +0.021 C 
ATOM      2  C   UNL     1       2.128   7.207  -1.770  0.00  0.00    +0.049 C 
ATOM      3  C   UNL     1       1.674   5.752  -1.623  0.00  0.00    +0.119 C 
ATOM      4  C   UNL     1       2.595   5.005  -0.698  0.00  0.00    +0.070 A 
ATOM      5  C   UNL     1       3.902   5.390  -0.406  0.00  0.00    +0.067 A 
ATOM      6  C   UNL     1       4.441   4.449   0.480  0.00  0.00    +0.147 A 
ATOM      7  N   UNL     1       3.514   3.557   0.720  0.00  0.00    -0.174 NA
ATOM      8  N   UNL     1       2.357   3.889   0.001  0.00  0.00    -0.235 N 
ATOM      9  C   UNL     1       4.501   6.605  -0.996  0.00  0.00    +0.232 C 
ATOM     10  O   UNL     1       5.592   7.035  -0.678  0.00  0.00    -0.283 OA
ATOM     11  C   UNL     1       3.619   7.261  -2.034  0.00  0.00    +0.210 C 
ATOM     12  O   UNL     1       4.076   7.795  -3.016  0.00  0.00    -0.288 OA
ATOM     13 BR   UNL     1       1.698   4.883  -3.386  0.00  0.00    -0.080 Br
ATOM     14  C   UNL     1       1.382   7.854  -2.939  0.00  0.00    +0.021 C 
ENDROOT
BRANCH   8  15
ATOM     15  C   UNL     1       1.155   3.170   0.008  0.00  0.00    +0.066 A 
ATOM     16  C   UNL     1       1.173   1.784  -0.071  0.00  0.00    +0.028 A 
ATOM     17  C   UNL     1      -0.014   1.078  -0.063  0.00  0.00    +0.002 A 
ATOM     18  C   UNL     1      -1.220   1.750   0.017  0.00  0.00    +0.000 A 
ATOM     19  C   UNL     1      -1.241   3.131   0.102  0.00  0.00    +0.002 A 
ATOM     20  C   UNL     1      -0.057   3.842   0.094  0.00  0.00    +0.028 A 
ENDBRANCH   8  15
TORSDOF 1
