REMARK  Name = ZINC66834315
REMARK  8 active torsions:
REMARK  status: ('A' for Active; 'I' for Inactive)
REMARK    1  A    between atoms: C_1  and  C_2
REMARK    2  A    between atoms: C_2  and  C_4
REMARK    3  A    between atoms: C_2  and  N_15
REMARK    4  A    between atoms: N_6  and  C_7
REMARK    5  A    between atoms: C_8  and  C_12
REMARK    6  A    between atoms: C_19  and  C_22
REMARK    7  A    between atoms: C_22  and  O_24
REMARK    8  A    between atoms: O_24  and  C_25
REMARK                            x       y       z     vdW  Elec       q    Type
REMARK                         _______ _______ _______ _____ _____    ______ ____
ROOT
ATOM      1  C   UNL     1      -1.363  -0.634   0.106  0.00  0.00    +0.204 C 
ATOM      2  O   UNL     1      -1.596  -1.434   0.988  0.00  0.00    -0.277 OA
ATOM      3  N   UNL     1      -2.325  -0.308  -0.779  0.00  0.00    -0.281 N 
ATOM      4  H   UNL     1      -2.139   0.332  -1.484  0.00  0.00    +0.155 HD
ENDROOT
BRANCH   3   5
ATOM      5  C   UNL     1      -3.581  -0.888  -0.683  0.00  0.00    +0.084 A 
ATOM      6  C   UNL     1      -4.681  -0.679  -1.502  0.00  0.00    +0.065 A 
ATOM      7  C   UNL     1      -5.879  -1.419  -1.175  0.00  0.00    +0.022 A 
ATOM      8  C   UNL     1      -5.793  -2.232  -0.107  0.00  0.00    +0.048 A 
ATOM      9  S   UNL     1      -4.116  -2.008   0.445  0.00  0.00    -0.081 S 
BRANCH   6  10
ATOM     10  C   UNL     1      -4.632   0.245  -2.639  0.00  0.00    +0.244 C 
ATOM     11  O   UNL     1      -3.606   0.852  -2.886  0.00  0.00    -0.270 OA
ATOM     12  N   UNL     1      -5.722   0.421  -3.412  0.00  0.00    -0.325 N 
ATOM     13  H   UNL     1      -6.539  -0.063  -3.216  0.00  0.00    +0.145 HD
ATOM     14  H   UNL     1      -5.689   1.032  -4.165  0.00  0.00    +0.145 HD
ENDBRANCH   6  10
ENDBRANCH   3   5
BRANCH   1  16
ATOM     15  C   UNL     1       0.013   1.319   0.771  0.00  0.00    -0.004 C 
ATOM     16  C   UNL     1       0.002  -0.004   0.002  0.00  0.00    +0.016 C 
BRANCH  16  17
ATOM     17  N   UNL     1       1.005  -0.912   0.574  0.00  0.00    +0.388 N 
ATOM     18  C   UNL     1       2.328  -0.278   0.513  0.00  0.00    -0.078 C 
ATOM     19  C   UNL     1       3.364  -1.185   1.181  0.00  0.00    -0.018 C 
ATOM     20  C   UNL     1       3.405  -2.529   0.448  0.00  0.00    +0.011 C 
ATOM     21  C   UNL     1       2.004  -3.146   0.454  0.00  0.00    +0.081 C 
ATOM     22  C   UNL     1       1.018  -2.167  -0.187  0.00  0.00    -0.063 C 
ATOM     23  H   UNL     1       0.772  -1.106   1.537  0.00  0.00    -0.081 HD
BRANCH  21  24
ATOM     24  C   UNL     1       2.017  -4.433  -0.330  0.00  0.00    +0.308 C 
ATOM     25  O   UNL     1       1.308  -4.557  -1.301  0.00  0.00    -0.251 OA
BRANCH  24  26
ATOM     26  O   UNL     1       2.817  -5.442   0.050  0.00  0.00    -0.468 OA
ATOM     27  C   UNL     1       2.779  -6.633  -0.739  0.00  0.00    +0.280 C 
ENDBRANCH  24  26
ENDBRANCH  21  24
ENDBRANCH  16  17
ENDBRANCH   1  16
TORSDOF 6
