REMARK  Name = ZINC63677516
REMARK  8 active torsions:
REMARK  status: ('A' for Active; 'I' for Inactive)
REMARK    1  A    between atoms: C_1  and  C_2
REMARK    2  A    between atoms: C_4  and  C_32
REMARK    3  A    between atoms: N_11  and  C_12
REMARK    4  A    between atoms: N_11  and  C_23
REMARK    5  A    between atoms: C_12  and  C_13
REMARK    6  A    between atoms: C_13  and  C_14
REMARK    7  A    between atoms: C_23  and  N_25
REMARK    8  A    between atoms: N_25  and  C_26
REMARK                            x       y       z     vdW  Elec       q    Type
REMARK                         _______ _______ _______ _____ _____    ______ ____
ROOT
ATOM      1  C   UNL     1      -0.506  -0.859  -1.312  0.00  0.00    +0.066 C 
ATOM      2  C   UNL     1      -0.409  -0.034  -0.055  0.00  0.00    +0.044 A 
ATOM      3  C   UNL     1      -0.469   1.350  -0.118  0.00  0.00    +0.046 A 
ATOM      4  C   UNL     1      -0.376   2.071   1.062  0.00  0.00    +0.044 A 
ATOM      5  N   UNL     1      -0.235   1.422   2.206  0.00  0.00    -0.217 NA
ATOM      6  C   UNL     1      -0.182   0.099   2.231  0.00  0.00    +0.231 A 
ATOM      7  N   UNL     1      -0.272  -0.621   1.123  0.00  0.00    -0.217 NA
ATOM      8  N   UNL     1      -0.034  -0.550   3.449  0.00  0.00    -0.297 N 
ATOM      9  C   UNL     1      -0.046  -1.927   3.502  0.00  0.00    +0.196 C 
ATOM     10  N   UNL     1      -0.043  -2.621   2.401  0.00  0.00    -0.270 NA
ATOM     11  N   UNL     1      -0.061  -2.570   4.723  0.00  0.00    -0.253 N 
ATOM     12  C   UNL     1      -0.435   3.577   1.043  0.00  0.00    +0.066 C 
ATOM     13  H   UNL     1       0.079  -0.034   4.263  0.00  0.00    +0.171 HD
ATOM     14  H   UNL     1       0.101  -2.179   1.549  0.00  0.00    +0.190 HD
ENDROOT
BRANCH  11  15
ATOM     15  C   UNL     1      -0.168  -3.913   4.776  0.00  0.00    +0.144 C 
ATOM     16  S   UNL     1      -0.323  -4.700   6.288  0.00  0.00    -0.018 S 
BRANCH  15  17
ATOM     17  N   UNL     1      -0.153  -4.636   3.638  0.00  0.00    -0.296 N 
ATOM     18  H   UNL     1      -0.984  -4.962   3.260  0.00  0.00    +0.154 HD
BRANCH  17  19
ATOM     19  C   UNL     1       1.062  -4.914   3.003  0.00  0.00    +0.033 A 
ATOM     20  C   UNL     1       2.260  -4.546   3.600  0.00  0.00    +0.023 A 
ATOM     21  C   UNL     1       3.458  -4.823   2.970  0.00  0.00    +0.002 A 
ATOM     22  C   UNL     1       3.464  -5.466   1.746  0.00  0.00    +0.000 A 
ATOM     23  C   UNL     1       2.272  -5.834   1.149  0.00  0.00    +0.002 A 
ATOM     24  C   UNL     1       1.072  -5.565   1.776  0.00  0.00    +0.023 A 
ENDBRANCH  17  19
ENDBRANCH  15  17
ENDBRANCH  11  15
BRANCH  11  25
ATOM     25  C   UNL     1       0.039  -1.794   5.961  0.00  0.00    +0.120 C 
BRANCH  25  26
ATOM     26  C   UNL     1      -1.364  -1.408   6.436  0.00  0.00    +0.052 C 
BRANCH  26  27
ATOM     27  C   UNL     1      -1.261  -0.609   7.709  0.00  0.00    -0.040 C 
ATOM     28  C   UNL     1      -1.249   0.738   7.826  0.00  0.00    -0.001 A 
ATOM     29  C   UNL     1      -1.323   1.822   6.839  0.00  0.00    +0.010 A 
ATOM     30  C   UNL     1      -1.286   3.104   7.268  0.00  0.00    +0.001 A 
ATOM     31  C   UNL     1      -1.177   3.423   8.629  0.00  0.00    +0.002 A 
ATOM     32  C   UNL     1      -1.104   2.482   9.594  0.00  0.00    +0.026 A 
ATOM     33  C   UNL     1      -1.135   1.101   9.256  0.00  0.00    +0.043 A 
ATOM     34  N   UNL     1      -1.079   0.020   9.996  0.00  0.00    -0.380 N 
ATOM     35  C   UNL     1      -1.158  -1.152   9.117  0.00  0.00    +0.144 C 
ATOM     36  H   UNL     1      -1.003  -0.001  10.963  0.00  0.00    +0.160 HD
ENDBRANCH  26  27
ENDBRANCH  25  26
ENDBRANCH  11  25
TORSDOF 6
