REMARK  Name = ZINC63192797
REMARK  7 active torsions:
REMARK  status: ('A' for Active; 'I' for Inactive)
REMARK    1  A    between atoms: C_1  and  C_2
REMARK    2  A    between atoms: C_2  and  C_3
REMARK    3  A    between atoms: C_3  and  N_4
REMARK    4  A    between atoms: C_8  and  C_9
REMARK    5  A    between atoms: C_16  and  C_18
REMARK    6  A    between atoms: C_18  and  C_20
REMARK    7  A    between atoms: C_18  and  N_21
REMARK                            x       y       z     vdW  Elec       q    Type
REMARK                         _______ _______ _______ _____ _____    ______ ____
ROOT
ATOM      1  C   UNL     1       0.182  -3.579   3.485  0.00  0.00    +0.263 C 
ATOM      2  O   UNL     1      -0.169  -3.967   4.584  0.00  0.00    -0.268 OA
ATOM      3  N   UNL     1       0.100  -2.270   3.174  0.00  0.00    -0.295 N 
ATOM      4  C   UNL     1       0.391  -1.805   1.812  0.00  0.00    +0.108 C 
ATOM      5  C   UNL     1      -0.796  -0.978   1.309  0.00  0.00    +0.019 C 
ATOM      6  C   UNL     1      -1.090   0.145   2.307  0.00  0.00    +0.003 C 
ATOM      7  C   UNL     1      -1.463  -0.461   3.662  0.00  0.00    +0.021 C 
ATOM      8  C   UNL     1      -0.289  -1.283   4.190  0.00  0.00    +0.062 C 
ENDROOT
BRANCH   1  13
ATOM      9  N   UNL     1       0.127  -5.745   2.167  0.00  0.00    -0.342 N 
ATOM     10  C   UNL     1       0.890  -6.336   1.215  0.00  0.00    +0.101 A 
ATOM     11  C   UNL     1       1.942  -5.529   0.934  0.00  0.00    +0.036 A 
ATOM     12  C   UNL     1       1.835  -4.390   1.738  0.00  0.00    +0.047 A 
ATOM     13  C   UNL     1       0.695  -4.536   2.499  0.00  0.00    +0.106 A 
ATOM     14 BR   UNL     1       3.310  -5.881  -0.323  0.00  0.00    -0.049 Br
BRANCH   9  15
ATOM     15  C   UNL     1      -1.102  -6.298   2.742  0.00  0.00    +0.122 C 
BRANCH  15  17
ATOM     16  C   UNL     1      -3.598  -6.252   2.640  0.00  0.00    +0.005 C 
ATOM     17  C   UNL     1      -2.311  -5.763   1.972  0.00  0.00    +0.018 C 
ENDBRANCH  15  17
ENDBRANCH   9  15
ENDBRANCH   1  13
BRANCH   8  18
ATOM     18  C   UNL     1      -0.707  -2.004   5.473  0.00  0.00    -0.057 C 
ATOM     19  C   UNL     1      -0.791  -0.996   6.621  0.00  0.00    -0.012 C 
BRANCH  18  20
ATOM     20  N   UNL     1      -2.020  -2.632   5.277  0.00  0.00    +0.381 N 
ATOM     21  H   UNL     1      -2.747  -1.958   5.465  0.00  0.00    -0.090 HD
ATOM     22  H   UNL     1      -2.099  -2.955   4.324  0.00  0.00    -0.090 HD
ATOM     23  H   UNL     1      -2.116  -3.415   5.906  0.00  0.00    -0.090 HD
ENDBRANCH  18  20
ENDBRANCH   8  18
TORSDOF 5
