REMARK  Name = ZINC42908572
REMARK  11 active torsions:
REMARK  status: ('A' for Active; 'I' for Inactive)
REMARK    1  A    between atoms: C_1  and  C_2
REMARK    2  A    between atoms: C_2  and  C_3
REMARK    3  A    between atoms: C_3  and  C_5
REMARK    4  A    between atoms: C_3  and  N_6
REMARK    5  A    between atoms: C_7  and  C_9
REMARK    6  A    between atoms: C_9  and  N_10
REMARK    7  A    between atoms: N_18  and  C_19
REMARK    8  A    between atoms: C_21  and  C_27
REMARK    9  A    between atoms: C_21  and  C_28
REMARK   10  A    between atoms: C_23  and  C_25
REMARK   11  A    between atoms: C_23  and  C_26
REMARK                            x       y       z     vdW  Elec       q    Type
REMARK                         _______ _______ _______ _____ _____    ______ ____
ROOT
ATOM      1  N   UNL     1       4.658   1.350  -4.137  0.00  0.00    -0.291 NA
ATOM      2  C   UNL     1       4.099   2.396  -5.004  0.00  0.00    +0.104 C 
ATOM      3  C   UNL     1       4.609   2.194  -6.435  0.00  0.00    +0.124 C 
ATOM      4  N   UNL     1       6.078   2.132  -6.403  0.00  0.00    -0.283 N 
ATOM      5  C   UNL     1       6.715   1.203  -5.457  0.00  0.00    +0.124 C 
ATOM      6  C   UNL     1       6.122   1.444  -4.065  0.00  0.00    +0.104 C 
ATOM      7  C   UNL     1       6.821   2.906  -7.219  0.00  0.00    +0.302 C 
ATOM      8  O   UNL     1       6.280   3.596  -8.062  0.00  0.00    -0.253 OA
ATOM      9  N   UNL     1       8.164   2.915  -7.101  0.00  0.00    -0.296 N 
ATOM     10  H   UNL     1       8.600   2.308  -6.484  0.00  0.00    +0.151 HD
ENDROOT
BRANCH   9  11
ATOM     11  C   UNL     1       8.965   3.845  -7.908  0.00  0.00    +0.072 C 
ATOM     12  C   UNL     1       9.269   3.201  -9.262  0.00  0.00    +0.009 C 
ATOM     13  C   UNL     1      10.114   4.152 -10.110  0.00  0.00    -0.072 C 
ATOM     14  N   UNL     1      11.317   4.583  -9.415  0.00  0.00    +0.386 N 
ATOM     15  C   UNL     1      11.179   5.027  -8.037  0.00  0.00    -0.072 C 
ATOM     16  C   UNL     1      10.290   4.115  -7.197  0.00  0.00    +0.009 C 
ATOM     17  C   UNL     1      12.588   5.008  -7.399  0.00  0.00    -0.010 C 
ATOM     18  C   UNL     1      10.671   6.469  -7.954  0.00  0.00    -0.010 C 
ATOM     19  C   UNL     1       9.267   5.333 -10.582  0.00  0.00    -0.010 C 
ATOM     20  C   UNL     1      10.556   3.372 -11.370  0.00  0.00    -0.010 C 
ATOM     21  H   UNL     1      11.994   3.817  -9.439  0.00  0.00    -0.084 HD
ATOM     22  H   UNL     1      11.747   5.338  -9.955  0.00  0.00    -0.084 HD
ENDBRANCH   9  11
BRANCH   1  23
ATOM     23  C   UNL     1       4.061   1.403  -2.796  0.00  0.00    +0.180 C 
BRANCH  23  25
ATOM     24  N   UNL     1       1.839   1.046  -1.770  0.00  0.00    -0.312 N 
ATOM     25  C   UNL     1       2.596   1.060  -2.884  0.00  0.00    +0.227 C 
ATOM     26  O   UNL     1       2.099   0.798  -3.959  0.00  0.00    -0.274 OA
ATOM     27  H   UNL     1       2.237   1.256  -0.910  0.00  0.00    +0.149 HD
BRANCH  24  28
ATOM     28  C   UNL     1       0.415   0.713  -1.856  0.00  0.00    +0.070 C 
ATOM     29  C   UNL     1       0.243  -0.807  -1.815  0.00  0.00    +0.028 C 
BRANCH  28  31
ATOM     30  C   UNL     1      -0.262   2.866  -0.784  0.00  0.00    +0.005 C 
ATOM     31  C   UNL     1      -0.328   1.341  -0.675  0.00  0.00    +0.018 C 
ENDBRANCH  28  31
ENDBRANCH  24  28
ENDBRANCH  23  25
ENDBRANCH   1  23
TORSDOF 5
