REMARK  Name = ZINC61594873
REMARK  10 active torsions:
REMARK  status: ('A' for Active; 'I' for Inactive)
REMARK    1  A    between atoms: C_1  and  C_2
REMARK    2  A    between atoms: C_2  and  C_3
REMARK    3  A    between atoms: C_3  and  N_4
REMARK    4  A    between atoms: C_10  and  S_11
REMARK    5  A    between atoms: S_11  and  C_12
REMARK    6  A    between atoms: C_12  and  C_14
REMARK    7  A    between atoms: C_12  and  C_20
REMARK    8  A    between atoms: C_20  and  C_22
REMARK    9  A    between atoms: C_20  and  N_24
REMARK   10  A    between atoms: C_22  and  C_23
REMARK                            x       y       z     vdW  Elec       q    Type
REMARK                         _______ _______ _______ _____ _____    ______ ____
ROOT
ATOM      1  C   UNL     1      -1.362  -3.775   3.610  0.00  0.00    +0.076 C 
ENDROOT
BRANCH   1   2
ATOM      2  C   UNL     1      -1.317  -3.529   5.096  0.00  0.00    +0.003 A 
ATOM      3  C   UNL     1      -0.328  -3.812   5.978  0.00  0.00    +0.027 A 
ATOM      4  C   UNL     1      -0.507  -3.493   7.311  0.00  0.00    +0.025 A 
ATOM      5  C   UNL     1      -1.666  -2.905   7.696  0.00  0.00    +0.060 A 
ATOM      6  S   UNL     1      -2.548  -2.780   6.149  0.00  0.00    -0.099 S 
ATOM      7 BR   UNL     1       0.845  -3.871   8.579  0.00  0.00    -0.050 Br
ENDBRANCH   1   2
BRANCH   1   8
ATOM      8  S   UNL     1      -1.557  -2.195   2.740  0.00  0.00    -0.079 S 
BRANCH   8  15
ATOM      9  N   UNL     1       0.348  -0.166   2.451  0.00  0.00    -0.271 N 
ATOM     10  C   UNL     1       1.586   0.139   2.889  0.00  0.00    +0.345 A 
ATOM     11  O   UNL     1       2.223   1.138   2.605  0.00  0.00    -0.245 OA
ATOM     12  N   UNL     1       1.990  -0.862   3.698  0.00  0.00    -0.226 N 
ATOM     13  H   UNL     1       2.841  -0.918   4.160  0.00  0.00    +0.194 HD
ATOM     14  N   UNL     1       0.955  -1.805   3.748  0.00  0.00    -0.145 NA
ATOM     15  C   UNL     1      -0.021  -1.372   3.003  0.00  0.00    +0.193 A 
BRANCH   9  16
ATOM     16  C   UNL     1      -0.468   0.649   1.548  0.00  0.00    +0.129 C 
BRANCH  16  18
ATOM     17  C   UNL     1      -2.168   2.476   1.423  0.00  0.00    +0.005 C 
ATOM     18  C   UNL     1      -1.316   1.624   2.366  0.00  0.00    +0.018 C 
ENDBRANCH  16  18
ENDBRANCH   9  16
ENDBRANCH   8  15
ENDBRANCH   1   8
BRANCH   1  19
ATOM     19  C   UNL     1      -2.545  -4.688   3.280  0.00  0.00    -0.057 C 
BRANCH  19  20
ATOM     20  N   UNL     1      -3.800  -4.008   3.628  0.00  0.00    +0.381 N 
ATOM     21  H   UNL     1      -3.877  -3.152   3.098  0.00  0.00    -0.090 HD
ATOM     22  H   UNL     1      -4.580  -4.609   3.411  0.00  0.00    -0.090 HD
ATOM     23  H   UNL     1      -3.805  -3.794   4.614  0.00  0.00    -0.090 HD
ENDBRANCH  19  20
BRANCH  19  24
ATOM     24  C   UNL     1      -2.538  -5.012   1.785  0.00  0.00    -0.018 C 
ATOM     25  C   UNL     1      -3.636  -6.033   1.479  0.00  0.00    +0.002 C 
ENDBRANCH  19  24
ENDBRANCH   1  19
TORSDOF 8
