REMARK  Name = ZINC04122560
REMARK  6 active torsions:
REMARK  status: ('A' for Active; 'I' for Inactive)
REMARK    1  A    between atoms: C_1  and  N_50
REMARK    2  A    between atoms: N_4  and  C_7
REMARK    3  A    between atoms: C_10  and  N_13
REMARK    4  A    between atoms: N_13  and  C_14
REMARK    5  A    between atoms: C_14  and  N_16
REMARK    6  A    between atoms: C_17  and  C_19
REMARK                            x       y       z     vdW  Elec       q    Type
REMARK                         _______ _______ _______ _____ _____    ______ ____
ROOT
ATOM      1  N   UNL     1      -4.697  -0.836   0.042  0.00  0.00    -0.297 N 
ATOM      2  H   UNL     1      -3.945  -0.964  -0.557  0.00  0.00    +0.154 HD
ENDROOT
BRANCH   1   6
ATOM      3  C   UNL     1      -7.738  -3.686   0.206  0.00  0.00    +0.030 A 
ATOM      4  C   UNL     1      -8.055  -2.336   0.140  0.00  0.00    +0.025 A 
ATOM      5  C   UNL     1      -7.048  -1.392   0.086  0.00  0.00    +0.025 A 
ATOM      6  C   UNL     1      -5.719  -1.794   0.097  0.00  0.00    +0.033 A 
ATOM      7  C   UNL     1      -5.402  -3.144   0.157  0.00  0.00    +0.025 A 
ATOM      8  C   UNL     1      -6.408  -4.088   0.216  0.00  0.00    +0.025 A 
BRANCH   3  12
ATOM      9  C   UNL     1     -11.316  -7.769   1.494  0.00  0.00    -0.096 C 
ATOM     10  C   UNL     1      -9.347  -7.018   0.302  0.00  0.00    -0.060 C 
ATOM     11  C   UNL     1      -8.203  -6.001   0.325  0.00  0.00    +0.086 C 
ATOM     12  N   UNL     1      -8.758  -4.642   0.260  0.00  0.00    -0.333 N 
ATOM     13  C   UNL     1      -9.657  -4.389   1.395  0.00  0.00    +0.086 C 
ATOM     14  C   UNL     1     -10.800  -5.406   1.373  0.00  0.00    -0.060 C 
ATOM     15  N   UNL     1     -10.230  -6.767   1.460  0.00  0.00    +0.380 N 
ATOM     16  H   UNL     1      -9.679  -6.843   2.324  0.00  0.00    -0.082 HD
ENDBRANCH   3  12
ENDBRANCH   1   6
BRANCH   1  17
ATOM     17  C   UNL     1      -4.760   0.262   0.820  0.00  0.00    +0.141 C 
ATOM     18  S   UNL     1      -6.139   0.541   1.796  0.00  0.00    -0.018 S 
BRANCH  17  19
ATOM     19  N   UNL     1      -3.738   1.140   0.831  0.00  0.00    -0.263 N 
ATOM     20  C   UNL     1      -3.801   2.239   1.609  0.00  0.00    +0.258 C 
ATOM     21  O   UNL     1      -4.781   2.437   2.303  0.00  0.00    -0.269 OA
ATOM     22  H   UNL     1      -2.957   0.982   0.278  0.00  0.00    +0.157 HD
BRANCH  20  23
ATOM     23  C   UNL     1      -2.688   3.195   1.621  0.00  0.00    +0.094 A 
ATOM     24  C   UNL     1      -2.569   4.349   2.333  0.00  0.00    +0.068 A 
ATOM     25  C   UNL     1      -1.409   5.135   2.203  0.00  0.00    +0.008 A 
ATOM     26  C   UNL     1      -1.099   6.357   2.854  0.00  0.00    +0.010 A 
ATOM     27  C   UNL     1       0.076   6.994   2.614  0.00  0.00    +0.001 A 
ATOM     28  C   UNL     1       1.017   6.478   1.730  0.00  0.00    +0.001 A 
ATOM     29  C   UNL     1       0.756   5.292   1.076  0.00  0.00    +0.016 A 
ATOM     30  C   UNL     1      -0.433   4.635   1.309  0.00  0.00    +0.021 A 
ATOM     31  S   UNL     1      -1.158   3.131   0.705  0.00  0.00    -0.082 S 
ATOM     32 CL   UNL     1      -3.844   4.849   3.399  0.00  0.00    -0.082 Cl
ENDBRANCH  20  23
ENDBRANCH  17  19
ENDBRANCH   1  17
TORSDOF 5
