REMARK  Name = ZINC65265823
REMARK  6 active torsions:
REMARK  status: ('A' for Active; 'I' for Inactive)
REMARK    1  A    between atoms: C_1  and  O_2
REMARK    2  A    between atoms: O_2  and  C_3
REMARK    3  A    between atoms: C_3  and  C_4
REMARK    4  A    between atoms: C_4  and  N_5
REMARK    5  A    between atoms: N_23  and  C_24
REMARK    6  A    between atoms: C_24  and  C_25
REMARK                            x       y       z     vdW  Elec       q    Type
REMARK                         _______ _______ _______ _____ _____    ______ ____
ROOT
ATOM      1  N   UNL     1       1.401  -2.532  -0.162  0.00  0.00    -0.373 N 
ATOM      2  C   UNL     1       1.501  -3.788  -0.450  0.00  0.00    +0.095 C 
ATOM      3  N   UNL     1       0.896  -4.754   0.317  0.00  0.00    -0.303 N 
ATOM      4  C   UNL     1      -0.395  -5.159  -0.009  0.00  0.00    +0.037 A 
ATOM      5  C   UNL     1      -1.351  -5.299   0.988  0.00  0.00    +0.023 A 
ATOM      6  C   UNL     1      -2.629  -5.714   0.671  0.00  0.00    +0.002 A 
ATOM      7  C   UNL     1      -2.946  -5.989  -0.647  0.00  0.00    +0.000 A 
ATOM      8  C   UNL     1      -1.999  -5.845  -1.637  0.00  0.00    +0.007 A 
ATOM      9  C   UNL     1      -0.708  -5.420  -1.337  0.00  0.00    -0.012 A 
ATOM     10  C   UNL     1       0.241  -5.257  -2.496  0.00  0.00    +0.119 C 
ATOM     11  N   UNL     1       1.640  -5.503  -2.124  0.00  0.00    -0.299 NA
ATOM     12  C   UNL     1       2.274  -4.261  -1.635  0.00  0.00    +0.091 C 
ATOM     13  C   UNL     1       2.300  -3.204  -2.755  0.00  0.00    +0.050 C 
ATOM     14  C   UNL     1       3.587  -3.601  -3.523  0.00  0.00    +0.111 C 
ATOM     15  N   UNL     1       4.526  -4.059  -2.481  0.00  0.00    -0.283 N 
ATOM     16  C   UNL     1       3.750  -4.502  -1.309  0.00  0.00    +0.139 C 
ATOM     17  C   UNL     1       5.870  -4.071  -2.584  0.00  0.00    +0.303 C 
ATOM     18  O   UNL     1       6.547  -4.472  -1.658  0.00  0.00    -0.253 OA
ATOM     19  N   UNL     1       6.463  -3.637  -3.714  0.00  0.00    -0.292 N 
ATOM     20  H   UNL     1       1.835  -1.870  -0.723  0.00  0.00    +0.161 HD
ATOM     21  H   UNL     1       1.708  -6.241  -1.438  0.00  0.00    +0.123 HD
ATOM     22  H   UNL     1       5.922  -3.317  -4.454  0.00  0.00    +0.151 HD
ATOM     23  H   UNL     1       1.360  -5.147   1.072  0.00  0.00    +0.153 HD
ENDROOT
BRANCH   1  24
ATOM     24  C   UNL     1       0.633  -2.108   1.011  0.00  0.00    +0.141 C 
BRANCH  24  25
ATOM     25  C   UNL     1       0.673  -0.582   1.123  0.00  0.00    +0.180 C 
BRANCH  25  27
ATOM     26  C   UNL     1      -0.017   1.425   0.010  0.00  0.00    +0.194 C 
ATOM     27  O   UNL     1       0.002  -0.004   0.002  0.00  0.00    -0.381 OA
ENDBRANCH  25  27
ENDBRANCH  24  25
ENDBRANCH   1  24
BRANCH  19  28
ATOM     28  C   UNL     1       7.923  -3.650  -3.826  0.00  0.00    +0.180 C 
BRANCH  28  29
ATOM     29  C   UNL     1       8.328  -3.119  -5.178  0.00  0.00    +0.122 A 
ATOM     30  C   UNL     1       8.585  -1.832  -5.473  0.00  0.00    +0.046 A 
ATOM     31  C   UNL     1       8.925  -1.787  -6.845  0.00  0.00    +0.041 A 
ATOM     32  C   UNL     1       8.856  -3.049  -7.305  0.00  0.00    +0.195 A 
ATOM     33  O   UNL     1       8.499  -3.852  -6.290  0.00  0.00    -0.466 OA
ENDBRANCH  28  29
ENDBRANCH  19  28
TORSDOF 5
