REMARK  Name = ZINC51098421
REMARK  9 active torsions:
REMARK  status: ('A' for Active; 'I' for Inactive)
REMARK    1  A    between atoms: C_1  and  C_2
REMARK    2  A    between atoms: C_5  and  N_9
REMARK    3  A    between atoms: C_7  and  C_8
REMARK    4  A    between atoms: C_10  and  C_12
REMARK    5  A    between atoms: C_12  and  C_14
REMARK    6  A    between atoms: C_12  and  N_15
REMARK    7  A    between atoms: C_18  and  N_21
REMARK    8  A    between atoms: C_22  and  C_24
REMARK    9  A    between atoms: C_27  and  C_29
REMARK                            x       y       z     vdW  Elec       q    Type
REMARK                         _______ _______ _______ _____ _____    ______ ____
ROOT
ATOM      1  N   UNL     1      -0.112  -6.835  -2.571  0.00  0.00    +0.387 N 
ATOM      2  C   UNL     1       1.079  -6.314  -3.254  0.00  0.00    -0.076 C 
ATOM      3  C   UNL     1       1.065  -6.757  -4.719  0.00  0.00    +0.004 C 
ATOM      4  C   UNL     1       1.065  -8.287  -4.784  0.00  0.00    +0.070 C 
ATOM      5  C   UNL     1      -0.141  -8.821  -4.005  0.00  0.00    +0.004 C 
ATOM      6  C   UNL     1      -0.082  -8.302  -2.567  0.00  0.00    -0.076 C 
ATOM      7  H   UNL     1      -0.939  -6.517  -3.053  0.00  0.00    -0.081 HD
ENDROOT
BRANCH   4   8
ATOM      8  N   UNL     1       0.975  -8.718  -6.181  0.00  0.00    -0.308 N 
ATOM      9  C   UNL     1       1.449  -9.926  -6.546  0.00  0.00    +0.251 C 
ATOM     10  O   UNL     1       1.951 -10.659  -5.714  0.00  0.00    -0.270 OA
ATOM     11  H   UNL     1       0.575  -8.134  -6.844  0.00  0.00    +0.149 HD
BRANCH   9  12
ATOM     12  C   UNL     1       1.359 -10.357  -7.944  0.00  0.00    +0.074 A 
ATOM     13  C   UNL     1       1.776 -11.547  -8.520  0.00  0.00    +0.021 A 
ATOM     14  C   UNL     1       1.555 -11.666  -9.871  0.00  0.00    +0.011 A 
ATOM     15  C   UNL     1       0.963 -10.643 -10.535  0.00  0.00    -0.013 A 
ATOM     16  S   UNL     1       0.679  -9.490  -9.346  0.00  0.00    -0.089 S 
ATOM     17  C   UNL     1       0.629 -10.560 -12.002  0.00  0.00    +0.051 C 
ENDBRANCH   9  12
ENDBRANCH   4   8
BRANCH   1  18
ATOM     18  C   UNL     1      -0.134  -6.343  -1.187  0.00  0.00    +0.016 C 
ATOM     19  C   UNL     1      -1.402  -6.840  -0.490  0.00  0.00    -0.004 C 
BRANCH  18  21
ATOM     20  N   UNL     1       0.427  -4.166  -0.155  0.00  0.00    -0.287 N 
ATOM     21  C   UNL     1      -0.119  -4.836  -1.189  0.00  0.00    +0.203 C 
ATOM     22  O   UNL     1      -0.600  -4.226  -2.121  0.00  0.00    -0.277 OA
ATOM     23  H   UNL     1       0.873  -4.651   0.556  0.00  0.00    +0.155 HD
BRANCH  20  28
ATOM     24  C   UNL     1       0.118   1.496   0.037  0.00  0.00    +0.044 C 
ATOM     25  C   UNL     1       0.201  -0.008  -0.014  0.00  0.00    -0.047 A 
ATOM     26  C   UNL     1      -0.828  -0.736  -0.585  0.00  0.00    +0.005 A 
ATOM     27  C   UNL     1      -0.756  -2.114  -0.633  0.00  0.00    +0.023 A 
ATOM     28  C   UNL     1       0.351  -2.769  -0.108  0.00  0.00    +0.034 A 
ATOM     29  C   UNL     1       1.382  -2.035   0.464  0.00  0.00    +0.027 A 
ATOM     30  C   UNL     1       1.306  -0.657   0.505  0.00  0.00    -0.046 A 
ATOM     31  C   UNL     1       2.427   0.141   1.120  0.00  0.00    +0.044 C 
ENDBRANCH  20  28
ENDBRANCH  18  21
ENDBRANCH   1  18
TORSDOF 5
