REMARK  Name = ZINC43548317
REMARK  11 active torsions:
REMARK  status: ('A' for Active; 'I' for Inactive)
REMARK    1  A    between atoms: C_1  and  C_2
REMARK    2  A    between atoms: N_9  and  C_10
REMARK    3  A    between atoms: C_12  and  C_32
REMARK    4  A    between atoms: C_15  and  O_31
REMARK    5  A    between atoms: C_17  and  C_21
REMARK    6  A    between atoms: C_21  and  C_23
REMARK    7  A    between atoms: C_21  and  C_24
REMARK    8  A    between atoms: N_26  and  C_27
REMARK    9  A    between atoms: C_27  and  C_28
REMARK   10  A    between atoms: C_28  and  O_29
REMARK   11  A    between atoms: O_29  and  C_30
REMARK                            x       y       z     vdW  Elec       q    Type
REMARK                         _______ _______ _______ _____ _____    ______ ____
ROOT
ATOM      1  C   UNL     1       0.614   1.296  -0.582  0.00  0.00    +0.014 C 
ATOM      2  C   UNL     1       0.301  -0.176  -0.305  0.00  0.00    +0.039 C 
ATOM      3  C   UNL     1      -1.194  -0.345  -0.086  0.00  0.00    +0.031 A 
ATOM      4  C   UNL     1      -1.660  -1.168   0.886  0.00  0.00    +0.013 A 
ATOM      5  S   UNL     1      -3.416  -1.008   0.720  0.00  0.00    -0.059 S 
ATOM      6  C   UNL     1      -3.417   0.086  -0.562  0.00  0.00    +0.136 A 
ATOM      7  N   UNL     1      -2.136   0.272  -0.796  0.00  0.00    -0.340 N 
ATOM      8  N   UNL     1      -4.503   0.652  -1.211  0.00  0.00    -0.328 N 
ATOM      9  C   UNL     1      -5.865   0.311  -0.793  0.00  0.00    +0.127 C 
ATOM     10  C   UNL     1      -0.863  -1.987   1.842  0.00  0.00    +0.051 C 
ATOM     11  C   UNL     1       0.590  -2.033   1.362  0.00  0.00    -0.022 C 
ATOM     12  C   UNL     1       1.053  -0.631   0.951  0.00  0.00    +0.033 C 
ATOM     13  C   UNL     1       2.549  -0.715   0.603  0.00  0.00    +0.123 C 
ATOM     14  C   UNL     1       2.724  -1.660  -0.588  0.00  0.00    +0.029 C 
ATOM     15  C   UNL     1       2.211  -3.055  -0.229  0.00  0.00    +0.007 C 
ATOM     16  C   UNL     1       0.735  -2.978   0.171  0.00  0.00    +0.008 C 
ATOM     17  C   UNL     1       1.482  -2.522   2.505  0.00  0.00    +0.012 C 
ATOM     18  H   UNL     1      -4.361   1.274  -1.942  0.00  0.00    +0.148 HD
ATOM     19  H   UNL     1      -1.870   0.876  -1.507  0.00  0.00    +0.167 HD
ENDROOT
BRANCH  14  20
ATOM     20  C   UNL     1       4.207  -1.745  -0.955  0.00  0.00    +0.077 C 
ATOM     21  C   UNL     1       4.721  -0.353  -1.327  0.00  0.00    +0.017 C 
BRANCH  20  22
ATOM     22  C   UNL     1       4.381  -2.675  -2.127  0.00  0.00    +0.216 C 
ATOM     23  O   UNL     1       3.415  -3.217  -2.621  0.00  0.00    -0.276 OA
ATOM     24  N   UNL     1       5.612  -2.905  -2.627  0.00  0.00    -0.313 N 
ATOM     25  H   UNL     1       6.385  -2.472  -2.232  0.00  0.00    +0.149 HD
BRANCH  24  26
ATOM     26  C   UNL     1       5.782  -3.809  -3.768  0.00  0.00    +0.132 C 
BRANCH  26  27
ATOM     27  C   UNL     1       7.265  -3.895  -4.134  0.00  0.00    +0.178 C 
BRANCH  27  28
ATOM     28  O   UNL     1       7.987  -4.500  -3.061  0.00  0.00    -0.381 OA
ATOM     29  C   UNL     1       9.389  -4.628  -3.303  0.00  0.00    +0.194 C 
ENDBRANCH  27  28
ENDBRANCH  26  27
ENDBRANCH  24  26
ENDBRANCH  20  22
ENDBRANCH  14  20
BRANCH  13  30
ATOM     30  O   UNL     1       3.275  -1.216   1.728  0.00  0.00    -0.391 OA
ATOM     31  H   UNL     1       4.227  -1.295   1.577  0.00  0.00    +0.210 HD
ENDBRANCH  13  30
TORSDOF 6
