REMARK  Name = ZINC04260777
REMARK  8 active torsions:
REMARK  status: ('A' for Active; 'I' for Inactive)
REMARK    1  A    between atoms: C_1  and  C_2
REMARK    2  A    between atoms: C_2  and  C_3
REMARK    3  A    between atoms: C_2  and  N_4
REMARK    4  A    between atoms: C_11  and  C_13
REMARK    5  A    between atoms: N_15  and  C_16
REMARK    6  A    between atoms: C_16  and  C_18
REMARK    7  A    between atoms: C_16  and  C_29
REMARK    8  A    between atoms: C_18  and  C_19
REMARK                            x       y       z     vdW  Elec       q    Type
REMARK                         _______ _______ _______ _____ _____    ______ ____
ROOT
ATOM      1  C   UNL     1      -0.811   1.712  -1.120  0.00  0.00    +0.232 C 
ATOM      2  O   UNL     1      -0.268   2.492  -1.873  0.00  0.00    -0.274 OA
ATOM      3  N   UNL     1      -2.077   1.316  -1.357  0.00  0.00    -0.302 N 
ATOM      4  H   UNL     1      -2.511   0.692  -0.755  0.00  0.00    +0.150 HD
ENDROOT
BRANCH   1  12
ATOM      5  N   UNL     1       2.325  -0.653  -2.042  0.00  0.00    -0.297 N 
ATOM      6  C   UNL     1       1.287   0.120  -1.665  0.00  0.00    +0.303 C 
ATOM      7  O   UNL     1       0.514   0.550  -2.500  0.00  0.00    -0.253 OA
ATOM      8  N   UNL     1       1.106   0.416  -0.363  0.00  0.00    -0.278 N 
ATOM      9  C   UNL     1       2.077  -0.018   0.652  0.00  0.00    +0.091 C 
ATOM     10  C   UNL     1       2.473   1.198   1.498  0.00  0.00    -0.063 C 
ATOM     11  C   UNL     1       0.412   2.351   0.948  0.00  0.00    -0.050 C 
ATOM     12  C   UNL     1      -0.068   1.183   0.080  0.00  0.00    +0.146 C 
ATOM     13  H   UNL     1       2.895  -1.061  -1.372  0.00  0.00    +0.150 HD
ATOM     14  N   UNL     1       1.259   1.836   2.042  0.00  0.00    +0.382 N 
ATOM     15  H   UNL     1       1.532   2.615   2.654  0.00  0.00    -0.086 HD
ATOM     16  H   UNL     1       0.728   1.145   2.585  0.00  0.00    -0.086 HD
BRANCH   5  18
ATOM     17  C   UNL     1       3.441   0.274  -4.011  0.00  0.00    +0.027 C 
ATOM     18  C   UNL     1       2.593  -0.876  -3.465  0.00  0.00    +0.068 C 
ATOM     19  C   UNL     1       3.349  -2.195  -3.641  0.00  0.00    +0.027 C 
ENDBRANCH   5  18
ENDBRANCH   1  12
BRANCH   3  20
ATOM     20  C   UNL     1      -2.799   1.830  -2.524  0.00  0.00    +0.164 C 
BRANCH  20  21
ATOM     21  C   UNL     1      -2.465   0.991  -3.731  0.00  0.00    +0.231 C 
ATOM     22  O   UNL     1      -1.699   0.056  -3.626  0.00  0.00    -0.274 OA
ATOM     23  N   UNL     1      -3.016   1.280  -4.926  0.00  0.00    -0.328 N 
ATOM     24  H   UNL     1      -3.629   2.027  -5.010  0.00  0.00    +0.145 HD
ATOM     25  H   UNL     1      -2.801   0.740  -5.702  0.00  0.00    +0.145 HD
ENDBRANCH  20  21
BRANCH  20  26
ATOM     26  C   UNL     1      -4.305   1.768  -2.261  0.00  0.00    +0.085 C 
BRANCH  26  27
ATOM     27  C   UNL     1      -4.656   2.702  -1.132  0.00  0.00    +0.019 A 
ATOM     28  C   UNL     1      -4.590   2.393   0.173  0.00  0.00    +0.031 A 
ATOM     29  C   UNL     1      -5.013   3.582   0.916  0.00  0.00    -0.000 A 
ATOM     30  C   UNL     1      -5.151   3.880   2.274  0.00  0.00    +0.010 A 
ATOM     31  C   UNL     1      -5.589   5.117   2.655  0.00  0.00    +0.001 A 
ATOM     32  C   UNL     1      -5.896   6.080   1.705  0.00  0.00    +0.002 A 
ATOM     33  C   UNL     1      -5.767   5.808   0.361  0.00  0.00    +0.026 A 
ATOM     34  C   UNL     1      -5.324   4.555  -0.051  0.00  0.00    +0.047 A 
ATOM     35  N   UNL     1      -5.096   3.988  -1.285  0.00  0.00    -0.358 N 
ATOM     36  H   UNL     1      -5.228   4.435  -2.136  0.00  0.00    +0.166 HD
ENDBRANCH  26  27
ENDBRANCH  20  26
ENDBRANCH   3  20
TORSDOF 6
