REMARK  Name = ZINC14274105
REMARK  8 active torsions:
REMARK  status: ('A' for Active; 'I' for Inactive)
REMARK    1  A    between atoms: C_4  and  N_32
REMARK    2  A    between atoms: C_5  and  C_7
REMARK    3  A    between atoms: C_10  and  C_12
REMARK    4  A    between atoms: N_14  and  C_15
REMARK    5  A    between atoms: C_15  and  N_17
REMARK    6  A    between atoms: N_17  and  C_18
REMARK    7  A    between atoms: C_22  and  N_24
REMARK    8  A    between atoms: C_25  and  C_27
REMARK                            x       y       z     vdW  Elec       q    Type
REMARK                         _______ _______ _______ _____ _____    ______ ____
ROOT
ATOM      1  C   UNL     1      -2.422   0.039   0.085  0.00  0.00    +0.141 C 
ATOM      2  S   UNL     1      -2.406   1.726   0.373  0.00  0.00    -0.018 S 
ENDROOT
BRANCH   1   5
ATOM      3  C   UNL     1      -4.755   0.048   0.163  0.00  0.00    +0.285 C 
ATOM      4  O   UNL     1      -4.744   1.247   0.367  0.00  0.00    -0.266 OA
ATOM      5  N   UNL     1      -3.595  -0.621   0.010  0.00  0.00    -0.261 N 
ATOM      6  H   UNL     1      -3.604  -1.577  -0.153  0.00  0.00    +0.157 HD
BRANCH   3  10
ATOM      7  C   UNL     1      -7.491  -2.294  -0.147  0.00  0.00    +0.138 A 
ATOM      8  C   UNL     1      -8.205  -1.150   0.071  0.00  0.00    +0.051 A 
ATOM      9  C   UNL     1      -7.282  -0.112   0.224  0.00  0.00    +0.055 A 
ATOM     10  C   UNL     1      -6.029  -0.669   0.082  0.00  0.00    +0.190 A 
ATOM     11  O   UNL     1      -6.182  -1.992  -0.139  0.00  0.00    -0.450 OA
BRANCH   7  16
ATOM     12  C   UNL     1      -9.550  -5.398   0.323  0.00  0.00    +0.001 A 
ATOM     13  C   UNL     1      -9.135  -6.161  -0.755  0.00  0.00    +0.002 A 
ATOM     14  C   UNL     1      -8.187  -5.670  -1.634  0.00  0.00    +0.033 A 
ATOM     15  C   UNL     1      -7.653  -4.412  -1.446  0.00  0.00    +0.137 A 
ATOM     16  C   UNL     1      -8.063  -3.639  -0.358  0.00  0.00    +0.047 A 
ATOM     17  C   UNL     1      -9.021  -4.141   0.526  0.00  0.00    +0.014 A 
BRANCH  15  18
ATOM     18  N   UNL     1      -6.643  -3.886  -2.392  0.00  0.00    +0.057 N 
ATOM     19  O   UNL     1      -6.287  -4.562  -3.341  0.00  0.00    -0.126 OA
ATOM     20  O   UNL     1      -6.169  -2.777  -2.222  0.00  0.00    -0.126 OA
ENDBRANCH  15  18
ENDBRANCH   7  16
ENDBRANCH   3  10
ENDBRANCH   1   5
BRANCH   1  21
ATOM     21  N   UNL     1      -1.262  -0.630  -0.068  0.00  0.00    -0.297 N 
ATOM     22  H   UNL     1      -1.268  -1.594  -0.173  0.00  0.00    +0.154 HD
BRANCH  21  23
ATOM     23  C   UNL     1      -0.049   0.067  -0.074  0.00  0.00    +0.034 A 
ATOM     24  C   UNL     1       0.915  -0.225  -1.032  0.00  0.00    +0.023 A 
ATOM     25  C   UNL     1       2.113   0.463  -1.039  0.00  0.00    +0.004 A 
ATOM     26  C   UNL     1       2.357   1.442  -0.096  0.00  0.00    +0.023 A 
ATOM     27  C   UNL     1       1.397   1.739   0.864  0.00  0.00    +0.035 A 
ATOM     28  C   UNL     1       0.193   1.050   0.874  0.00  0.00    +0.046 A 
BRANCH  27  29
ATOM     29  N   UNL     1       1.644   2.731   1.818  0.00  0.00    -0.281 N 
ATOM     30  C   UNL     1       1.139   2.611   3.062  0.00  0.00    +0.255 C 
ATOM     31  O   UNL     1       0.554   1.593   3.385  0.00  0.00    -0.269 OA
ATOM     32  H   UNL     1       2.180   3.505   1.585  0.00  0.00    +0.155 HD
BRANCH  30  33
ATOM     33  C   UNL     1       1.293   3.705   4.024  0.00  0.00    +0.074 A 
ATOM     34  C   UNL     1       0.853   3.783   5.336  0.00  0.00    +0.021 A 
ATOM     35  C   UNL     1       1.135   4.938   6.023  0.00  0.00    +0.008 A 
ATOM     36  C   UNL     1       1.818   5.931   5.397  0.00  0.00    +0.046 A 
ATOM     37  S   UNL     1       2.102   5.281   3.815  0.00  0.00    -0.092 S 
ENDBRANCH  30  33
ENDBRANCH  27  29
ENDBRANCH  21  23
ENDBRANCH   1  21
TORSDOF 8
