REMARK  Name = ZINC04895832
REMARK  10 active torsions:
REMARK  status: ('A' for Active; 'I' for Inactive)
REMARK    1  A    between atoms: C_1  and  C_2
REMARK    2  A    between atoms: C_2  and  C_3
REMARK    3  A    between atoms: C_3  and  C_5
REMARK    4  A    between atoms: C_3  and  N_6
REMARK    5  A    between atoms: N_6  and  S_7
REMARK    6  A    between atoms: S_7  and  C_10
REMARK    7  A    between atoms: C_13  and  N_16
REMARK    8  A    between atoms: C_17  and  C_19
REMARK    9  A    between atoms: C_19  and  N_56
REMARK   10  A    between atoms: C_20  and  N_56
REMARK                            x       y       z     vdW  Elec       q    Type
REMARK                         _______ _______ _______ _____ _____    ______ ____
ROOT
ATOM      1  C   UNL     1       0.731  -0.542   1.514  0.00  0.00    +0.105 A 
ATOM      2  C   UNL     1       0.259  -0.039   2.712  0.00  0.00    +0.030 A 
ATOM      3  C   UNL     1       0.830  -0.442   3.904  0.00  0.00    +0.025 A 
ATOM      4  C   UNL     1       1.885  -1.345   3.897  0.00  0.00    +0.033 A 
ATOM      5  C   UNL     1       2.359  -1.844   2.691  0.00  0.00    +0.025 A 
ATOM      6  C   UNL     1       1.781  -1.442   1.503  0.00  0.00    +0.030 A 
ENDROOT
BRANCH   4   7
ATOM      7  N   UNL     1       2.468  -1.752   5.102  0.00  0.00    -0.287 N 
ATOM      8  C   UNL     1       3.785  -2.031   5.152  0.00  0.00    +0.200 C 
ATOM      9  O   UNL     1       4.484  -1.839   4.180  0.00  0.00    -0.278 OA
ATOM     10  H   UNL     1       1.924  -1.832   5.901  0.00  0.00    +0.155 HD
BRANCH   8  11
ATOM     11  C   UNL     1       4.391  -2.582   6.418  0.00  0.00    +0.015 C 
BRANCH  11  12
ATOM     12  N   UNL     1       5.835  -2.798   6.208  0.00  0.00    +0.387 N 
ATOM     13  H   UNL     1       6.280  -1.904   5.970  0.00  0.00    -0.085 HD
ATOM     14  H   UNL     1       5.970  -3.464   5.439  0.00  0.00    -0.085 HD
BRANCH  12  15
ATOM     15  C   UNL     1       6.455  -3.338   7.433  0.00  0.00    -0.071 C 
ATOM     16  C   UNL     1       6.757  -2.173   8.397  0.00  0.00    -0.016 C 
ATOM     17  C   UNL     1       6.905  -2.728   9.788  0.00  0.00    -0.002 C 
ATOM     18  C   UNL     1       8.372  -3.031  10.149  0.00  0.00    -0.000 C 
ATOM     19  C   UNL     1       9.149  -3.687   8.991  0.00  0.00    -0.000 C 
ATOM     20  C   UNL     1       8.340  -4.733   8.274  0.00  0.00    -0.002 C 
ATOM     21  C   UNL     1       7.653  -4.075   7.061  0.00  0.00    -0.016 C 
ENDBRANCH  12  15
ENDBRANCH  11  12
ENDBRANCH   8  11
ENDBRANCH   4   7
BRANCH   1  22
ATOM     22  S   UNL     1      -0.004  -0.031  -0.004  0.00  0.00    +0.059 S 
ATOM     23  O   UNL     1       0.977  -0.221  -1.015  0.00  0.00    -0.153 OA
ATOM     24  O   UNL     1      -0.609   1.231   0.242  0.00  0.00    -0.153 OA
BRANCH  22  25
ATOM     25  N   UNL     1      -1.235  -1.089  -0.333  0.00  0.00    -0.187 NA
ATOM     26  H   UNL     1      -1.186  -1.662  -1.115  0.00  0.00    +0.148 HD
BRANCH  25  27
ATOM     27  C   UNL     1      -2.400  -1.155   0.552  0.00  0.00    +0.073 C 
ATOM     28  C   UNL     1      -2.201  -2.275   1.575  0.00  0.00    +0.025 C 
BRANCH  27  30
ATOM     29  C   UNL     1      -3.925  -0.260  -1.214  0.00  0.00    +0.005 C 
ATOM     30  C   UNL     1      -3.655  -1.439  -0.277  0.00  0.00    +0.017 C 
ENDBRANCH  27  30
ENDBRANCH  25  27
ENDBRANCH  22  25
ENDBRANCH   1  22
TORSDOF 8
