REMARK  Name = ZINC67491762
REMARK  10 active torsions:
REMARK  status: ('A' for Active; 'I' for Inactive)
REMARK    1  A    between atoms: C_1  and  C_2
REMARK    2  A    between atoms: C_2  and  C_3
REMARK    3  A    between atoms: C_3  and  N_4
REMARK    4  A    between atoms: C_10  and  N_13
REMARK    5  A    between atoms: C_14  and  C_16
REMARK    6  A    between atoms: N_18  and  C_19
REMARK    7  A    between atoms: C_19  and  C_20
REMARK    8  A    between atoms: C_20  and  C_21
REMARK    9  A    between atoms: C_20  and  C_22
REMARK   10  A    between atoms: C_20  and  N_23
REMARK                            x       y       z     vdW  Elec       q    Type
REMARK                         _______ _______ _______ _____ _____    ______ ____
ROOT
ATOM      1  N   UNL     1       1.993  -2.757  -5.466  0.00  0.00    -0.278 N 
ATOM      2  C   UNL     1       2.176  -2.986  -6.781  0.00  0.00    +0.303 C 
ATOM      3  O   UNL     1       1.217  -3.123  -7.513  0.00  0.00    -0.265 OA
ATOM      4  H   UNL     1       2.754  -2.567  -4.896  0.00  0.00    +0.155 HD
ENDROOT
BRANCH   1  11
ATOM      5  N   UNL     1       0.332  -0.420  -2.062  0.00  0.00    +0.385 N 
ATOM      6  C   UNL     1      -0.870  -1.280  -1.976  0.00  0.00    -0.042 C 
ATOM      7  C   UNL     1      -0.855  -2.129  -3.226  0.00  0.00    -0.061 A 
ATOM      8  C   UNL     1      -1.843  -2.869  -3.849  0.00  0.00    +0.002 A 
ATOM      9  C   UNL     1      -1.562  -3.571  -5.006  0.00  0.00    +0.002 A 
ATOM     10  C   UNL     1      -0.291  -3.537  -5.545  0.00  0.00    +0.023 A 
ATOM     11  C   UNL     1       0.706  -2.795  -4.923  0.00  0.00    +0.035 A 
ATOM     12  C   UNL     1       0.420  -2.090  -3.761  0.00  0.00    -0.041 A 
ATOM     13  C   UNL     1       1.279  -1.214  -2.877  0.00  0.00    -0.040 C 
ATOM     14  H   UNL     1       0.714  -0.249  -1.143  0.00  0.00    -0.081 HD
BRANCH   5  15
ATOM     15  C   UNL     1       0.013   0.848  -2.731  0.00  0.00    -0.078 C 
BRANCH  15  17
ATOM     16  C   UNL     1      -1.198   3.022  -2.511  0.00  0.00    +0.002 C 
ATOM     17  C   UNL     1      -0.865   1.702  -1.814  0.00  0.00    -0.022 C 
ENDBRANCH  15  17
ENDBRANCH   5  15
ENDBRANCH   1  11
BRANCH   2  18
ATOM     18  C   UNL     1       3.559  -3.071  -7.339  0.00  0.00    +0.299 C 
ATOM     19  O   UNL     1       4.518  -2.934  -6.607  0.00  0.00    -0.265 OA
ATOM     20  N   UNL     1       3.743  -3.299  -8.654  0.00  0.00    -0.309 N 
ATOM     21  H   UNL     1       2.976  -3.409  -9.239  0.00  0.00    +0.149 HD
BRANCH  20  22
ATOM     22  C   UNL     1       5.099  -3.382  -9.201  0.00  0.00    +0.092 C 
BRANCH  22  23
ATOM     23  C   UNL     1       5.028  -3.522 -10.723  0.00  0.00    -0.055 C 
ATOM     24  C   UNL     1       4.320  -2.301 -11.314  0.00  0.00    -0.008 C 
ATOM     25  C   UNL     1       6.444  -3.616 -11.293  0.00  0.00    -0.008 C 
BRANCH  23  26
ATOM     26  N   UNL     1       4.279  -4.737 -11.069  0.00  0.00    +0.384 N 
ATOM     27  C   UNL     1       4.888  -5.893 -10.399  0.00  0.00    -0.078 C 
ATOM     28  C   UNL     1       4.065  -7.149 -10.691  0.00  0.00    -0.019 C 
ATOM     29  C   UNL     1       4.032  -7.392 -12.203  0.00  0.00    -0.004 C 
ATOM     30  C   UNL     1       3.464  -6.151 -12.897  0.00  0.00    -0.019 C 
ATOM     31  C   UNL     1       4.309  -4.932 -12.524  0.00  0.00    -0.078 C 
ATOM     32  H   UNL     1       3.322  -4.640 -10.764  0.00  0.00    -0.081 HD
ENDBRANCH  23  26
ENDBRANCH  22  23
ENDBRANCH  20  22
ENDBRANCH   2  18
TORSDOF 7
