REMARK  Name = ZINC43250351
REMARK  8 active torsions:
REMARK  status: ('A' for Active; 'I' for Inactive)
REMARK    1  A    between atoms: C_1  and  C_2
REMARK    2  A    between atoms: C_2  and  C_3
REMARK    3  A    between atoms: C_3  and  C_5
REMARK    4  A    between atoms: C_3  and  N_21
REMARK    5  A    between atoms: C_5  and  C_7
REMARK    6  A    between atoms: C_5  and  O_13
REMARK    7  A    between atoms: C_8  and  C_12
REMARK    8  A    between atoms: O_13  and  C_14
REMARK                            x       y       z     vdW  Elec       q    Type
REMARK                         _______ _______ _______ _____ _____    ______ ____
ROOT
ATOM      1  C   UNL     1       0.715  -1.945   1.022  0.00  0.00    +0.196 C 
ENDROOT
BRANCH   1   2
ATOM      2  C   UNL     1       1.190  -2.454   2.359  0.00  0.00    +0.031 A 
ATOM      3  C   UNL     1       0.474  -3.023   3.359  0.00  0.00    -0.037 A 
ATOM      4  C   UNL     1       1.129  -3.419   4.511  0.00  0.00    +0.011 A 
ATOM      5  C   UNL     1       2.467  -3.226   4.606  0.00  0.00    +0.046 A 
ATOM      6  S   UNL     1       2.843  -2.470   3.033  0.00  0.00    -0.098 S 
ATOM      7  C   UNL     1      -1.013  -3.222   3.218  0.00  0.00    +0.045 C 
ENDBRANCH   1   2
BRANCH   1   8
ATOM      8  C   UNL     1       0.689  -0.415   1.039  0.00  0.00    -0.029 C 
BRANCH   8   9
ATOM      9  N   UNL     1      -0.225   0.047   2.092  0.00  0.00    +0.383 N 
ATOM     10  H   UNL     1       0.093  -0.293   2.987  0.00  0.00    -0.089 HD
ATOM     11  H   UNL     1      -0.242   1.056   2.103  0.00  0.00    -0.089 HD
ATOM     12  H   UNL     1      -1.153  -0.303   1.909  0.00  0.00    -0.089 HD
ENDBRANCH   8   9
BRANCH   8  14
ATOM     13  C   UNL     1       0.298   1.628  -0.345  0.00  0.00    +0.002 C 
ATOM     14  C   UNL     1       0.206   0.101  -0.318  0.00  0.00    -0.016 C 
ENDBRANCH   8  14
ENDBRANCH   1   8
BRANCH   1  15
ATOM     15  O   UNL     1       1.604  -2.395  -0.002  0.00  0.00    -0.484 OA
BRANCH  15  16
ATOM     16  C   UNL     1       1.383  -3.637  -0.509  0.00  0.00    +0.134 A 
ATOM     17  C   UNL     1       0.406  -4.451   0.047  0.00  0.00    +0.047 A 
ATOM     18  C   UNL     1       0.183  -5.712  -0.470  0.00  0.00    +0.004 A 
ATOM     19  C   UNL     1       0.933  -6.165  -1.540  0.00  0.00    +0.001 A 
ATOM     20  C   UNL     1       1.908  -5.356  -2.096  0.00  0.00    +0.018 A 
ATOM     21  C   UNL     1       2.130  -4.091  -1.587  0.00  0.00    +0.055 A 
ATOM     22  I   UNL     1       3.600  -2.863  -2.435  0.00  0.00    -0.040 I 
ENDBRANCH  15  16
ENDBRANCH   1  15
TORSDOF 6
