REMARK  Name = ZINC36783366
REMARK  8 active torsions:
REMARK  status: ('A' for Active; 'I' for Inactive)
REMARK    1  A    between atoms: C_1  and  C_2
REMARK    2  A    between atoms: C_2  and  C_4
REMARK    3  A    between atoms: C_2  and  N_7
REMARK    4  A    between atoms: N_7  and  C_8
REMARK    5  A    between atoms: N_7  and  C_9
REMARK    6  A    between atoms: C_9  and  C_11
REMARK    7  A    between atoms: C_9  and  C_13
REMARK    8  A    between atoms: C_11  and  N_12
REMARK                            x       y       z     vdW  Elec       q    Type
REMARK                         _______ _______ _______ _____ _____    ______ ____
ROOT
ATOM      1  C   UNL     1       2.740  -0.156   1.244  0.00  0.00    +0.105 C 
ENDROOT
BRANCH   1   2
ATOM      2  C   UNL     1       3.230   0.088  -0.160  0.00  0.00    +0.122 A 
ATOM      3  C   UNL     1       4.137   1.012  -0.527  0.00  0.00    +0.047 A 
ATOM      4  C   UNL     1       4.298   0.894  -1.926  0.00  0.00    +0.057 A 
ATOM      5  C   UNL     1       3.479  -0.095  -2.332  0.00  0.00    +0.170 A 
ATOM      6  O   UNL     1       2.840  -0.583  -1.256  0.00  0.00    -0.452 OA
ATOM      7 BR   UNL     1       3.271  -0.699  -4.111  0.00  0.00    -0.008 Br
ENDBRANCH   1   2
BRANCH   1   8
ATOM      8  N   UNL     1       1.272  -0.203   1.249  0.00  0.00    -0.294 NA
ATOM      9  C   UNL     1       0.741   0.072   2.591  0.00  0.00    +0.105 C 
BRANCH   8  11
ATOM     10  C   UNL     1       1.007   2.166   0.689  0.00  0.00    +0.024 C 
ATOM     11  C   UNL     1       0.712   0.727   0.260  0.00  0.00    +0.057 C 
BRANCH  11  12
ATOM     12  C   UNL     1      -0.801   0.523   0.167  0.00  0.00    +0.006 C 
ATOM     13  C   UNL     1      -1.355  -0.078  -1.126  0.00  0.00    +0.005 C 
ATOM     14  C   UNL     1      -1.574   1.404  -0.816  0.00  0.00    +0.005 C 
ENDBRANCH  11  12
ENDBRANCH   8  11
ENDBRANCH   1   8
BRANCH   1  15
ATOM     15  C   UNL     1       3.295  -1.488   1.753  0.00  0.00    -0.059 C 
BRANCH  15  16
ATOM     16  N   UNL     1       2.768  -1.757   3.098  0.00  0.00    +0.379 N 
ATOM     17  H   UNL     1       3.282  -2.519   3.514  0.00  0.00    -0.090 HD
ATOM     18  H   UNL     1       2.869  -0.931   3.669  0.00  0.00    -0.090 HD
ATOM     19  H   UNL     1       1.792  -2.004   3.034  0.00  0.00    -0.090 HD
ENDBRANCH  15  16
ENDBRANCH   1  15
TORSDOF 6
