REMARK  Name = ZINC28731458
REMARK  14 active torsions:
REMARK  status: ('A' for Active; 'I' for Inactive)
REMARK    1  A    between atoms: C_1  and  C_2
REMARK    2  A    between atoms: C_2  and  C_3
REMARK    3  A    between atoms: C_3  and  C_4
REMARK    4  A    between atoms: C_7  and  C_10
REMARK    5  A    between atoms: C_10  and  C_12
REMARK    6  A    between atoms: C_10  and  N_15
REMARK    7  A    between atoms: C_12  and  C_13
REMARK    8  A    between atoms: C_12  and  C_14
REMARK    9  A    between atoms: N_15  and  C_16
REMARK   10  A    between atoms: C_16  and  C_17
REMARK   11  A    between atoms: N_19  and  N_20
REMARK   12  A    between atoms: C_23  and  C_27
REMARK   13  A    between atoms: C_23  and  C_28
REMARK   14  A    between atoms: C_28  and  C_29
REMARK                            x       y       z     vdW  Elec       q    Type
REMARK                         _______ _______ _______ _____ _____    ______ ____
ROOT
ATOM      1  N   UNL     1      -3.003   4.306   4.603  0.00  0.00    +0.389 N 
ATOM      2  H   UNL     1      -3.260   4.721   5.589  0.00  0.00    -0.084 HD
ATOM      3  H   UNL     1      -2.141   4.850   4.190  0.00  0.00    -0.084 HD
ENDROOT
BRANCH   1   4
ATOM      4  C   UNL     1      -2.663   2.884   4.744  0.00  0.00    -0.038 C 
BRANCH   4   8
ATOM      5  C   UNL     1      -0.053   1.723   1.568  0.00  0.00    -0.047 A 
ATOM      6  C   UNL     1       0.109   2.951   2.182  0.00  0.00    +0.004 A 
ATOM      7  C   UNL     1      -0.738   3.329   3.207  0.00  0.00    +0.002 A 
ATOM      8  C   UNL     1      -1.742   2.475   3.623  0.00  0.00    -0.061 A 
ATOM      9  C   UNL     1      -1.902   1.245   3.012  0.00  0.00    +0.002 A 
ATOM     10  C   UNL     1      -1.057   0.869   1.985  0.00  0.00    +0.004 A 
BRANCH   5  11
ATOM     11  C   UNL     1       0.868   1.314   0.447  0.00  0.00    +0.035 C 
BRANCH  11  13
ATOM     12  C   UNL     1       1.212   1.351  -2.027  0.00  0.00    +0.004 C 
ATOM     13  C   UNL     1       0.278   1.767  -0.889  0.00  0.00    +0.001 C 
ENDBRANCH  11  13
ENDBRANCH   5  11
ENDBRANCH   4   8
BRANCH   4  14
ATOM     14  C   UNL     1      -1.966   2.657   6.087  0.00  0.00    -0.027 C 
ATOM     15  C   UNL     1      -2.937   2.971   7.226  0.00  0.00    +0.006 C 
ATOM     16  C   UNL     1      -1.516   1.198   6.187  0.00  0.00    +0.006 C 
ENDBRANCH   4  14
ENDBRANCH   1   4
BRANCH   1  17
ATOM     17  C   UNL     1      -4.150   4.487   3.703  0.00  0.00    +0.017 C 
BRANCH  17  18
ATOM     18  C   UNL     1      -4.391   5.959   3.487  0.00  0.00    +0.213 C 
ATOM     19  O   UNL     1      -3.679   6.777   4.029  0.00  0.00    -0.276 OA
ATOM     20  N   UNL     1      -5.400   6.367   2.691  0.00  0.00    -0.225 N 
ATOM     21  H   UNL     1      -6.046   5.625   2.199  0.00  0.00    +0.173 HD
BRANCH  20  22
ATOM     22  N   UNL     1      -5.625   7.735   2.490  0.00  0.00    -0.137 N 
ATOM     23  C   UNL     1      -6.635   8.426   3.052  0.00  0.00    +0.263 C 
ATOM     24  O   UNL     1      -7.489   7.999   3.799  0.00  0.00    -0.271 OA
ATOM     25  C   UNL     1      -6.481   9.851   2.558  0.00  0.00    +0.111 C 
ATOM     26  N   UNL     1      -5.295   9.789   1.687  0.00  0.00    -0.284 N 
ATOM     27  C   UNL     1      -4.866   8.515   1.711  0.00  0.00    +0.326 C 
ATOM     28  O   UNL     1      -3.897   8.116   1.094  0.00  0.00    -0.251 OA
ATOM     29  C   UNL     1      -7.715  10.275   1.758  0.00  0.00    +0.041 C 
ATOM     30  H   UNL     1      -4.940  10.697   1.176  0.00  0.00    +0.151 HD
BRANCH  25  31
ATOM     31  C   UNL     1      -6.243  10.811   3.725  0.00  0.00    +0.032 C 
ATOM     32  C   UNL     1      -5.988  12.219   3.184  0.00  0.00    +0.006 C 
ENDBRANCH  25  31
ENDBRANCH  20  22
ENDBRANCH  17  18
ENDBRANCH   1  17
TORSDOF 9
