REMARK  Name = ZINC04726828
REMARK  9 active torsions:
REMARK  status: ('A' for Active; 'I' for Inactive)
REMARK    1  A    between atoms: C_1  and  C_2
REMARK    2  A    between atoms: C_2  and  S_3
REMARK    3  A    between atoms: S_3  and  C_4
REMARK    4  A    between atoms: C_4  and  S_23
REMARK    5  A    between atoms: C_5  and  C_21
REMARK    6  A    between atoms: C_6  and  C_13
REMARK    7  A    between atoms: C_8  and  C_11
REMARK    8  A    between atoms: S_23  and  C_24
REMARK    9  A    between atoms: C_24  and  C_25
REMARK                            x       y       z     vdW  Elec       q    Type
REMARK                         _______ _______ _______ _____ _____    ______ ____
ROOT
ATOM      1  C   UNL     1      -0.423   3.871   1.824  0.00  0.00    +0.154 C 
ATOM      2  C   UNL     1      -0.894   4.741   3.003  0.00  0.00    +0.133 C 
ATOM      3  C   UNL     1      -1.136   6.231   2.756  0.00  0.00    +0.075 C 
ATOM      4  C   UNL     1       0.271   5.729   3.198  0.00  0.00    +0.141 C 
ATOM      5  C   UNL     1       1.284   5.365   2.143  0.00  0.00    +0.090 C 
ATOM      6  N   UNL     1       2.479   6.012   1.969  0.00  0.00    -0.347 N 
ATOM      7  H   UNL     1       2.717   6.755   2.546  0.00  0.00    +0.143 HD
ATOM      8  H   UNL     1       3.087   5.727   1.269  0.00  0.00    +0.143 HD
ATOM      9  N   UNL     1       0.904   4.369   1.411  0.00  0.00    -0.352 N 
ATOM     10  H   UNL     1       1.456   3.973   0.641  0.00  0.00    +0.163 HD
ENDROOT
BRANCH   3  11
ATOM     11  C   UNL     1      -1.949   6.983   3.778  0.00  0.00    -0.022 A 
ATOM     12  C   UNL     1      -1.825   6.676   5.120  0.00  0.00    +0.007 A 
ATOM     13  C   UNL     1      -2.566   7.369   6.059  0.00  0.00    +0.020 A 
ATOM     14  C   UNL     1      -3.441   8.362   5.655  0.00  0.00    +0.042 A 
ATOM     15  C   UNL     1      -3.569   8.665   4.312  0.00  0.00    +0.040 A 
ATOM     16  C   UNL     1      -2.823   7.975   3.373  0.00  0.00    +0.046 A 
ATOM     17 CL   UNL     1      -2.983   8.356   1.687  0.00  0.00    -0.083 Cl
ATOM     18 CL   UNL     1      -4.376   9.227   6.834  0.00  0.00    -0.083 Cl
ENDBRANCH   3  11
BRANCH   4  19
ATOM     19  C   UNL     1       0.772   6.068   4.540  0.00  0.00    +0.079 C 
ATOM     20  N   UNL     1       1.159   6.329   5.576  0.00  0.00    -0.195 NA
ENDBRANCH   4  19
BRANCH   2  21
ATOM     21  C   UNL     1      -1.560   4.068   4.131  0.00  0.00    +0.076 C 
ATOM     22  N   UNL     1      -2.073   3.549   5.002  0.00  0.00    -0.196 NA
ENDBRANCH   2  21
BRANCH   1  23
ATOM     23  S   UNL     1      -0.290   2.138   2.343  0.00  0.00    -0.121 S 
BRANCH  23  25
ATOM     24  C   UNL     1       1.470   0.091   1.906  0.00  0.00    +0.015 C 
ATOM     25  C   UNL     1       1.191   1.535   1.487  0.00  0.00    +0.069 C 
ENDBRANCH  23  25
ENDBRANCH   1  23
BRANCH   1  26
ATOM     26  S   UNL     1      -1.587   4.017   0.440  0.00  0.00    -0.121 S 
BRANCH  26  27
ATOM     27  C   UNL     1      -0.803   3.071  -0.895  0.00  0.00    +0.069 C 
ATOM     28  C   UNL     1      -1.619   3.230  -2.179  0.00  0.00    +0.015 C 
ENDBRANCH  26  27
ENDBRANCH   1  26
TORSDOF 7
