REMARK  Name = ZINC20927677
REMARK  9 active torsions:
REMARK  status: ('A' for Active; 'I' for Inactive)
REMARK    1  A    between atoms: C_1  and  O_2
REMARK    2  A    between atoms: O_2  and  C_3
REMARK    3  A    between atoms: C_8  and  N_9
REMARK    4  A    between atoms: N_9  and  S_10
REMARK    5  A    between atoms: S_10  and  C_13
REMARK    6  A    between atoms: C_16  and  N_22
REMARK    7  A    between atoms: C_17  and  N_19
REMARK    8  A    between atoms: N_22  and  N_23
REMARK    9  A    between atoms: N_23  and  C_24
REMARK                            x       y       z     vdW  Elec       q    Type
REMARK                         _______ _______ _______ _____ _____    ______ ____
ROOT
ATOM      1  C   UNL     1       0.086  -4.082  -2.365  0.00  0.00    +0.111 A 
ATOM      2  C   UNL     1      -1.221  -4.037  -2.816  0.00  0.00    +0.031 A 
ATOM      3  C   UNL     1      -1.486  -3.780  -4.146  0.00  0.00    +0.028 A 
ATOM      4  C   UNL     1      -0.438  -3.568  -5.033  0.00  0.00    +0.075 A 
ATOM      5  C   UNL     1       0.873  -3.615  -4.578  0.00  0.00    +0.150 A 
ATOM      6  C   UNL     1       1.131  -3.866  -3.244  0.00  0.00    +0.063 A 
ENDROOT
BRANCH   1   7
ATOM      7  S   UNL     1       0.420  -4.409  -0.666  0.00  0.00    +0.073 S 
ATOM      8  O   UNL     1       1.739  -4.933  -0.605  0.00  0.00    -0.150 OA
ATOM      9  O   UNL     1      -0.705  -5.116  -0.160  0.00  0.00    -0.150 OA
BRANCH   7  10
ATOM     10  N   UNL     1       0.453  -2.950   0.116  0.00  0.00    -0.213 N 
ATOM     11  H   UNL     1       1.260  -2.661   0.570  0.00  0.00    +0.174 HD
BRANCH  10  17
ATOM     12  C   UNL     1      -0.548  -0.747   0.076  0.00  0.00    +0.142 A 
ATOM     13  C   UNL     1      -1.676   0.057   0.075  0.00  0.00    +0.047 A 
ATOM     14  C   UNL     1      -2.934  -0.517   0.125  0.00  0.00    +0.004 A 
ATOM     15  C   UNL     1      -3.069  -1.892   0.175  0.00  0.00    +0.002 A 
ATOM     16  C   UNL     1      -1.948  -2.700   0.176  0.00  0.00    +0.028 A 
ATOM     17  C   UNL     1      -0.684  -2.133   0.121  0.00  0.00    +0.090 A 
BRANCH  12  19
ATOM     18  C   UNL     1       0.752   1.242  -0.016  0.00  0.00    +0.277 C 
ATOM     19  O   UNL     1       0.690  -0.184   0.028  0.00  0.00    -0.493 OA
ENDBRANCH  12  19
ENDBRANCH  10  17
ENDBRANCH   7  10
ENDBRANCH   1   7
BRANCH   5  20
ATOM     20  N   UNL     1       1.993  -3.390  -5.519  0.00  0.00    +0.058 N 
ATOM     21  O   UNL     1       1.931  -3.821  -6.647  0.00  0.00    -0.126 OA
ATOM     22  O   UNL     1       2.970  -2.775  -5.161  0.00  0.00    -0.126 OA
ENDBRANCH   5  20
BRANCH   4  23
ATOM     23  N   UNL     1      -0.702  -3.309  -6.380  0.00  0.00    -0.264 N 
ATOM     24  H   UNL     1       0.029  -3.236  -7.013  0.00  0.00    +0.170 HD
BRANCH  23  25
ATOM     25  N   UNL     1      -2.024  -3.155  -6.817  0.00  0.00    -0.261 N 
ATOM     26  H   UNL     1      -2.750  -3.149  -6.174  0.00  0.00    +0.170 HD
BRANCH  25  27
ATOM     27  C   UNL     1      -2.285  -3.017  -8.120  0.00  0.00    +0.116 C 
ATOM     28  C   UNL     1      -1.371  -3.114  -9.197  0.00  0.00    +0.024 A 
ATOM     29  C   UNL     1       0.004  -3.367  -9.267  0.00  0.00    +0.012 A 
ATOM     30  C   UNL     1       0.632  -3.400 -10.497  0.00  0.00    +0.001 A 
ATOM     31  C   UNL     1      -0.093  -3.184 -11.658  0.00  0.00    +0.002 A 
ATOM     32  C   UNL     1      -1.455  -2.932 -11.610  0.00  0.00    +0.024 A 
ATOM     33  C   UNL     1      -2.115  -2.893 -10.385  0.00  0.00    +0.043 A 
ATOM     34  N   UNL     1      -3.423  -2.669 -10.067  0.00  0.00    -0.280 N 
ATOM     35  C   UNL     1      -3.615  -2.729  -8.762  0.00  0.00    +0.264 C 
ATOM     36  O   UNL     1      -4.676  -2.577  -8.183  0.00  0.00    -0.268 OA
ATOM     37  H   UNL     1      -4.122  -2.493 -10.716  0.00  0.00    +0.155 HD
ENDBRANCH  25  27
ENDBRANCH  23  25
ENDBRANCH   4  23
TORSDOF 8
