REMARK  Name = ZINC44714431
REMARK  9 active torsions:
REMARK  status: ('A' for Active; 'I' for Inactive)
REMARK    1  A    between atoms: C_1  and  C_2
REMARK    2  A    between atoms: C_3  and  C_14
REMARK    3  A    between atoms: C_6  and  C_12
REMARK    4  A    between atoms: C_14  and  C_15
REMARK    5  A    between atoms: C_15  and  N_16
REMARK    6  A    between atoms: C_17  and  C_19
REMARK    7  A    between atoms: C_30  and  C_32
REMARK    8  A    between atoms: C_37  and  O_38
REMARK    9  A    between atoms: O_38  and  C_39
REMARK                            x       y       z     vdW  Elec       q    Type
REMARK                         _______ _______ _______ _____ _____    ______ ____
ROOT
ATOM      1  C   UNL     1       2.555   1.090  -6.479  0.00  0.00    +0.100 C 
ATOM      2  C   UNL     1       1.772   2.417  -6.593  0.00  0.00    +0.121 C 
ATOM      3  N   UNL     1       2.809   3.472  -6.501  0.00  0.00    -0.296 N 
ATOM      4  C   UNL     1       3.952   2.936  -7.278  0.00  0.00    +0.115 C 
ATOM      5  C   UNL     1       3.984   1.434  -6.933  0.00  0.00    -0.004 C 
ATOM      6  C   UNL     1       4.359   0.617  -8.165  0.00  0.00    -0.010 C 
ATOM      7  C   UNL     1       5.803   0.933  -8.562  0.00  0.00    -0.082 C 
ATOM      8  N   UNL     1       6.701   0.611  -7.446  0.00  0.00    +0.379 N 
ATOM      9  C   UNL     1       6.394   1.468  -6.294  0.00  0.00    -0.082 C 
ATOM     10  C   UNL     1       4.974   1.174  -5.801  0.00  0.00    -0.010 C 
ATOM     11  C   UNL     1       2.730   4.653  -5.856  0.00  0.00    +0.250 C 
ATOM     12  O   UNL     1       1.754   4.911  -5.177  0.00  0.00    -0.270 OA
ATOM     13  H   UNL     1       6.579  -0.356  -7.186  0.00  0.00    -0.086 HD
ATOM     14  H   UNL     1       7.657   0.763  -7.731  0.00  0.00    -0.086 HD
ENDROOT
BRANCH  11  15
ATOM     15  C   UNL     1       3.827   5.632  -5.973  0.00  0.00    +0.078 A 
ATOM     16  C   UNL     1       4.531   5.758  -7.173  0.00  0.00    +0.017 A 
ATOM     17  C   UNL     1       5.555   6.675  -7.276  0.00  0.00    +0.001 A 
ATOM     18  C   UNL     1       5.889   7.474  -6.194  0.00  0.00    +0.004 A 
ATOM     19  C   UNL     1       5.202   7.360  -5.003  0.00  0.00    +0.046 A 
ATOM     20  C   UNL     1       4.165   6.446  -4.883  0.00  0.00    +0.132 A 
BRANCH  20  21
ATOM     21  O   UNL     1       3.485   6.337  -3.714  0.00  0.00    -0.494 OA
ATOM     22  C   UNL     1       3.885   7.199  -2.647  0.00  0.00    +0.277 C 
ENDBRANCH  20  21
ENDBRANCH  11  15
BRANCH   1  24
ATOM     23  N   UNL     1       2.608  -0.716  -4.790  0.00  0.00    -0.315 N 
ATOM     24  C   UNL     1       2.560   0.605  -5.052  0.00  0.00    +0.218 C 
ATOM     25  O   UNL     1       2.521   1.403  -4.140  0.00  0.00    -0.275 OA
ATOM     26  H   UNL     1       2.639  -1.355  -5.519  0.00  0.00    +0.149 HD
BRANCH  23  27
ATOM     27  C   UNL     1       2.613  -1.188  -3.403  0.00  0.00    +0.109 C 
BRANCH  27  28
ATOM     28  C   UNL     1       2.671  -2.716  -3.384  0.00  0.00    +0.056 C 
BRANCH  28  31
ATOM     29  C   UNL     1       0.171  -3.400  -1.676  0.00  0.00    +0.063 C 
ATOM     30  C   UNL     1       1.601  -3.500  -1.211  0.00  0.00    +0.017 A 
ATOM     31  C   UNL     1       2.675  -3.202  -1.957  0.00  0.00    -0.018 A 
ATOM     32  C   UNL     1       3.855  -3.438  -1.120  0.00  0.00    +0.004 A 
ATOM     33  C   UNL     1       5.227  -3.312  -1.325  0.00  0.00    +0.029 A 
ATOM     34  C   UNL     1       6.104  -3.628  -0.291  0.00  0.00    +0.052 A 
ATOM     35  C   UNL     1       5.605  -4.069   0.943  0.00  0.00    +0.021 A 
ATOM     36  C   UNL     1       4.262  -4.193   1.145  0.00  0.00    +0.027 A 
ATOM     37  C   UNL     1       3.367  -3.882   0.124  0.00  0.00    +0.047 A 
ATOM     38  N   UNL     1       1.995  -3.903   0.036  0.00  0.00    -0.358 N 
ATOM     39  H   UNL     1       1.395  -4.166   0.751  0.00  0.00    +0.166 HD
BRANCH  34  40
ATOM     40  C   UNL     1       7.517  -3.503  -0.488  0.00  0.00    +0.099 C 
ATOM     41  N   UNL     1       8.638  -3.404  -0.645  0.00  0.00    -0.191 NA
ENDBRANCH  34  40
ENDBRANCH  28  31
ENDBRANCH  27  28
ENDBRANCH  23  27
ENDBRANCH   1  24
TORSDOF 7
