REMARK  Name = ZINC64968347
REMARK  7 active torsions:
REMARK  status: ('A' for Active; 'I' for Inactive)
REMARK    1  A    between atoms: C_1  and  C_2
REMARK    2  A    between atoms: C_2  and  C_3
REMARK    3  A    between atoms: C_2  and  C_4
REMARK    4  A    between atoms: C_10  and  C_14
REMARK    5  A    between atoms: N_16  and  C_17
REMARK    6  A    between atoms: C_17  and  C_18
REMARK    7  A    between atoms: C_18  and  C_19
REMARK                            x       y       z     vdW  Elec       q    Type
REMARK                         _______ _______ _______ _____ _____    ______ ____
ROOT
ATOM      1  C   UNL     1      -4.068  -3.113  -4.742  0.00  0.00    +0.244 C 
ATOM      2  O   UNL     1      -4.406  -2.166  -5.426  0.00  0.00    -0.270 OA
ATOM      3  N   UNL     1      -4.329  -4.369  -5.156  0.00  0.00    -0.311 N 
ATOM      4  H   UNL     1      -4.059  -5.125  -4.611  0.00  0.00    +0.149 HD
ENDROOT
BRANCH   1  10
ATOM      5  C   UNL     1      -1.433  -0.534   0.013  0.00  0.00    +0.263 C 
ATOM      6  N   UNL     1      -1.431  -2.000   0.102  0.00  0.00    -0.307 N 
ATOM      7  C   UNL     1      -2.065  -2.466  -1.051  0.00  0.00    +0.072 A 
ATOM      8  C   UNL     1      -2.336  -3.762  -1.480  0.00  0.00    +0.027 A 
ATOM      9  C   UNL     1      -2.984  -3.976  -2.675  0.00  0.00    +0.015 A 
ATOM     10  C   UNL     1      -3.373  -2.888  -3.461  0.00  0.00    +0.040 A 
ATOM     11  C   UNL     1      -3.102  -1.587  -3.031  0.00  0.00    +0.060 A 
ATOM     12  C   UNL     1      -2.449  -1.375  -1.829  0.00  0.00    +0.145 A 
ATOM     13  O   UNL     1      -2.086  -0.213  -1.218  0.00  0.00    -0.469 OA
ATOM     14  H   UNL     1      -1.061  -2.537   0.820  0.00  0.00    +0.150 HD
BRANCH   5  16
ATOM     15  C   UNL     1      -0.019   1.526   0.010  0.00  0.00    +0.012 C 
ATOM     16  C   UNL     1       0.002  -0.004   0.002  0.00  0.00    +0.042 C 
ATOM     17  C   UNL     1       0.742  -0.511   1.242  0.00  0.00    +0.012 C 
ENDBRANCH   5  16
ENDBRANCH   1  10
BRANCH   3  18
ATOM     18  C   UNL     1      -5.019  -4.593  -6.429  0.00  0.00    +0.109 C 
BRANCH  18  19
ATOM     19  C   UNL     1      -5.189  -6.096  -6.659  0.00  0.00    +0.052 C 
BRANCH  19  20
ATOM     20  C   UNL     1      -5.899  -6.326  -7.968  0.00  0.00    -0.040 C 
ATOM     21  C   UNL     1      -5.329  -6.577  -9.169  0.00  0.00    +0.000 A 
ATOM     22  C   UNL     1      -3.932  -6.707  -9.599  0.00  0.00    +0.030 A 
ATOM     23  C   UNL     1      -3.667  -6.967 -10.900  0.00  0.00    +0.042 A 
ATOM     24  C   UNL     1      -4.692  -7.115 -11.846  0.00  0.00    +0.022 A 
ATOM     25  C   UNL     1      -6.000  -7.011 -11.526  0.00  0.00    +0.027 A 
ATOM     26  C   UNL     1      -6.393  -6.739 -10.187  0.00  0.00    +0.043 A 
ATOM     27  N   UNL     1      -7.573  -6.593  -9.636  0.00  0.00    -0.380 N 
ATOM     28  C   UNL     1      -7.393  -6.328  -8.204  0.00  0.00    +0.144 C 
ATOM     29 CL   UNL     1      -2.015  -7.120 -11.413  0.00  0.00    -0.084 Cl
ATOM     30  H   UNL     1      -8.425  -6.654 -10.098  0.00  0.00    +0.160 HD
ENDBRANCH  19  20
ENDBRANCH  18  19
ENDBRANCH   3  18
TORSDOF 5
