REMARK  Name = ZINC21124037
REMARK  9 active torsions:
REMARK  status: ('A' for Active; 'I' for Inactive)
REMARK    1  A    between atoms: C_1  and  C_2
REMARK    2  A    between atoms: C_2  and  C_4
REMARK    3  A    between atoms: C_2  and  O_17
REMARK    4  A    between atoms: N_6  and  C_7
REMARK    5  A    between atoms: C_11  and  N_13
REMARK    6  A    between atoms: O_17  and  C_18
REMARK    7  A    between atoms: C_18  and  C_20
REMARK    8  A    between atoms: C_23  and  S_26
REMARK    9  A    between atoms: S_26  and  N_29
REMARK                            x       y       z     vdW  Elec       q    Type
REMARK                         _______ _______ _______ _____ _____    ______ ____
ROOT
ATOM      1  O   UNL     1      -2.922   4.282   5.430  0.00  0.00    -0.449 OA
ENDROOT
BRANCH   1   3
ATOM      2  C   UNL     1      -5.010   5.293   6.172  0.00  0.00    +0.062 C 
ATOM      3  C   UNL     1      -3.707   4.617   6.605  0.00  0.00    +0.259 C 
BRANCH   3   4
ATOM      4  C   UNL     1      -2.922   5.556   7.483  0.00  0.00    +0.258 C 
ATOM      5  O   UNL     1      -1.848   5.980   7.110  0.00  0.00    -0.271 OA
ATOM      6  N   UNL     1      -3.412   5.924   8.683  0.00  0.00    -0.282 N 
ATOM      7  H   UNL     1      -4.418   5.601   8.989  0.00  0.00    +0.155 HD
BRANCH   6   8
ATOM      8  C   UNL     1      -2.641   6.719   9.541  0.00  0.00    +0.036 A 
ATOM      9  C   UNL     1      -2.719   6.536  10.915  0.00  0.00    +0.026 A 
ATOM     10  C   UNL     1      -1.952   7.316  11.759  0.00  0.00    +0.042 A 
ATOM     11  C   UNL     1      -1.116   8.289  11.236  0.00  0.00    +0.154 A 
ATOM     12  C   UNL     1      -1.042   8.476   9.866  0.00  0.00    +0.163 A 
ATOM     13  C   UNL     1      -1.802   7.693   9.018  0.00  0.00    +0.059 A 
ATOM     14  F   UNL     1      -0.372   9.055  12.063  0.00  0.00    -0.203 F 
BRANCH  12  15
ATOM     15  N   UNL     1      -0.147   9.515   9.309  0.00  0.00    +0.059 N 
ATOM     16  O   UNL     1      -0.080   9.680   8.104  0.00  0.00    -0.126 OA
ATOM     17  O   UNL     1       0.524  10.205  10.056  0.00  0.00    -0.126 OA
ENDBRANCH  12  15
ENDBRANCH   6   8
ENDBRANCH   3   4
ENDBRANCH   1   3
BRANCH   1  18
ATOM     18  C   UNL     1      -3.129   3.070   4.881  0.00  0.00    +0.340 C 
ATOM     19  O   UNL     1      -3.943   2.312   5.370  0.00  0.00    -0.245 OA
BRANCH  18  20
ATOM     20  C   UNL     1      -2.365   2.661   3.684  0.00  0.00    +0.059 A 
ATOM     21  C   UNL     1      -2.578   1.405   3.112  0.00  0.00    +0.017 A 
ATOM     22  C   UNL     1      -1.862   1.030   1.994  0.00  0.00    +0.029 A 
ATOM     23  C   UNL     1      -0.935   1.895   1.440  0.00  0.00    +0.106 A 
ATOM     24  C   UNL     1      -0.716   3.139   2.005  0.00  0.00    +0.029 A 
ATOM     25  C   UNL     1      -1.429   3.529   3.119  0.00  0.00    +0.017 A 
BRANCH  23  26
ATOM     26  S   UNL     1      -0.025   1.407   0.012  0.00  0.00    +0.061 S 
ATOM     27  O   UNL     1      -0.015  -0.013   0.002  0.00  0.00    -0.153 OA
ATOM     28  O   UNL     1       1.169   2.177   0.009  0.00  0.00    -0.153 OA
BRANCH  26  29
ATOM     29  N   UNL     1      -0.898   1.884  -1.312  0.00  0.00    -0.177 NA
ATOM     30  C   UNL     1      -1.914   1.078  -2.004  0.00  0.00    +0.109 C 
ATOM     31  C   UNL     1      -2.440   1.919  -3.187  0.00  0.00    +0.018 C 
ATOM     32  C   UNL     1      -1.283   2.922  -3.437  0.00  0.00    +0.018 C 
ATOM     33  C   UNL     1      -0.782   3.185  -1.995  0.00  0.00    +0.109 C 
ENDBRANCH  26  29
ENDBRANCH  23  26
ENDBRANCH  18  20
ENDBRANCH   1  18
TORSDOF 8
