REMARK  Name = ZINC36888099
REMARK  3 active torsions:
REMARK  status: ('A' for Active; 'I' for Inactive)
REMARK    1  A    between atoms: C_3  and  O_11
REMARK    2  A    between atoms: C_6  and  C_7
REMARK    3  A    between atoms: O_11  and  C_12
REMARK                            x       y       z     vdW  Elec       q    Type
REMARK                         _______ _______ _______ _____ _____    ______ ____
ROOT
ATOM      1  C   UNL     1      -0.010   1.360  -0.009  0.00  0.00    +0.015 A 
ATOM      2  C   UNL     1       1.168   2.075  -0.018  0.00  0.00    +0.050 A 
ATOM      3  C   UNL     1       2.387   1.409  -0.011  0.00  0.00    +0.164 A 
ATOM      4  C   UNL     1       2.423   0.018   0.005  0.00  0.00    +0.166 A 
ATOM      5  C   UNL     1       1.248  -0.704   0.015  0.00  0.00    +0.053 A 
ATOM      6  C   UNL     1       0.021  -0.036   0.008  0.00  0.00    +0.015 A 
ATOM      7  F   UNL     1       3.611  -0.626   0.011  0.00  0.00    -0.202 F 
ENDROOT
BRANCH   6   8
ATOM      8  C   UNL     1      -1.240  -0.805   0.019  0.00  0.00    +0.094 C 
ATOM      9  N   UNL     1      -1.208  -2.137   0.035  0.00  0.00    -0.387 N 
ATOM     10  N   UNL     1      -2.410  -0.166   0.013  0.00  0.00    -0.345 N 
ATOM     11  H   UNL     1      -0.357  -2.601   0.040  0.00  0.00    +0.157 HD
ATOM     12  H   UNL     1      -2.433   0.803   0.001  0.00  0.00    +0.144 HD
ATOM     13  H   UNL     1      -3.238  -0.671   0.019  0.00  0.00    +0.144 HD
ATOM     14  H   UNL     1      -2.037  -2.642   0.042  0.00  0.00    +0.157 HD
ENDBRANCH   6   8
BRANCH   3  15
ATOM     15  O   UNL     1       3.545   2.117  -0.022  0.00  0.00    -0.452 OA
BRANCH  15  16
ATOM     16  C   UNL     1       4.188   2.272  -1.209  0.00  0.00    +0.147 A 
ATOM     17  C   UNL     1       3.601   1.817  -2.381  0.00  0.00    +0.049 A 
ATOM     18  C   UNL     1       4.256   1.976  -3.587  0.00  0.00    +0.019 A 
ATOM     19  C   UNL     1       5.495   2.589  -3.628  0.00  0.00    +0.019 A 
ATOM     20  C   UNL     1       6.082   3.045  -2.461  0.00  0.00    +0.039 A 
ATOM     21  C   UNL     1       5.429   2.892  -1.252  0.00  0.00    +0.084 A 
ATOM     22 CL   UNL     1       6.163   3.471   0.211  0.00  0.00    -0.080 Cl
ATOM     23 BR   UNL     1       6.388   2.804  -5.281  0.00  0.00    -0.050 Br
ENDBRANCH  15  16
ENDBRANCH   3  15
TORSDOF 3
