REMARK  Name = ZINC11042960
REMARK  7 active torsions:
REMARK  status: ('A' for Active; 'I' for Inactive)
REMARK    1  A    between atoms: C_1  and  C_2
REMARK    2  A    between atoms: C_2  and  C_4
REMARK    3  A    between atoms: C_2  and  N_43
REMARK    4  A    between atoms: N_6  and  C_7
REMARK    5  A    between atoms: C_15  and  C_17
REMARK    6  A    between atoms: C_15  and  C_24
REMARK    7  A    between atoms: C_15  and  N_43
REMARK                            x       y       z     vdW  Elec       q    Type
REMARK                         _______ _______ _______ _____ _____    ______ ____
ROOT
ATOM      1  N   UNL     1       3.335   7.444  -0.299  0.00  0.00    +0.394 N 
ATOM      2  H   UNL     1       3.232   7.824   0.649  0.00  0.00    -0.083 HD
ATOM      3  H   UNL     1       2.460   7.580  -0.819  0.00  0.00    -0.083 HD
ENDROOT
BRANCH   1   5
ATOM      4  C   UNL     1       4.503   5.730   1.013  0.00  0.00    -0.004 C 
ATOM      5  C   UNL     1       3.632   6.001  -0.216  0.00  0.00    +0.014 C 
BRANCH   5   6
ATOM      6  C   UNL     1       2.339   5.236  -0.094  0.00  0.00    +0.203 C 
ATOM      7  O   UNL     1       1.282   5.830  -0.082  0.00  0.00    -0.277 OA
ATOM      8  N   UNL     1       2.358   3.892   0.000  0.00  0.00    -0.284 N 
ATOM      9  H   UNL     1       3.205   3.421   0.056  0.00  0.00    +0.155 HD
BRANCH   8  10
ATOM     10  C   UNL     1       1.156   3.174   0.019  0.00  0.00    +0.072 A 
ATOM     11  C   UNL     1       0.035   3.711   0.637  0.00  0.00    +0.064 A 
ATOM     12  C   UNL     1      -1.151   2.999   0.654  0.00  0.00    +0.125 A 
ATOM     13  C   UNL     1      -1.222   1.754   0.051  0.00  0.00    +0.041 A 
ATOM     14  C   UNL     1      -0.106   1.215  -0.560  0.00  0.00    +0.043 A 
ATOM     15  C   UNL     1       1.083   1.922  -0.581  0.00  0.00    +0.145 A 
ATOM     16  F   UNL     1       2.172   1.396  -1.183  0.00  0.00    -0.204 F 
ATOM     17  F   UNL     1      -2.242   3.521   1.255  0.00  0.00    -0.205 F 
ENDBRANCH   8  10
ENDBRANCH   5   6
ENDBRANCH   1   5
BRANCH   1  18
ATOM     18  C   UNL     1       4.427   8.152  -0.992  0.00  0.00    -0.002 C 
BRANCH  18  19
ATOM     19  C   UNL     1       4.439   9.594  -0.552  0.00  0.00    -0.056 A 
ATOM     20  C   UNL     1       3.247  10.272  -0.378  0.00  0.00    +0.005 A 
ATOM     21  C   UNL     1       3.256  11.592   0.031  0.00  0.00    +0.038 A 
ATOM     22  C   UNL     1       4.460  12.239   0.255  0.00  0.00    +0.123 A 
ATOM     23  C   UNL     1       5.653  11.560   0.075  0.00  0.00    +0.038 A 
ATOM     24  C   UNL     1       5.641  10.238  -0.328  0.00  0.00    +0.005 A 
ATOM     25  F   UNL     1       4.470  13.531   0.648  0.00  0.00    -0.205 F 
ENDBRANCH  18  19
BRANCH  18  26
ATOM     26  C   UNL     1       4.207   8.083  -2.481  0.00  0.00    -0.020 A 
ATOM     27  C   UNL     1       5.116   7.906  -3.471  0.00  0.00    +0.010 A 
ATOM     28  C   UNL     1       4.681   7.871  -4.782  0.00  0.00    +0.008 A 
ATOM     29  C   UNL     1       3.360   8.027  -5.041  0.00  0.00    +0.045 A 
ATOM     30  S   UNL     1       2.683   8.222  -3.400  0.00  0.00    -0.103 S 
ENDBRANCH  18  26
ENDBRANCH   1  18
TORSDOF 6
