REMARK  Name = ZINC39199190
REMARK  9 active torsions:
REMARK  status: ('A' for Active; 'I' for Inactive)
REMARK    1  A    between atoms: C_1  and  C_2
REMARK    2  A    between atoms: C_2  and  C_4
REMARK    3  A    between atoms: C_2  and  N_10
REMARK    4  A    between atoms: N_13  and  C_16
REMARK    5  A    between atoms: C_16  and  C_17
REMARK    6  A    between atoms: N_19  and  C_20
REMARK    7  A    between atoms: C_23  and  C_27
REMARK    8  A    between atoms: C_27  and  C_29
REMARK    9  A    between atoms: C_27  and  C_31
REMARK                            x       y       z     vdW  Elec       q    Type
REMARK                         _______ _______ _______ _____ _____    ______ ____
ROOT
ATOM      1  C   UNL     1       0.166   0.097   6.735  0.00  0.00    +0.201 C 
ATOM      2  O   UNL     1      -0.935   0.586   6.599  0.00  0.00    -0.278 OA
ATOM      3  N   UNL     1       0.488  -0.528   7.886  0.00  0.00    -0.287 N 
ATOM      4  H   UNL     1       1.389  -0.862   8.021  0.00  0.00    +0.155 HD
ENDROOT
BRANCH   3   5
ATOM      5  C   UNL     1      -0.478  -0.696   8.884  0.00  0.00    +0.035 A 
ATOM      6  C   UNL     1      -0.484  -1.848   9.660  0.00  0.00    +0.024 A 
ATOM      7  C   UNL     1      -1.437  -2.011  10.645  0.00  0.00    +0.008 A 
ATOM      8  C   UNL     1      -2.386  -1.028  10.861  0.00  0.00    -0.008 A 
ATOM      9  C   UNL     1      -2.383   0.121  10.091  0.00  0.00    +0.047 A 
ATOM     10  C   UNL     1      -1.427   0.292   9.106  0.00  0.00    +0.043 A 
ATOM     11 CL   UNL     1      -3.576   1.352  10.364  0.00  0.00    -0.083 Cl
BRANCH   8  12
ATOM     12  C   UNL     1      -3.426  -1.210  11.937  0.00  0.00    +0.153 C 
BRANCH  12  13
ATOM     13  C   UNL     1      -2.756  -1.216  13.287  0.00  0.00    -0.026 A 
ATOM     14  C   UNL     1      -1.930  -2.266  13.644  0.00  0.00    +0.005 A 
ATOM     15  C   UNL     1      -1.316  -2.271  14.882  0.00  0.00    +0.000 A 
ATOM     16  C   UNL     1      -1.527  -1.227  15.763  0.00  0.00    +0.000 A 
ATOM     17  C   UNL     1      -2.352  -0.177  15.406  0.00  0.00    +0.000 A 
ATOM     18  C   UNL     1      -2.963  -0.169  14.166  0.00  0.00    +0.005 A 
ENDBRANCH  12  13
BRANCH  12  19
ATOM     19  C   UNL     1      -4.127  -2.488  11.731  0.00  0.00    +0.075 C 
ATOM     20  N   UNL     1      -4.668  -3.474  11.572  0.00  0.00    -0.196 NA
ENDBRANCH  12  19
ENDBRANCH   8  12
ENDBRANCH   3   5
BRANCH   1  21
ATOM     21  C   UNL     1       1.175   0.187   5.619  0.00  0.00    +0.019 C 
BRANCH  21  25
ATOM     22  N   UNL     1      -0.142   1.115   1.730  0.00  0.00    -0.299 NA
ATOM     23  C   UNL     1       0.997   1.871   2.270  0.00  0.00    +0.066 C 
ATOM     24  C   UNL     1       1.605   1.102   3.444  0.00  0.00    -0.063 C 
ATOM     25  N   UNL     1       0.585   0.909   4.484  0.00  0.00    +0.387 N 
ATOM     26  C   UNL     1      -0.534   0.132   3.937  0.00  0.00    -0.063 C 
ATOM     27  C   UNL     1      -1.160   0.893   2.766  0.00  0.00    +0.066 C 
ATOM     28  H   UNL     1       0.249   1.808   4.796  0.00  0.00    -0.081 HD
BRANCH  22  30
ATOM     29  C   UNL     1       0.353   1.952  -0.518  0.00  0.00    +0.029 C 
ATOM     30  C   UNL     1      -0.719   1.795   0.562  0.00  0.00    +0.084 C 
BRANCH  30  31
ATOM     31  C   UNL     1      -1.863   0.978   0.020  0.00  0.00    -0.031 A 
ATOM     32  C   UNL     1      -3.063   1.590  -0.292  0.00  0.00    +0.005 A 
ATOM     33  C   UNL     1      -4.113   0.841  -0.789  0.00  0.00    +0.000 A 
ATOM     34  C   UNL     1      -3.963  -0.521  -0.975  0.00  0.00    +0.000 A 
ATOM     35  C   UNL     1      -2.763  -1.133  -0.664  0.00  0.00    +0.000 A 
ATOM     36  C   UNL     1      -1.712  -0.383  -0.171  0.00  0.00    +0.005 A 
ENDBRANCH  30  31
ENDBRANCH  22  30
ENDBRANCH  21  25
ENDBRANCH   1  21
TORSDOF 8
