REMARK  Name = ZINC06300413
REMARK  14 active torsions:
REMARK  status: ('A' for Active; 'I' for Inactive)
REMARK    1  A    between atoms: C_1  and  C_2
REMARK    2  A    between atoms: C_4  and  C_32
REMARK    3  A    between atoms: C_9  and  C_14
REMARK    4  A    between atoms: C_14  and  N_15
REMARK    5  A    between atoms: N_15  and  C_16
REMARK    6  A    between atoms: N_15  and  C_24
REMARK    7  A    between atoms: C_16  and  C_17
REMARK    8  A    between atoms: C_24  and  N_26
REMARK    9  A    between atoms: N_26  and  C_27
REMARK   10  A    between atoms: C_27  and  C_28
REMARK   11  A    between atoms: C_28  and  C_29
REMARK   12  A    between atoms: C_29  and  N_63
REMARK   13  A    between atoms: C_30  and  N_63
REMARK   14  A    between atoms: C_31  and  N_63
REMARK                            x       y       z     vdW  Elec       q    Type
REMARK                         _______ _______ _______ _____ _____    ______ ____
ROOT
ATOM      1  N   UNL     1      -1.603   7.910  -1.300  0.00  0.00    -0.304 N 
ENDROOT
BRANCH   1   2
ATOM      2  C   UNL     1      -2.874   8.092  -1.711  0.00  0.00    +0.133 C 
ATOM      3  S   UNL     1      -4.167   7.909  -0.604  0.00  0.00    -0.019 S 
BRANCH   2   4
ATOM      4  N   UNL     1      -3.127   8.419  -2.994  0.00  0.00    -0.326 N 
ATOM      5  H   UNL     1      -2.394   8.523  -3.622  0.00  0.00    +0.148 HD
BRANCH   4   6
ATOM      6  C   UNL     1      -4.507   8.618  -3.441  0.00  0.00    +0.101 C 
BRANCH   6   7
ATOM      7  C   UNL     1      -4.516   8.979  -4.928  0.00  0.00    +0.000 C 
BRANCH   7   8
ATOM      8  C   UNL     1      -5.958   9.186  -5.395  0.00  0.00    -0.078 C 
BRANCH   8  11
ATOM      9  C   UNL     1      -5.492   8.407  -7.639  0.00  0.00    -0.097 C 
ATOM     10  C   UNL     1      -7.301   9.969  -7.251  0.00  0.00    -0.097 C 
ATOM     11  N   UNL     1      -5.947   9.554  -6.826  0.00  0.00    +0.376 N 
ATOM     12  H   UNL     1      -5.300  10.339  -6.964  0.00  0.00    -0.083 HD
ENDBRANCH   8  11
ENDBRANCH   7   8
ENDBRANCH   6   7
ENDBRANCH   4   6
ENDBRANCH   2   4
ENDBRANCH   1   2
BRANCH   1  13
ATOM     13  C   UNL     1      -1.334   7.452   0.065  0.00  0.00    +0.147 C 
BRANCH  13  22
ATOM     14  C   UNL     1      -3.794  12.516   4.956  0.00  0.00    +0.044 C 
ATOM     15  C   UNL     1      -2.688  11.925   4.121  0.00  0.00    -0.050 A 
ATOM     16  C   UNL     1      -1.418  12.484   4.165  0.00  0.00    +0.008 A 
ATOM     17  C   UNL     1      -0.393  11.963   3.406  0.00  0.00    -0.026 A 
ATOM     18  C   UNL     1      -0.628  10.857   2.595  0.00  0.00    +0.052 A 
ATOM     19  C   UNL     1      -1.916  10.293   2.553  0.00  0.00    -0.001 A 
ATOM     20  C   UNL     1      -2.943  10.842   3.328  0.00  0.00    +0.013 A 
ATOM     21  C   UNL     1      -2.155   9.133   1.691  0.00  0.00    +0.020 A 
ATOM     22  C   UNL     1      -1.122   8.644   0.962  0.00  0.00    +0.035 A 
ATOM     23  C   UNL     1       0.152   9.248   1.040  0.00  0.00    +0.254 A 
ATOM     24  O   UNL     1       1.067   8.792   0.377  0.00  0.00    -0.268 OA
ATOM     25  N   UNL     1       0.381  10.313   1.828  0.00  0.00    -0.322 N 
ATOM     26  H   UNL     1       1.268  10.703   1.859  0.00  0.00    +0.169 HD
ATOM     27  C   UNL     1       0.979  12.585   3.459  0.00  0.00    +0.046 C 
ENDBRANCH  13  22
ENDBRANCH   1  13
BRANCH   1  28
ATOM     28  C   UNL     1      -0.492   8.169  -2.219  0.00  0.00    +0.142 C 
BRANCH  28  29
ATOM     29  C   UNL     1      -0.092   6.885  -2.899  0.00  0.00    -0.030 A 
ATOM     30  C   UNL     1       0.795   6.023  -2.281  0.00  0.00    +0.008 A 
ATOM     31  C   UNL     1       1.158   4.843  -2.901  0.00  0.00    +0.038 A 
ATOM     32  C   UNL     1       0.642   4.528  -4.147  0.00  0.00    +0.123 A 
ATOM     33  C   UNL     1      -0.242   5.395  -4.767  0.00  0.00    +0.038 A 
ATOM     34  C   UNL     1      -0.609   6.572  -4.142  0.00  0.00    +0.008 A 
ATOM     35  F   UNL     1       1.000   3.377  -4.757  0.00  0.00    -0.205 F 
ENDBRANCH  28  29
ENDBRANCH   1  28
TORSDOF 10
