REMARK  Name = ZINC04311876
REMARK  10 active torsions:
REMARK  status: ('A' for Active; 'I' for Inactive)
REMARK    1  A    between atoms: C_1  and  N_53
REMARK    2  A    between atoms: C_8  and  C_20
REMARK    3  A    between atoms: C_10  and  C_16
REMARK    4  A    between atoms: C_10  and  C_18
REMARK    5  A    between atoms: C_12  and  C_13
REMARK    6  A    between atoms: C_23  and  O_28
REMARK    7  A    between atoms: C_24  and  O_26
REMARK    8  A    between atoms: O_26  and  C_27
REMARK    9  A    between atoms: O_28  and  C_29
REMARK   10  A    between atoms: C_29  and  C_30
REMARK                            x       y       z     vdW  Elec       q    Type
REMARK                         _______ _______ _______ _____ _____    ______ ____
ROOT
ATOM      1  C   UNL     1       1.279  -2.026   1.321  0.00  0.00    -0.096 C 
ATOM      2  C   UNL     1       2.500  -0.217   0.265  0.00  0.00    -0.051 C 
ATOM      3  C   UNL     1       2.548   1.288   0.177  0.00  0.00    -0.044 C 
ATOM      4  C   UNL     1       1.428   1.986   0.155  0.00  0.00    -0.051 C 
ATOM      5  C   UNL     1       0.067   1.351   0.159  0.00  0.00    +0.010 C 
ATOM      6  C   UNL     1       0.093  -0.146   0.370  0.00  0.00    -0.070 C 
ATOM      7  C   UNL     1      -0.787   2.061   1.212  0.00  0.00    +0.064 C 
ATOM      8  C   UNL     1      -0.953   3.527   0.811  0.00  0.00    +0.188 C 
ATOM      9  C   UNL     1       0.365   4.170   0.499  0.00  0.00    +0.065 C 
ATOM     10  C   UNL     1       1.483   3.470   0.180  0.00  0.00    +0.163 C 
ATOM     11  N   UNL     1       0.445   5.534   0.538  0.00  0.00    -0.304 NA
ATOM     12  H   UNL     1       1.285   5.976   0.340  0.00  0.00    +0.186 HD
ATOM     13  N   UNL     1       1.313  -0.568   1.076  0.00  0.00    +0.381 N 
ATOM     14  H   UNL     1       1.366  -0.079   1.977  0.00  0.00    -0.082 HD
ENDROOT
BRANCH   7  15
ATOM     15  C   UNL     1      -2.140   1.403   1.291  0.00  0.00    -0.037 A 
ATOM     16  C   UNL     1      -2.816   1.074   0.131  0.00  0.00    +0.008 A 
ATOM     17  C   UNL     1      -4.056   0.465   0.199  0.00  0.00    +0.050 A 
ATOM     18  C   UNL     1      -4.628   0.195   1.431  0.00  0.00    +0.163 A 
ATOM     19  C   UNL     1      -3.950   0.531   2.599  0.00  0.00    +0.162 A 
ATOM     20  C   UNL     1      -2.706   1.136   2.524  0.00  0.00    +0.053 A 
BRANCH  19  21
ATOM     21  O   UNL     1      -4.508   0.267   3.811  0.00  0.00    -0.491 OA
ATOM     22  C   UNL     1      -3.755   0.640   4.967  0.00  0.00    +0.277 C 
ENDBRANCH  19  21
BRANCH  18  23
ATOM     23  O   UNL     1      -5.850  -0.400   1.500  0.00  0.00    -0.479 OA
BRANCH  23  24
ATOM     24  C   UNL     1      -6.487  -0.717   0.261  0.00  0.00    +0.324 C 
BRANCH  24  25
ATOM     25  C   UNL     1      -7.820  -1.365   0.533  0.00  0.00    +0.248 C 
ATOM     26  O   UNL     1      -8.188  -1.537   1.675  0.00  0.00    -0.272 OA
ATOM     27  N   UNL     1      -8.603  -1.752  -0.493  0.00  0.00    -0.327 N 
ATOM     28  H   UNL     1      -8.309  -1.614  -1.407  0.00  0.00    +0.145 HD
ATOM     29  H   UNL     1      -9.461  -2.169  -0.318  0.00  0.00    +0.145 HD
ENDBRANCH  24  25
ENDBRANCH  23  24
ENDBRANCH  18  23
ENDBRANCH   7  15
BRANCH  10  30
ATOM     30  C   UNL     1       2.702   4.154  -0.130  0.00  0.00    +0.076 C 
ATOM     31  N   UNL     1       3.669   4.697  -0.376  0.00  0.00    -0.196 NA
ENDBRANCH  10  30
BRANCH   8  32
ATOM     32  C   UNL     1      -1.593   4.258   1.916  0.00  0.00    +0.091 C 
ATOM     33  N   UNL     1      -2.088   4.822   2.770  0.00  0.00    -0.195 NA
ENDBRANCH   8  32
BRANCH   8  34
ATOM     34  C   UNL     1      -1.818   3.604  -0.378  0.00  0.00    +0.091 C 
ATOM     35  N   UNL     1      -2.485   3.663  -1.295  0.00  0.00    -0.195 NA
ENDBRANCH   8  34
TORSDOF 8
