REMARK  Name = ZINC04730015
REMARK  8 active torsions:
REMARK  status: ('A' for Active; 'I' for Inactive)
REMARK    1  A    between atoms: C_1  and  C_2
REMARK    2  A    between atoms: C_2  and  O_3
REMARK    3  A    between atoms: O_3  and  C_4
REMARK    4  A    between atoms: C_8  and  C_11
REMARK    5  A    between atoms: C_9  and  O_10
REMARK    6  A    between atoms: C_14  and  C_25
REMARK    7  A    between atoms: C_16  and  C_18
REMARK    8  A    between atoms: C_28  and  C_31
REMARK                            x       y       z     vdW  Elec       q    Type
REMARK                         _______ _______ _______ _____ _____    ______ ____
ROOT
ATOM      1  C   UNL     1      -0.901   3.010   1.160  0.00  0.00    -0.028 C 
ATOM      2  C   UNL     1      -1.920   3.296   0.052  0.00  0.00    +0.044 C 
ATOM      3  C   UNL     1      -1.541   2.532  -1.186  0.00  0.00    +0.040 C 
ATOM      4  N   UNL     1      -0.707   1.563  -1.181  0.00  0.00    -0.299 NA
ATOM      5  C   UNL     1      -0.013   1.086   0.008  0.00  0.00    +0.081 C 
ATOM      6  N   UNL     1      -0.690   1.551   1.228  0.00  0.00    +0.401 N 
ATOM      7  H   UNL     1      -1.598   1.079   1.315  0.00  0.00    -0.081 HD
ATOM      8  H   UNL     1      -0.109   1.328   2.045  0.00  0.00    -0.081 HD
ENDROOT
BRANCH   5   9
ATOM      9  C   UNL     1       1.403   1.601  -0.003  0.00  0.00    -0.038 A 
ATOM     10  C   UNL     1       2.041   1.844  -1.205  0.00  0.00    +0.004 A 
ATOM     11  C   UNL     1       3.340   2.317  -1.217  0.00  0.00    +0.003 A 
ATOM     12  C   UNL     1       4.002   2.548  -0.026  0.00  0.00    +0.038 A 
ATOM     13  C   UNL     1       3.365   2.305   1.179  0.00  0.00    +0.124 A 
ATOM     14  C   UNL     1       2.062   1.837   1.189  0.00  0.00    +0.042 A 
ATOM     15  F   UNL     1       4.011   2.531   2.344  0.00  0.00    -0.205 F 
ENDBRANCH   5   9
BRANCH   3  16
ATOM     16  C   UNL     1      -2.163   2.919  -2.468  0.00  0.00    -0.004 A 
ATOM     17  C   UNL     1      -3.084   3.968  -2.513  0.00  0.00    +0.010 A 
ATOM     18  C   UNL     1      -3.657   4.327  -3.715  0.00  0.00    +0.004 A 
ATOM     19  C   UNL     1      -3.329   3.644  -4.873  0.00  0.00    -0.050 A 
ATOM     20  C   UNL     1      -2.422   2.600  -4.835  0.00  0.00    +0.004 A 
ATOM     21  C   UNL     1      -1.837   2.234  -3.640  0.00  0.00    +0.010 A 
ATOM     22  C   UNL     1      -3.965   4.039  -6.181  0.00  0.00    +0.044 C 
ENDBRANCH   3  16
BRANCH   1  27
ATOM     23  C   UNL     1      -1.813   5.300   4.033  0.00  0.00    +0.162 A 
ATOM     24  C   UNL     1      -2.410   4.409   4.910  0.00  0.00    +0.049 A 
ATOM     25  C   UNL     1      -2.516   3.072   4.573  0.00  0.00    +0.004 A 
ATOM     26  C   UNL     1      -2.033   2.623   3.358  0.00  0.00    +0.006 A 
ATOM     27  C   UNL     1      -1.432   3.505   2.481  0.00  0.00    -0.016 A 
ATOM     28  C   UNL     1      -1.322   4.846   2.812  0.00  0.00    +0.160 A 
BRANCH  28  29
ATOM     29  O   UNL     1      -0.737   5.716   1.947  0.00  0.00    -0.503 OA
ATOM     30  H   UNL     1      -1.352   6.125   1.323  0.00  0.00    +0.292 HD
ENDBRANCH  28  29
BRANCH  23  31
ATOM     31  O   UNL     1      -1.708   6.615   4.363  0.00  0.00    -0.489 OA
BRANCH  31  33
ATOM     32  C   UNL     1      -2.026   8.512   5.825  0.00  0.00    +0.048 C 
ATOM     33  C   UNL     1      -2.234   7.009   5.632  0.00  0.00    +0.226 C 
ENDBRANCH  31  33
ENDBRANCH  23  31
ENDBRANCH   1  27
TORSDOF 6
