REMARK  Name = ZINC58166176
REMARK  11 active torsions:
REMARK  status: ('A' for Active; 'I' for Inactive)
REMARK    1  A    between atoms: C_1  and  C_2
REMARK    2  A    between atoms: C_2  and  C_3
REMARK    3  A    between atoms: C_3  and  C_4
REMARK    4  A    between atoms: C_4  and  C_5
REMARK    5  A    between atoms: C_5  and  C_6
REMARK    6  A    between atoms: C_6  and  N_7
REMARK    7  A    between atoms: C_8  and  C_10
REMARK    8  A    between atoms: N_15  and  C_17
REMARK    9  A    between atoms: C_17  and  C_19
REMARK   10  A    between atoms: C_17  and  C_20
REMARK   11  A    between atoms: N_25  and  C_26
REMARK                            x       y       z     vdW  Elec       q    Type
REMARK                         _______ _______ _______ _____ _____    ______ ____
ROOT
ATOM      1  C   UNL     1       1.750  -6.824   5.866  0.00  0.00    +0.058 C 
ATOM      2  C   UNL     1       0.806  -7.077   7.045  0.00  0.00    +0.009 C 
ATOM      3  C   UNL     1       1.603  -7.684   8.203  0.00  0.00    -0.018 C 
ATOM      4  C   UNL     1       2.290  -8.965   7.725  0.00  0.00    -0.078 C 
ATOM      5  N   UNL     1       3.198  -8.653   6.615  0.00  0.00    +0.388 N 
ATOM      6  C   UNL     1       2.432  -8.136   5.474  0.00  0.00    -0.065 C 
ATOM      7  H   UNL     1       3.865  -7.957   6.912  0.00  0.00    -0.081 HD
ENDROOT
BRANCH   1   9
ATOM      8  N   UNL     1       0.271  -5.146   4.809  0.00  0.00    -0.315 N 
ATOM      9  C   UNL     1       0.961  -6.298   4.694  0.00  0.00    +0.214 C 
ATOM     10  O   UNL     1       0.948  -6.911   3.648  0.00  0.00    -0.276 OA
ATOM     11  H   UNL     1       0.282  -4.655   5.646  0.00  0.00    +0.149 HD
BRANCH   8  12
ATOM     12  C   UNL     1      -0.495  -4.634   3.670  0.00  0.00    +0.104 C 
BRANCH  12  13
ATOM     13  C   UNL     1      -1.179  -3.323   4.063  0.00  0.00    +0.019 C 
BRANCH  13  14
ATOM     14  C   UNL     1      -1.979  -2.789   2.874  0.00  0.00    +0.002 C 
BRANCH  14  15
ATOM     15  C   UNL     1      -2.663  -1.478   3.267  0.00  0.00    -0.000 C 
BRANCH  15  17
ATOM     16  C   UNL     1      -4.147   0.368   2.471  0.00  0.00    +0.004 C 
ATOM     17  C   UNL     1      -3.464  -0.943   2.078  0.00  0.00    -0.003 C 
ENDBRANCH  15  17
ENDBRANCH  14  15
ENDBRANCH  13  14
ENDBRANCH  12  13
ENDBRANCH   8  12
ENDBRANCH   1   9
BRANCH   5  18
ATOM     18  C   UNL     1       3.913  -9.871   6.211  0.00  0.00    +0.017 C 
ATOM     19  C   UNL     1       4.817  -9.560   5.017  0.00  0.00    -0.004 C 
BRANCH  18  20
ATOM     20  C   UNL     1       4.752 -10.366   7.361  0.00  0.00    +0.207 C 
ATOM     21  O   UNL     1       5.157  -9.585   8.195  0.00  0.00    -0.277 OA
ATOM     22  N   UNL     1       5.051 -11.676   7.462  0.00  0.00    -0.242 N 
ATOM     23  C   UNL     1       5.801 -12.119   8.491  0.00  0.00    +0.306 C 
ATOM     24  O   UNL     1       6.207 -11.336   9.327  0.00  0.00    -0.252 OA
ATOM     25  N   UNL     1       6.100 -13.429   8.592  0.00  0.00    -0.296 N 
ATOM     26  H   UNL     1       4.726 -12.301   6.795  0.00  0.00    +0.159 HD
ATOM     27  H   UNL     1       5.776 -14.053   7.924  0.00  0.00    +0.151 HD
BRANCH  25  28
ATOM     28  C   UNL     1       6.915 -13.910   9.710  0.00  0.00    +0.074 C 
ATOM     29  C   UNL     1       8.413 -13.819   9.350  0.00  0.00    +0.022 C 
ATOM     30  C   UNL     1       9.036 -15.080   9.997  0.00  0.00    +0.002 C 
ATOM     31  C   UNL     1       7.944 -16.155   9.772  0.00  0.00    +0.002 C 
ATOM     32  C   UNL     1       6.618 -15.396   9.979  0.00  0.00    +0.022 C 
ENDBRANCH  25  28
ENDBRANCH  18  20
ENDBRANCH   5  18
TORSDOF 9
