REMARK  Name = ZINC04783151
REMARK  4 active torsions:
REMARK  status: ('A' for Active; 'I' for Inactive)
REMARK    1  A    between atoms: C_4  and  S_20
REMARK    2  A    between atoms: C_6  and  S_17
REMARK    3  A    between atoms: C_8  and  N_14
REMARK    4  A    between atoms: C_10  and  S_11
REMARK                            x       y       z     vdW  Elec       q    Type
REMARK                         _______ _______ _______ _____ _____    ______ ____
ROOT
ATOM      1  C   UNL     1      -2.727   0.294  -4.018  0.00  0.00    +0.038 A 
ATOM      2  C   UNL     1      -2.358   1.359  -3.178  0.00  0.00    -0.010 A 
ATOM      3  C   UNL     1      -2.190   1.172  -1.795  0.00  0.00    +0.038 A 
ATOM      4  C   UNL     1      -1.837   2.228  -1.011  0.00  0.00    +0.122 A 
ATOM      5  C   UNL     1      -1.628   3.491  -1.561  0.00  0.00    +0.060 A 
ATOM      6  C   UNL     1      -1.776   3.708  -2.897  0.00  0.00    +0.131 A 
ATOM      7  C   UNL     1      -2.146   2.643  -3.737  0.00  0.00    +0.040 A 
ATOM      8  C   UNL     1      -2.308   2.828  -5.120  0.00  0.00    +0.138 A 
ATOM      9  C   UNL     1      -2.666   1.774  -5.903  0.00  0.00    +0.063 A 
ATOM     10  C   UNL     1      -2.875   0.510  -5.353  0.00  0.00    +0.122 A 
ENDROOT
BRANCH  10  11
ATOM     11  S   UNL     1      -3.338  -0.827  -6.403  0.00  0.00    +0.140 S 
ATOM     12  O   UNL     1      -4.005  -1.775  -5.582  0.00  0.00    -0.140 OA
ATOM     13  O   UNL     1      -3.946  -0.251  -7.551  0.00  0.00    -0.140 OA
ATOM     14  O   UNL     1      -2.053  -1.491  -6.879  0.00  0.00    -0.043 OA
ENDBRANCH  10  11
BRANCH   6  15
ATOM     15  S   UNL     1      -1.507   5.314  -3.568  0.00  0.00    +0.140 S 
ATOM     16  O   UNL     1      -2.543   5.537  -4.515  0.00  0.00    -0.140 OA
ATOM     17  O   UNL     1      -1.282   6.183  -2.466  0.00  0.00    -0.140 OA
ATOM     18  O   UNL     1      -0.204   5.261  -4.354  0.00  0.00    -0.043 OA
ENDBRANCH   6  15
BRANCH   4  19
ATOM     19  S   UNL     1      -1.635   1.991   0.723  0.00  0.00    +0.140 S 
ATOM     20  O   UNL     1      -1.352   0.612   0.914  0.00  0.00    -0.140 OA
ATOM     21  O   UNL     1      -0.761   3.017   1.173  0.00  0.00    -0.140 OA
ATOM     22  O   UNL     1      -2.985   2.253   1.374  0.00  0.00    -0.043 OA
ENDBRANCH   4  19
BRANCH   8  23
ATOM     23  N   UNL     1      -2.090   4.162  -5.723  0.00  0.00    +0.057 N 
ATOM     24  O   UNL     1      -3.041   4.825  -6.096  0.00  0.00    -0.126 OA
ATOM     25  O   UNL     1      -0.959   4.597  -5.847  0.00  0.00    -0.126 OA
ENDBRANCH   8  23
TORSDOF 4
