REMARK  Name = ZINC59169186
REMARK  11 active torsions:
REMARK  status: ('A' for Active; 'I' for Inactive)
REMARK    1  A    between atoms: C_1  and  C_2
REMARK    2  A    between atoms: C_5  and  N_8
REMARK    3  A    between atoms: N_8  and  C_9
REMARK    4  A    between atoms: C_9  and  N_11
REMARK    5  A    between atoms: N_11  and  C_12
REMARK    6  A    between atoms: N_11  and  C_20
REMARK    7  A    between atoms: C_12  and  C_13
REMARK    8  A    between atoms: C_22  and  C_28
REMARK    9  A    between atoms: C_22  and  C_29
REMARK   10  A    between atoms: C_24  and  C_26
REMARK   11  A    between atoms: C_24  and  C_27
REMARK                            x       y       z     vdW  Elec       q    Type
REMARK                         _______ _______ _______ _____ _____    ______ ____
ROOT
ATOM      1  N   UNL     1       0.225  -6.226   1.093  0.00  0.00    -0.305 N 
ENDROOT
BRANCH   1   2
ATOM      2  C   UNL     1       0.316  -6.936  -0.189  0.00  0.00    +0.073 C 
ATOM      3  C   UNL     1      -0.967  -6.695  -0.988  0.00  0.00    +0.009 C 
ATOM      4  C   UNL     1      -0.883  -7.418  -2.332  0.00  0.00    -0.072 C 
ATOM      5  N   UNL     1       0.314  -7.056  -3.076  0.00  0.00    +0.386 N 
ATOM      6  C   UNL     1       1.579  -7.049  -2.358  0.00  0.00    -0.072 C 
ATOM      7  C   UNL     1       1.492  -6.380  -0.991  0.00  0.00    +0.009 C 
ATOM      8  C   UNL     1       2.156  -8.460  -2.213  0.00  0.00    -0.010 C 
ATOM      9  C   UNL     1       2.588  -6.235  -3.203  0.00  0.00    -0.010 C 
ATOM     10  C   UNL     1      -2.105  -6.974  -3.168  0.00  0.00    -0.010 C 
ATOM     11  C   UNL     1      -0.998  -8.928  -2.127  0.00  0.00    -0.010 C 
ATOM     12  H   UNL     1       0.400  -7.689  -3.875  0.00  0.00    -0.084 HD
ATOM     13  H   UNL     1       0.170  -6.128  -3.483  0.00  0.00    -0.084 HD
ENDBRANCH   1   2
BRANCH   1  14
ATOM     14  C   UNL     1       0.171  -4.879   1.116  0.00  0.00    +0.138 C 
ATOM     15  S   UNL     1       0.174  -4.047   2.612  0.00  0.00    -0.018 S 
BRANCH  14  16
ATOM     16  N   UNL     1       0.115  -4.188  -0.040  0.00  0.00    -0.297 N 
ATOM     17  H   UNL     1       0.033  -4.659  -0.884  0.00  0.00    +0.154 HD
BRANCH  16  22
ATOM     18  C   UNL     1       0.363   1.479   0.030  0.00  0.00    +0.044 C 
ATOM     19  C   UNL     1       0.297  -0.026   0.012  0.00  0.00    -0.050 A 
ATOM     20  C   UNL     1       1.128  -0.743  -0.830  0.00  0.00    +0.005 A 
ATOM     21  C   UNL     1       1.071  -2.122  -0.849  0.00  0.00    +0.023 A 
ATOM     22  C   UNL     1       0.177  -2.790  -0.022  0.00  0.00    +0.033 A 
ATOM     23  C   UNL     1      -0.657  -2.067   0.822  0.00  0.00    +0.023 A 
ATOM     24  C   UNL     1      -0.590  -0.688   0.840  0.00  0.00    +0.005 A 
ENDBRANCH  16  22
ENDBRANCH  14  16
ENDBRANCH   1  14
BRANCH   1  25
ATOM     25  C   UNL     1       0.193  -6.981   2.348  0.00  0.00    +0.142 C 
BRANCH  25  26
ATOM     26  C   UNL     1      -1.236  -7.295   2.709  0.00  0.00    -0.030 A 
ATOM     27  C   UNL     1      -1.963  -6.412   3.485  0.00  0.00    +0.008 A 
ATOM     28  C   UNL     1      -3.274  -6.699   3.816  0.00  0.00    +0.038 A 
ATOM     29  C   UNL     1      -3.859  -7.872   3.370  0.00  0.00    +0.123 A 
ATOM     30  C   UNL     1      -3.130  -8.756   2.593  0.00  0.00    +0.038 A 
ATOM     31  C   UNL     1      -1.821  -8.464   2.259  0.00  0.00    +0.008 A 
ATOM     32  F   UNL     1      -5.140  -8.153   3.693  0.00  0.00    -0.205 F 
ENDBRANCH  25  26
ENDBRANCH   1  25
TORSDOF 6
