REMARK  Name = ZINC07499282
REMARK  9 active torsions:
REMARK  status: ('A' for Active; 'I' for Inactive)
REMARK    1  A    between atoms: C_1  and  C_2
REMARK    2  A    between atoms: C_2  and  C_3
REMARK    3  A    between atoms: C_6  and  N_9
REMARK    4  A    between atoms: C_13  and  N_50
REMARK    5  A    between atoms: C_17  and  C_18
REMARK    6  A    between atoms: C_17  and  N_50
REMARK    7  A    between atoms: C_18  and  N_19
REMARK    8  A    between atoms: N_19  and  C_20
REMARK    9  A    between atoms: C_23  and  C_26
REMARK                            x       y       z     vdW  Elec       q    Type
REMARK                         _______ _______ _______ _____ _____    ______ ____
ROOT
ATOM      1  N   UNL     1      -8.928   4.213  -1.570  0.00  0.00    -0.212 N 
ATOM      2  C   UNL     1      -9.534   3.603  -0.544  0.00  0.00    +0.225 C 
ATOM      3  O   UNL     1     -10.673   3.186  -0.547  0.00  0.00    -0.275 OA
ATOM      4  C   UNL     1      -8.573   3.518   0.622  0.00  0.00    +0.090 C 
ATOM      5  C   UNL     1      -7.293   4.191   0.086  0.00  0.00    +0.026 C 
ATOM      6  C   UNL     1      -7.666   4.586  -1.327  0.00  0.00    +0.213 C 
ATOM      7  O   UNL     1      -6.936   5.151  -2.114  0.00  0.00    -0.277 OA
ENDROOT
BRANCH   1  11
ATOM      8  C   UNL     1     -10.818   4.893  -5.223  0.00  0.00    -0.048 A 
ATOM      9  C   UNL     1     -10.529   3.600  -4.826  0.00  0.00    +0.005 A 
ATOM     10  C   UNL     1      -9.903   3.372  -3.616  0.00  0.00    +0.024 A 
ATOM     11  C   UNL     1      -9.564   4.441  -2.799  0.00  0.00    +0.044 A 
ATOM     12  C   UNL     1      -9.860   5.738  -3.198  0.00  0.00    +0.024 A 
ATOM     13  C   UNL     1     -10.480   5.960  -4.412  0.00  0.00    +0.005 A 
BRANCH   8  15
ATOM     14  C   UNL     1     -13.018   5.135  -6.342  0.00  0.00    +0.009 C 
ATOM     15  C   UNL     1     -11.501   5.139  -6.544  0.00  0.00    +0.032 C 
ENDBRANCH   8  15
ENDBRANCH   1  11
BRANCH   5  16
ATOM     16  N   UNL     1      -6.175   3.230   0.079  0.00  0.00    +0.388 N 
ATOM     17  H   UNL     1      -6.248   2.630  -0.752  0.00  0.00    -0.085 HD
ATOM     18  H   UNL     1      -6.221   2.650   0.925  0.00  0.00    -0.085 HD
BRANCH  16  19
ATOM     19  C   UNL     1      -4.885   3.945   0.049  0.00  0.00    -0.063 C 
BRANCH  19  20
ATOM     20  C   UNL     1      -3.745   2.924   0.043  0.00  0.00    +0.082 C 
BRANCH  20  21
ATOM     21  N   UNL     1      -2.460   3.627   0.013  0.00  0.00    -0.346 N 
ATOM     22  H   UNL     1      -2.438   4.597   0.002  0.00  0.00    +0.146 HD
BRANCH  21  23
ATOM     23  C   UNL     1      -1.267   2.901   0.003  0.00  0.00    +0.027 A 
ATOM     24  C   UNL     1      -1.297   1.512   0.014  0.00  0.00    +0.023 A 
ATOM     25  C   UNL     1      -0.116   0.797   0.009  0.00  0.00    +0.005 A 
ATOM     26  C   UNL     1       1.096   1.462  -0.018  0.00  0.00    -0.050 A 
ATOM     27  C   UNL     1       1.130   2.845  -0.035  0.00  0.00    +0.005 A 
ATOM     28  C   UNL     1      -0.048   3.566  -0.025  0.00  0.00    +0.023 A 
ATOM     29  C   UNL     1       2.384   0.679  -0.030  0.00  0.00    +0.044 C 
ENDBRANCH  21  23
ENDBRANCH  20  21
ENDBRANCH  19  20
ENDBRANCH  16  19
ENDBRANCH   5  16
TORSDOF 7
