REMARK  Name = ZINC63648748
REMARK  7 active torsions:
REMARK  status: ('A' for Active; 'I' for Inactive)
REMARK    1  A    between atoms: C_6  and  C_10
REMARK    2  A    between atoms: C_10  and  C_11
REMARK    3  A    between atoms: C_11  and  N_12
REMARK    4  A    between atoms: C_13  and  C_15
REMARK    5  A    between atoms: C_15  and  S_16
REMARK    6  A    between atoms: S_16  and  C_17
REMARK    7  A    between atoms: C_20  and  C_29
REMARK                            x       y       z     vdW  Elec       q    Type
REMARK                         _______ _______ _______ _____ _____    ______ ____
ROOT
ATOM      1  S   UNL     1       3.354  -8.760   3.606  0.00  0.00    -0.110 S 
ENDROOT
BRANCH   1   2
ATOM      2  C   UNL     1       4.008  -9.485   5.135  0.00  0.00    +0.235 C 
ATOM      3  N   UNL     1       5.471  -9.319   5.175  0.00  0.00    -0.262 NA
ATOM      4  C   UNL     1       6.023  -9.711   6.482  0.00  0.00    +0.210 C 
ATOM      5  N   UNL     1       5.505  -8.786   7.511  0.00  0.00    -0.308 N 
ATOM      6  C   UNL     1       4.162  -8.495   7.426  0.00  0.00    +0.123 A 
ATOM      7  N   UNL     1       3.430  -8.797   6.293  0.00  0.00    -0.243 N 
ATOM      8  N   UNL     1       2.128  -8.347   6.493  0.00  0.00    -0.260 N 
ATOM      9  C   UNL     1       2.056  -7.825   7.737  0.00  0.00    +0.267 A 
ATOM     10  O   UNL     1       1.059  -7.359   8.260  0.00  0.00    -0.266 OA
ATOM     11  C   UNL     1       3.333  -7.914   8.323  0.00  0.00    +0.114 A 
ATOM     12  H   UNL     1       5.914  -9.832   4.428  0.00  0.00    +0.127 HD
ATOM     13  H   UNL     1       1.402  -8.399   5.852  0.00  0.00    +0.190 HD
ATOM     14  H   UNL     1       6.074  -8.408   8.200  0.00  0.00    +0.149 HD
BRANCH   4  15
ATOM     15  C   UNL     1       7.528  -9.634   6.440  0.00  0.00    +0.140 A 
ATOM     16  C   UNL     1       8.332  -9.364   7.484  0.00  0.00    +0.048 A 
ATOM     17  C   UNL     1       9.659  -9.393   6.997  0.00  0.00    +0.041 A 
ATOM     18  C   UNL     1       9.586  -9.679   5.685  0.00  0.00    +0.195 A 
ATOM     19  O   UNL     1       8.294  -9.830   5.354  0.00  0.00    -0.465 OA
ENDBRANCH   4  15
ENDBRANCH   1   2
BRANCH   1  20
ATOM     20  C   UNL     1       3.852  -7.018   3.698  0.00  0.00    +0.168 C 
BRANCH  20  22
ATOM     21  N   UNL     1       3.620  -4.976   2.321  0.00  0.00    -0.315 N 
ATOM     22  C   UNL     1       3.365  -6.291   2.471  0.00  0.00    +0.223 C 
ATOM     23  O   UNL     1       2.742  -6.889   1.619  0.00  0.00    -0.275 OA
ATOM     24  H   UNL     1       4.118  -4.498   3.003  0.00  0.00    +0.149 HD
BRANCH  21  25
ATOM     25  C   UNL     1       3.146  -4.269   1.129  0.00  0.00    +0.108 C 
BRANCH  25  26
ATOM     26  C   UNL     1       3.566  -2.800   1.206  0.00  0.00    +0.065 C 
BRANCH  26  32
ATOM     27  C   UNL     1      -0.016   1.344   0.009  0.00  0.00    +0.002 A 
ATOM     28  C   UNL     1       1.158   2.118   0.002  0.00  0.00    +0.002 A 
ATOM     29  C   UNL     1       2.389   1.570  -0.013  0.00  0.00    +0.027 A 
ATOM     30  C   UNL     1       2.533   0.108  -0.022  0.00  0.00    +0.060 A 
ATOM     31  N   UNL     1       3.569  -0.680  -0.036  0.00  0.00    -0.363 N 
ATOM     32  C   UNL     1       3.071  -2.062  -0.039  0.00  0.00    +0.175 C 
ATOM     33  N   UNL     1       1.606  -1.974  -0.024  0.00  0.00    -0.363 N 
ATOM     34  C   UNL     1       1.290  -0.712  -0.014  0.00  0.00    +0.060 A 
ATOM     35  C   UNL     1       0.002  -0.004   0.002  0.00  0.00    +0.027 A 
ATOM     36  H   UNL     1       4.499  -0.405  -0.045  0.00  0.00    +0.162 HD
ATOM     37  H   UNL     1       0.987  -2.721  -0.022  0.00  0.00    +0.162 HD
ENDBRANCH  26  32
ENDBRANCH  25  26
ENDBRANCH  21  25
ENDBRANCH  20  22
ENDBRANCH   1  20
TORSDOF 7
