REMARK  Name = ZINC38806243
REMARK  12 active torsions:
REMARK  status: ('A' for Active; 'I' for Inactive)
REMARK    1  A    between atoms: C_1  and  C_2
REMARK    2  A    between atoms: C_2  and  O_3
REMARK    3  A    between atoms: O_3  and  C_4
REMARK    4  A    between atoms: C_4  and  C_6
REMARK    5  A    between atoms: C_10  and  N_11
REMARK    6  A    between atoms: C_12  and  C_14
REMARK    7  A    between atoms: C_14  and  O_15
REMARK    8  A    between atoms: O_15  and  C_16
REMARK    9  A    between atoms: C_26  and  C_32
REMARK   10  A    between atoms: C_26  and  C_33
REMARK   11  A    between atoms: C_28  and  C_30
REMARK   12  A    between atoms: C_28  and  C_31
REMARK                            x       y       z     vdW  Elec       q    Type
REMARK                         _______ _______ _______ _____ _____    ______ ____
ROOT
ATOM      1  C   UNL     1      -2.843  -2.416   0.016  0.00  0.00    +0.091 A 
ATOM      2  C   UNL     1      -3.559  -2.714  -1.204  0.00  0.00    -0.024 A 
ATOM      3  C   UNL     1      -4.793  -3.237  -1.021  0.00  0.00    -0.016 A 
ATOM      4  S   UNL     1      -4.973  -3.335   0.735  0.00  0.00    -0.079 S 
ATOM      5  C   UNL     1      -3.490  -2.706   1.212  0.00  0.00    +0.086 A 
ATOM      6  C   UNL     1      -5.759  -3.623  -2.091  0.00  0.00    -0.041 C 
ATOM      7  N   UNL     1      -5.157  -3.579  -3.423  0.00  0.00    +0.389 N 
ATOM      8  C   UNL     1      -3.702  -3.613  -3.483  0.00  0.00    -0.069 C 
ATOM      9  C   UNL     1      -3.068  -2.508  -2.629  0.00  0.00    +0.024 C 
ATOM     10  C   UNL     1      -3.163  -4.974  -3.038  0.00  0.00    -0.010 C 
ATOM     11  C   UNL     1      -3.270  -3.387  -4.944  0.00  0.00    -0.010 C 
ATOM     12  C   UNL     1      -6.942  -2.636  -2.053  0.00  0.00    -0.005 C 
ATOM     13  C   UNL     1      -6.308  -5.027  -1.803  0.00  0.00    -0.005 C 
ATOM     14  H   UNL     1      -5.523  -4.360  -3.971  0.00  0.00    -0.084 HD
ATOM     15  H   UNL     1      -5.481  -2.734  -3.898  0.00  0.00    -0.084 HD
ENDROOT
BRANCH   5  16
ATOM     16  N   UNL     1      -3.017  -2.519   2.501  0.00  0.00    -0.277 N 
ATOM     17  C   UNL     1      -3.784  -2.858   3.556  0.00  0.00    +0.255 C 
ATOM     18  O   UNL     1      -4.888  -3.328   3.377  0.00  0.00    -0.272 OA
ATOM     19  H   UNL     1      -2.135  -2.143   2.644  0.00  0.00    +0.155 HD
BRANCH  17  20
ATOM     20  C   UNL     1      -3.271  -2.655   4.958  0.00  0.00    +0.324 C 
BRANCH  20  21
ATOM     21  O   UNL     1      -4.259  -3.087   5.895  0.00  0.00    -0.483 OA
BRANCH  21  22
ATOM     22  C   UNL     1      -3.952  -2.971   7.213  0.00  0.00    +0.122 A 
ATOM     23  C   UNL     1      -2.714  -2.440   7.589  0.00  0.00    +0.046 A 
ATOM     24  C   UNL     1      -2.378  -2.311   8.901  0.00  0.00    +0.012 A 
ATOM     25  C   UNL     1      -3.284  -2.716   9.896  0.00  0.00    -0.018 A 
ATOM     26  C   UNL     1      -2.970  -2.596  11.260  0.00  0.00    +0.008 A 
ATOM     27  C   UNL     1      -3.872  -2.997  12.197  0.00  0.00    +0.001 A 
ATOM     28  C   UNL     1      -5.106  -3.526  11.825  0.00  0.00    +0.001 A 
ATOM     29  C   UNL     1      -5.446  -3.657  10.514  0.00  0.00    +0.008 A 
ATOM     30  C   UNL     1      -4.540  -3.253   9.518  0.00  0.00    -0.014 A 
ATOM     31  C   UNL     1      -4.858  -3.369   8.154  0.00  0.00    +0.054 A 
ENDBRANCH  21  22
ENDBRANCH  20  21
ENDBRANCH  17  20
ENDBRANCH   5  16
BRANCH   1  32
ATOM     32  C   UNL     1      -1.497  -1.838   0.006  0.00  0.00    +0.342 C 
ATOM     33  O   UNL     1      -0.523  -2.566  -0.007  0.00  0.00    -0.245 OA
BRANCH  32  34
ATOM     34  O   UNL     1      -1.339  -0.499   0.012  0.00  0.00    -0.461 OA
BRANCH  34  36
ATOM     35  C   UNL     1      -0.019   1.526   0.010  0.00  0.00    +0.048 C 
ATOM     36  C   UNL     1       0.002  -0.004   0.002  0.00  0.00    +0.229 C 
ENDBRANCH  34  36
ENDBRANCH  32  34
ENDBRANCH   1  32
TORSDOF 7
