REMARK  Name = ZINC49193069
REMARK  11 active torsions:
REMARK  status: ('A' for Active; 'I' for Inactive)
REMARK    1  A    between atoms: C_1  and  C_2
REMARK    2  A    between atoms: C_2  and  C_3
REMARK    3  A    between atoms: C_2  and  C_4
REMARK    4  A    between atoms: C_4  and  C_6
REMARK    5  A    between atoms: C_4  and  N_10
REMARK    6  A    between atoms: C_6  and  N_7
REMARK    7  A    between atoms: N_7  and  C_8
REMARK    8  A    between atoms: N_7  and  C_9
REMARK    9  A    between atoms: N_10  and  S_11
REMARK   10  A    between atoms: S_11  and  C_14
REMARK   11  A    between atoms: C_16  and  N_22
REMARK                            x       y       z     vdW  Elec       q    Type
REMARK                         _______ _______ _______ _____ _____    ______ ____
ROOT
ATOM      1  S   UNL     1      -3.283   0.767  -1.955  0.00  0.00    +0.060 S 
ATOM      2  O   UNL     1      -4.136   0.890  -3.084  0.00  0.00    -0.153 OA
ATOM      3  O   UNL     1      -3.658   0.042  -0.791  0.00  0.00    -0.153 OA
ENDROOT
BRANCH   1   4
ATOM      4  C   UNL     1      -2.907   2.406  -1.427  0.00  0.00    +0.125 A 
ATOM      5  C   UNL     1      -2.943   3.448  -2.334  0.00  0.00    +0.055 A 
ATOM      6  C   UNL     1      -2.647   4.739  -1.919  0.00  0.00    +0.062 A 
ATOM      7  C   UNL     1      -2.315   4.980  -0.590  0.00  0.00    +0.145 A 
ATOM      8  C   UNL     1      -2.281   3.933   0.313  0.00  0.00    +0.062 A 
ATOM      9  C   UNL     1      -2.582   2.648  -0.105  0.00  0.00    +0.070 A 
ATOM     10 CL   UNL     1      -2.544   1.337   1.032  0.00  0.00    -0.081 Cl
ATOM     11  F   UNL     1      -2.027   6.235  -0.182  0.00  0.00    -0.204 F 
BRANCH   6  12
ATOM     12  N   UNL     1      -2.683   5.795  -2.836  0.00  0.00    -0.356 N 
ATOM     13  H   UNL     1      -2.914   5.626  -3.762  0.00  0.00    +0.142 HD
ATOM     14  H   UNL     1      -2.476   6.697  -2.545  0.00  0.00    +0.142 HD
ENDBRANCH   6  12
ENDBRANCH   1   4
BRANCH   1  15
ATOM     15  N   UNL     1      -1.872   0.092  -2.498  0.00  0.00    -0.188 NA
ATOM     16  H   UNL     1      -1.787  -0.173  -3.428  0.00  0.00    +0.148 HD
BRANCH  15  17
ATOM     17  C   UNL     1      -0.751  -0.105  -1.576  0.00  0.00    +0.063 C 
BRANCH  17  19
ATOM     18  C   UNL     1       0.157   2.135  -2.207  0.00  0.00    +0.009 C 
ATOM     19  C   UNL     1       0.477   0.643  -2.098  0.00  0.00    -0.000 C 
ATOM     20  C   UNL     1       1.646   0.441  -1.132  0.00  0.00    +0.009 C 
ENDBRANCH  17  19
BRANCH  17  21
ATOM     21  C   UNL     1      -0.433  -1.599  -1.472  0.00  0.00    -0.059 C 
BRANCH  21  22
ATOM     22  N   UNL     1      -1.626  -2.323  -1.016  0.00  0.00    +0.377 N 
ATOM     23  C   UNL     1      -1.380  -3.769  -1.093  0.00  0.00    -0.097 C 
ATOM     24  C   UNL     1      -1.924  -1.950   0.373  0.00  0.00    -0.097 C 
ATOM     25  H   UNL     1      -2.410  -2.083  -1.604  0.00  0.00    -0.083 HD
ENDBRANCH  21  22
ENDBRANCH  17  21
ENDBRANCH  15  17
ENDBRANCH   1  15
TORSDOF 7
