REMARK  Name = ZINC25777299
REMARK  9 active torsions:
REMARK  status: ('A' for Active; 'I' for Inactive)
REMARK    1  A    between atoms: C_1  and  O_2
REMARK    2  A    between atoms: O_2  and  C_3
REMARK    3  A    between atoms: C_6  and  C_9
REMARK    4  A    between atoms: C_9  and  C_11
REMARK    5  A    between atoms: C_9  and  N_36
REMARK    6  A    between atoms: C_11  and  N_12
REMARK    7  A    between atoms: C_13  and  C_15
REMARK    8  A    between atoms: N_26  and  C_29
REMARK    9  A    between atoms: C_29  and  C_30
REMARK                            x       y       z     vdW  Elec       q    Type
REMARK                         _______ _______ _______ _____ _____    ______ ____
ROOT
ATOM      1  C   UNL     1       3.793   2.220  -4.243  0.00  0.00    +0.052 A 
ATOM      2  C   UNL     1       4.135   2.505  -5.588  0.00  0.00    +0.013 A 
ATOM      3  C   UNL     1       4.692   1.531  -6.426  0.00  0.00    +0.011 A 
ATOM      4  C   UNL     1       5.006   1.849  -7.713  0.00  0.00    +0.001 A 
ATOM      5  C   UNL     1       4.779   3.132  -8.207  0.00  0.00    +0.002 A 
ATOM      6  C   UNL     1       4.240   4.102  -7.420  0.00  0.00    +0.028 A 
ATOM      7  C   UNL     1       3.904   3.811  -6.085  0.00  0.00    +0.072 A 
ATOM      8  N   UNL     1       3.375   4.741  -5.290  0.00  0.00    -0.251 NA
ATOM      9  C   UNL     1       3.050   4.498  -4.037  0.00  0.00    +0.048 A 
ATOM     10  C   UNL     1       3.244   3.241  -3.474  0.00  0.00    +0.001 A 
ATOM     11  C   UNL     1       2.870   2.939  -2.048  0.00  0.00    +0.122 C 
ATOM     12  N   UNL     1       2.700   4.182  -1.288  0.00  0.00    -0.294 NA
ATOM     13  C   UNL     1       1.768   5.081  -1.986  0.00  0.00    +0.091 C 
ATOM     14  C   UNL     1       2.462   5.632  -3.231  0.00  0.00    +0.071 C 
ENDROOT
BRANCH   1  16
ATOM     15  N   UNL     1       3.045  -0.060  -3.752  0.00  0.00    -0.313 N 
ATOM     16  C   UNL     1       4.014   0.873  -3.672  0.00  0.00    +0.245 C 
ATOM     17  O   UNL     1       5.069   0.608  -3.131  0.00  0.00    -0.270 OA
ATOM     18  H   UNL     1       2.090   0.180  -4.242  0.00  0.00    +0.149 HD
BRANCH  15  19
ATOM     19  C   UNL     1       3.264  -1.394  -3.187  0.00  0.00    +0.094 C 
BRANCH  19  20
ATOM     20  C   UNL     1       2.018  -2.253  -3.410  0.00  0.00    -0.020 C 
BRANCH  20  24
ATOM     21  C   UNL     1       2.779  -6.240  -2.075  0.00  0.00    +0.120 A 
ATOM     22  C   UNL     1       3.780  -5.516  -2.705  0.00  0.00    +0.046 A 
ATOM     23  C   UNL     1       3.531  -4.227  -3.136  0.00  0.00    +0.005 A 
ATOM     24  C   UNL     1       2.286  -3.659  -2.939  0.00  0.00    -0.059 A 
ATOM     25  C   UNL     1       1.289  -4.377  -2.306  0.00  0.00    +0.005 A 
ATOM     26  C   UNL     1       1.531  -5.668  -1.878  0.00  0.00    +0.046 A 
BRANCH  21  28
ATOM     27  C   UNL     1       1.945  -8.194  -1.008  0.00  0.00    +0.277 C 
ATOM     28  O   UNL     1       3.022  -7.508  -1.649  0.00  0.00    -0.495 OA
ENDBRANCH  21  28
ENDBRANCH  20  24
BRANCH  20  29
ATOM     29  N   UNL     1       1.685  -2.271  -4.841  0.00  0.00    +0.385 N 
ATOM     30  C   UNL     1       2.721  -2.998  -5.619  0.00  0.00    -0.078 C 
ATOM     31  C   UNL     1       1.984  -3.370  -6.930  0.00  0.00    -0.020 C 
ATOM     32  C   UNL     1       0.557  -3.709  -6.439  0.00  0.00    -0.020 C 
ATOM     33  C   UNL     1       0.418  -2.995  -5.082  0.00  0.00    -0.078 C 
ATOM     34  H   UNL     1       1.611  -1.216  -5.144  0.00  0.00    -0.081 HD
ENDBRANCH  20  29
ENDBRANCH  19  20
ENDBRANCH  15  19
ENDBRANCH   1  16
BRANCH  12  35
ATOM     35  C   UNL     1       2.239   3.904   0.079  0.00  0.00    +0.120 C 
BRANCH  35  36
ATOM     36  C   UNL     1       0.954   3.118   0.026  0.00  0.00    -0.033 A 
ATOM     37  C   UNL     1       0.990   1.736   0.005  0.00  0.00    +0.005 A 
ATOM     38  C   UNL     1      -0.189   1.015  -0.043  0.00  0.00    +0.000 A 
ATOM     39  C   UNL     1      -1.403   1.676  -0.075  0.00  0.00    +0.000 A 
ATOM     40  C   UNL     1      -1.438   3.057  -0.050  0.00  0.00    +0.000 A 
ATOM     41  C   UNL     1      -0.260   3.779  -0.001  0.00  0.00    +0.005 A 
ENDBRANCH  35  36
ENDBRANCH  12  35
TORSDOF 8
