REMARK  Name = ZINC63572168
REMARK  7 active torsions:
REMARK  status: ('A' for Active; 'I' for Inactive)
REMARK    1  A    between atoms: C_1  and  C_2
REMARK    2  A    between atoms: C_2  and  O_3
REMARK    3  A    between atoms: O_3  and  C_4
REMARK    4  A    between atoms: C_9  and  N_10
REMARK    5  A    between atoms: C_26  and  C_28
REMARK    6  A    between atoms: C_31  and  O_34
REMARK    7  A    between atoms: O_34  and  C_35
REMARK                            x       y       z     vdW  Elec       q    Type
REMARK                         _______ _______ _______ _____ _____    ______ ____
ROOT
ATOM      1  N   UNL     1      -4.257  -1.751  -1.741  0.00  0.00    -0.266 N 
ATOM      2  C   UNL     1      -5.412  -2.220  -1.230  0.00  0.00    +0.307 C 
ATOM      3  O   UNL     1      -5.594  -3.419  -1.139  0.00  0.00    -0.252 OA
ATOM      4  N   UNL     1      -6.367  -1.361  -0.822  0.00  0.00    -0.276 N 
ATOM      5  C   UNL     1      -6.203   0.075  -1.068  0.00  0.00    +0.114 C 
ATOM      6  C   UNL     1      -6.259   0.835   0.271  0.00  0.00    +0.052 C 
ATOM      7  C   UNL     1      -7.429   0.272   1.039  0.00  0.00    -0.035 C 
ATOM      8  C   UNL     1      -8.461   0.866   1.625  0.00  0.00    +0.001 A 
ATOM      9  C   UNL     1      -8.784   2.287   1.835  0.00  0.00    +0.030 A 
ATOM     10  C   UNL     1      -9.959   2.547   2.470  0.00  0.00    +0.042 A 
ATOM     11  C   UNL     1     -10.833   1.547   2.911  0.00  0.00    +0.022 A 
ATOM     12  C   UNL     1     -10.611   0.217   2.767  0.00  0.00    +0.027 A 
ATOM     13  C   UNL     1      -9.405  -0.182   2.121  0.00  0.00    +0.043 A 
ATOM     14  N   UNL     1      -8.935  -1.369   1.875  0.00  0.00    -0.375 N 
ATOM     15  C   UNL     1      -7.618  -1.225   1.253  0.00  0.00    +0.131 C 
ATOM     16  C   UNL     1      -7.564  -1.874  -0.138  0.00  0.00    +0.134 C 
ATOM     17 CL   UNL     1     -10.395   4.204   2.747  0.00  0.00    -0.084 Cl
ATOM     18  H   UNL     1      -4.078  -0.797  -1.741  0.00  0.00    +0.156 HD
ATOM     19  H   UNL     1      -9.381  -2.208   2.071  0.00  0.00    +0.160 HD
ENDROOT
BRANCH   1  25
ATOM     20  C   UNL     1      -2.432  -2.215  -3.263  0.00  0.00    +0.142 A 
ATOM     21  C   UNL     1      -1.497  -3.097  -3.779  0.00  0.00    +0.047 A 
ATOM     22  C   UNL     1      -1.443  -4.398  -3.315  0.00  0.00    +0.004 A 
ATOM     23  C   UNL     1      -2.321  -4.823  -2.335  0.00  0.00    +0.002 A 
ATOM     24  C   UNL     1      -3.256  -3.949  -1.814  0.00  0.00    +0.027 A 
ATOM     25  C   UNL     1      -3.312  -2.641  -2.271  0.00  0.00    +0.077 A 
BRANCH  20  26
ATOM     26  O   UNL     1      -2.486  -0.935  -3.719  0.00  0.00    -0.490 OA
BRANCH  26  28
ATOM     27  C   UNL     1      -1.764   0.897  -5.119  0.00  0.00    +0.048 C 
ATOM     28  C   UNL     1      -1.552  -0.569  -4.737  0.00  0.00    +0.226 C 
ENDBRANCH  26  28
ENDBRANCH  20  26
ENDBRANCH   1  25
BRANCH  16  29
ATOM     29  C   UNL     1      -7.471  -3.372  -0.002  0.00  0.00    -0.024 A 
ATOM     30  C   UNL     1      -6.474  -3.934   0.774  0.00  0.00    +0.009 A 
ATOM     31  C   UNL     1      -6.387  -5.307   0.900  0.00  0.00    +0.046 A 
ATOM     32  C   UNL     1      -7.301  -6.122   0.248  0.00  0.00    +0.120 A 
ATOM     33  C   UNL     1      -8.300  -5.556  -0.530  0.00  0.00    +0.046 A 
ATOM     34  C   UNL     1      -8.387  -4.182  -0.648  0.00  0.00    +0.009 A 
BRANCH  32  35
ATOM     35  O   UNL     1      -7.216  -7.473   0.370  0.00  0.00    -0.495 OA
ATOM     36  C   UNL     1      -8.191  -8.250  -0.329  0.00  0.00    +0.277 C 
ENDBRANCH  32  35
ENDBRANCH  16  29
TORSDOF 5
