REMARK  Name = ZINC54371443
REMARK  5 active torsions:
REMARK  status: ('A' for Active; 'I' for Inactive)
REMARK    1  A    between atoms: C_1  and  C_2
REMARK    2  A    between atoms: N_8  and  S_9
REMARK    3  A    between atoms: S_9  and  C_12
REMARK    4  A    between atoms: C_16  and  S_18
REMARK    5  A    between atoms: S_18  and  N_21
REMARK                            x       y       z     vdW  Elec       q    Type
REMARK                         _______ _______ _______ _____ _____    ______ ____
ROOT
ATOM      1  S   UNL     1       1.367   0.551   2.335  0.00  0.00    +0.061 S 
ATOM      2  O   UNL     1       2.432  -0.206   2.893  0.00  0.00    -0.153 OA
ATOM      3  O   UNL     1       1.579   1.790   1.673  0.00  0.00    -0.153 OA
ENDROOT
BRANCH   1  10
ATOM      4  C   UNL     1       1.417  -2.278   2.656  0.00  0.00    +0.024 C 
ATOM      5  C   UNL     1       0.514  -1.890   1.484  0.00  0.00    +0.060 C 
ATOM      6  C   UNL     1       0.977  -2.615   0.215  0.00  0.00    -0.062 C 
ATOM      7  N   UNL     1       0.196  -2.137  -0.933  0.00  0.00    +0.381 N 
ATOM      8  C   UNL     1       0.472  -0.714  -1.168  0.00  0.00    -0.065 C 
ATOM      9  C   UNL     1      -0.015   0.105   0.031  0.00  0.00    +0.091 C 
ATOM     10  N   UNL     1       0.598  -0.439   1.253  0.00  0.00    -0.177 NA
ATOM     11  H   UNL     1       0.448  -2.667  -1.753  0.00  0.00    -0.086 HD
ATOM     12  H   UNL     1      -0.788  -2.261  -0.744  0.00  0.00    -0.086 HD
ENDBRANCH   1  10
BRANCH   1  13
ATOM     13  C   UNL     1       0.234   0.869   3.647  0.00  0.00    +0.107 A 
ATOM     14  C   UNL     1      -0.720   1.861   3.511  0.00  0.00    +0.028 A 
ATOM     15  C   UNL     1      -1.609   2.110   4.540  0.00  0.00    +0.004 A 
ATOM     16  C   UNL     1      -1.544   1.367   5.704  0.00  0.00    +0.028 A 
ATOM     17  C   UNL     1      -0.592   0.375   5.839  0.00  0.00    +0.107 A 
ATOM     18  C   UNL     1       0.295   0.123   4.809  0.00  0.00    +0.057 A 
BRANCH  17  19
ATOM     19  S   UNL     1      -0.509  -0.572   7.323  0.00  0.00    +0.056 S 
ATOM     20  O   UNL     1       0.819  -1.069   7.414  0.00  0.00    -0.153 OA
ATOM     21  O   UNL     1      -1.097   0.223   8.345  0.00  0.00    -0.153 OA
BRANCH  19  22
ATOM     22  N   UNL     1      -1.495  -1.887   7.121  0.00  0.00    -0.204 NA
ATOM     23  H   UNL     1      -1.979  -2.006   6.289  0.00  0.00    +0.144 HD
ATOM     24  H   UNL     1      -1.588  -2.538   7.834  0.00  0.00    +0.144 HD
ENDBRANCH  19  22
ENDBRANCH  17  19
ENDBRANCH   1  13
TORSDOF 4
