REMARK  Name = ZINC58158069
REMARK  12 active torsions:
REMARK  status: ('A' for Active; 'I' for Inactive)
REMARK    1  A    between atoms: C_1  and  C_2
REMARK    2  A    between atoms: C_2  and  C_4
REMARK    3  A    between atoms: C_2  and  N_17
REMARK    4  A    between atoms: N_6  and  C_7
REMARK    5  A    between atoms: N_17  and  C_18
REMARK    6  A    between atoms: C_18  and  C_19
REMARK    7  A    between atoms: C_19  and  C_20
REMARK    8  A    between atoms: C_19  and  C_21
REMARK    9  A    between atoms: C_19  and  C_22
REMARK   10  A    between atoms: C_22  and  N_23
REMARK   11  A    between atoms: N_23  and  C_24
REMARK   12  A    between atoms: N_23  and  C_25
REMARK                            x       y       z     vdW  Elec       q    Type
REMARK                         _______ _______ _______ _____ _____    ______ ____
ROOT
ATOM      1  C   UNL     1       1.036  -2.394   0.722  0.00  0.00    +0.230 C 
ATOM      2  O   UNL     1       0.375  -3.206   1.335  0.00  0.00    -0.274 OA
ATOM      3  N   UNL     1       2.368  -2.326   0.913  0.00  0.00    -0.308 N 
ATOM      4  H   UNL     1       2.896  -1.677   0.423  0.00  0.00    +0.149 HD
ENDROOT
BRANCH   3   5
ATOM      5  C   UNL     1       3.019  -3.234   1.862  0.00  0.00    +0.035 C 
ATOM      6  C   UNL     1       2.781  -4.682   1.428  0.00  0.00    +0.029 C 
ATOM      7  C   UNL     1       3.461  -5.629   2.418  0.00  0.00    -0.008 C 
ATOM      8  C   UNL     1       4.964  -5.346   2.446  0.00  0.00    +0.007 C 
ATOM      9  C   UNL     1       5.202  -3.898   2.880  0.00  0.00    -0.008 C 
ATOM     10  C   UNL     1       4.522  -2.950   1.889  0.00  0.00    +0.029 C 
ATOM     11  C   UNL     1       4.616  -3.681   4.276  0.00  0.00    +0.007 C 
ATOM     12  C   UNL     1       3.113  -3.965   4.249  0.00  0.00    -0.008 C 
ATOM     13  C   UNL     1       2.875  -5.413   3.815  0.00  0.00    +0.007 C 
ATOM     14  C   UNL     1       2.433  -3.017   3.259  0.00  0.00    +0.029 C 
ENDBRANCH   3   5
BRANCH   1  16
ATOM     15  C   UNL     1       0.604  -0.013   0.180  0.00  0.00    +0.034 C 
ATOM     16  C   UNL     1       0.366  -1.461  -0.254  0.00  0.00    +0.137 C 
BRANCH  16  17
ATOM     17  N   UNL     1      -1.077  -1.733  -0.280  0.00  0.00    -0.305 NA
ATOM     18  H   UNL     1      -1.265  -2.707  -0.093  0.00  0.00    +0.123 HD
BRANCH  17  19
ATOM     19  C   UNL     1      -1.668  -1.319  -1.560  0.00  0.00    +0.086 C 
BRANCH  19  20
ATOM     20  C   UNL     1      -3.168  -1.618  -1.549  0.00  0.00    -0.037 C 
ATOM     21  C   UNL     1      -3.388  -3.119  -1.348  0.00  0.00    +0.010 C 
ATOM     22  C   UNL     1      -3.834  -0.847  -0.407  0.00  0.00    +0.010 C 
BRANCH  20  23
ATOM     23  C   UNL     1      -3.784  -1.186  -2.882  0.00  0.00    -0.072 C 
BRANCH  23  24
ATOM     24  N   UNL     1      -5.216  -1.510  -2.888  0.00  0.00    +0.376 N 
ATOM     25  C   UNL     1      -5.968  -0.416  -2.259  0.00  0.00    -0.097 C 
ATOM     26  C   UNL     1      -5.673  -1.686  -4.273  0.00  0.00    -0.097 C 
ATOM     27  H   UNL     1      -5.370  -2.364  -2.372  0.00  0.00    -0.083 HD
ENDBRANCH  23  24
ENDBRANCH  20  23
ENDBRANCH  19  20
ENDBRANCH  17  19
ENDBRANCH  16  17
ENDBRANCH   1  16
TORSDOF 7
