REMARK  Name = ZINC39951326
REMARK  11 active torsions:
REMARK  status: ('A' for Active; 'I' for Inactive)
REMARK    1  A    between atoms: C_1  and  C_2
REMARK    2  A    between atoms: C_2  and  C_3
REMARK    3  A    between atoms: C_3  and  C_4
REMARK    4  A    between atoms: C_9  and  C_27
REMARK    5  A    between atoms: C_10  and  O_12
REMARK    6  A    between atoms: C_16  and  C_18
REMARK    7  A    between atoms: C_21  and  O_26
REMARK    8  A    between atoms: C_22  and  O_24
REMARK    9  A    between atoms: O_24  and  C_25
REMARK   10  A    between atoms: C_27  and  C_28
REMARK   11  A    between atoms: C_28  and  C_29
REMARK                            x       y       z     vdW  Elec       q    Type
REMARK                         _______ _______ _______ _____ _____    ______ ____
ROOT
ATOM      1  C   UNL     1       0.632  -2.024  -1.200  0.00  0.00    -0.016 C 
ATOM      2  C   UNL     1      -0.834  -2.337  -1.205  0.00  0.00    +0.023 C 
ATOM      3  C   UNL     1      -1.177  -3.655  -0.593  0.00  0.00    +0.083 C 
ATOM      4  N   UNL     1      -0.218  -4.709  -0.818  0.00  0.00    -0.311 NA
ATOM      5  C   UNL     1       0.437  -4.773  -2.096  0.00  0.00    +0.090 C 
ATOM      6  C   UNL     1       1.719  -3.981  -2.252  0.00  0.00    -0.005 C 
ATOM      7  C   UNL     1       1.394  -2.511  -2.406  0.00  0.00    +0.125 C 
ATOM      8  C   UNL     1       2.603  -4.130  -1.009  0.00  0.00    -0.065 C 
ATOM      9  N   UNL     1       1.779  -3.787   0.157  0.00  0.00    +0.394 N 
ATOM     10  C   UNL     1       1.297  -2.412   0.110  0.00  0.00    -0.067 C 
ATOM     11  C   UNL     1       0.721  -4.777   0.316  0.00  0.00    +0.033 C 
ATOM     12  H   UNL     1       2.372  -3.866   0.970  0.00  0.00    -0.079 HD
ENDROOT
BRANCH  11  13
ATOM     13  C   UNL     1       1.331  -6.154   0.377  0.00  0.00    -0.044 A 
ATOM     14  C   UNL     1       2.606  -6.321   0.884  0.00  0.00    +0.007 A 
ATOM     15  C   UNL     1       3.170  -7.582   0.942  0.00  0.00    +0.049 A 
ATOM     16  C   UNL     1       2.457  -8.681   0.492  0.00  0.00    +0.158 A 
ATOM     17  C   UNL     1       1.173  -8.513  -0.018  0.00  0.00    +0.162 A 
ATOM     18  C   UNL     1       0.612  -7.247  -0.069  0.00  0.00    +0.052 A 
BRANCH  17  19
ATOM     19  O   UNL     1       0.469  -9.589  -0.461  0.00  0.00    -0.491 OA
ATOM     20  C   UNL     1      -0.843  -9.341  -0.971  0.00  0.00    +0.277 C 
ENDBRANCH  17  19
BRANCH  16  21
ATOM     21  O   UNL     1       3.010  -9.922   0.548  0.00  0.00    -0.503 OA
ATOM     22  H   UNL     1       2.834 -10.395   1.373  0.00  0.00    +0.292 HD
ENDBRANCH  16  21
ENDBRANCH  11  13
BRANCH   7  23
ATOM     23  O   UNL     1       2.617  -1.782  -2.526  0.00  0.00    -0.391 OA
ATOM     24  H   UNL     1       2.497  -0.828  -2.632  0.00  0.00    +0.210 HD
ENDBRANCH   7  23
BRANCH   1  25
ATOM     25  C   UNL     1       0.718  -0.497  -1.257  0.00  0.00    +0.007 C 
BRANCH  25  27
ATOM     26  C   UNL     1       0.106   1.528  -2.585  0.00  0.00    +0.004 C 
ATOM     27  C   UNL     1       0.118  -0.002  -2.574  0.00  0.00    -0.003 C 
ENDBRANCH  25  27
ENDBRANCH   1  25
BRANCH   6  28
ATOM     28  C   UNL     1       2.479  -4.476  -3.485  0.00  0.00    +0.008 C 
BRANCH  28  29
ATOM     29  C   UNL     1       2.813  -5.959  -3.316  0.00  0.00    -0.003 C 
ATOM     30  C   UNL     1       3.573  -6.454  -4.549  0.00  0.00    +0.004 C 
ENDBRANCH  28  29
ENDBRANCH   6  28
TORSDOF 8
