REMARK  Name = ZINC10245867
REMARK  9 active torsions:
REMARK  status: ('A' for Active; 'I' for Inactive)
REMARK    1  A    between atoms: C_1  and  C_2
REMARK    2  A    between atoms: C_2  and  O_3
REMARK    3  A    between atoms: O_3  and  C_4
REMARK    4  A    between atoms: C_9  and  N_10
REMARK    5  A    between atoms: C_11  and  C_13
REMARK    6  A    between atoms: C_14  and  N_22
REMARK    7  A    between atoms: C_23  and  C_25
REMARK    8  A    between atoms: N_30  and  C_32
REMARK    9  A    between atoms: C_35  and  C_38
REMARK                            x       y       z     vdW  Elec       q    Type
REMARK                         _______ _______ _______ _____ _____    ______ ____
ROOT
ATOM      1  C   UNL     1      -1.708  -9.614  -2.890  0.00  0.00    +0.212 A 
ATOM      2  C   UNL     1      -0.667  -9.787  -2.020  0.00  0.00    +0.092 A 
ATOM      3  C   UNL     1      -0.468 -11.238  -1.916  0.00  0.00    +0.042 A 
ATOM      4  C   UNL     1       0.415 -12.048  -1.201  0.00  0.00    +0.013 A 
ATOM      5  C   UNL     1       0.341 -13.407  -1.325  0.00  0.00    +0.001 A 
ATOM      6  C   UNL     1      -0.608 -13.985  -2.158  0.00  0.00    +0.004 A 
ATOM      7  C   UNL     1      -1.488 -13.202  -2.872  0.00  0.00    +0.047 A 
ATOM      8  C   UNL     1      -1.431 -11.817  -2.761  0.00  0.00    +0.138 A 
ATOM      9  O   UNL     1      -2.142 -10.819  -3.321  0.00  0.00    -0.448 OA
ENDROOT
BRANCH   1  11
ATOM     10  N   UNL     1      -3.225  -8.269  -4.237  0.00  0.00    -0.276 N 
ATOM     11  C   UNL     1      -2.264  -8.323  -3.294  0.00  0.00    +0.286 C 
ATOM     12  O   UNL     1      -1.857  -7.298  -2.779  0.00  0.00    -0.266 OA
ATOM     13  H   UNL     1      -3.593  -9.089  -4.602  0.00  0.00    +0.155 HD
BRANCH  10  19
ATOM     14  C   UNL     1      -4.240  -6.911  -5.964  0.00  0.00    +0.142 A 
ATOM     15  C   UNL     1      -4.702  -5.682  -6.405  0.00  0.00    +0.047 A 
ATOM     16  C   UNL     1      -4.621  -4.576  -5.580  0.00  0.00    +0.004 A 
ATOM     17  C   UNL     1      -4.079  -4.692  -4.313  0.00  0.00    +0.002 A 
ATOM     18  C   UNL     1      -3.621  -5.916  -3.863  0.00  0.00    +0.027 A 
ATOM     19  C   UNL     1      -3.694  -7.029  -4.688  0.00  0.00    +0.076 A 
BRANCH  14  20
ATOM     20  O   UNL     1      -4.320  -8.000  -6.774  0.00  0.00    -0.490 OA
BRANCH  20  22
ATOM     21  C   UNL     1      -4.897  -9.132  -8.831  0.00  0.00    +0.048 C 
ATOM     22  C   UNL     1      -4.892  -7.805  -8.069  0.00  0.00    +0.226 C 
ENDBRANCH  20  22
ENDBRANCH  14  20
ENDBRANCH  10  19
ENDBRANCH   1  11
BRANCH   2  23
ATOM     23  N   UNL     1       0.051  -8.794  -1.364  0.00  0.00    -0.282 N 
ATOM     24  C   UNL     1       1.340  -9.004  -1.029  0.00  0.00    +0.222 C 
ATOM     25  O   UNL     1       1.899 -10.022  -1.378  0.00  0.00    -0.275 OA
ATOM     26  H   UNL     1      -0.375  -7.950  -1.148  0.00  0.00    +0.155 HD
BRANCH  24  27
ATOM     27  C   UNL     1       2.086  -7.974  -0.222  0.00  0.00    +0.102 C 
ATOM     28  C   UNL     1       2.167  -6.628  -0.980  0.00  0.00    +0.110 C 
ATOM     29  C   UNL     1       3.542  -6.095  -0.644  0.00  0.00    +0.221 C 
ATOM     30  O   UNL     1       3.901  -4.948  -0.805  0.00  0.00    -0.275 OA
ATOM     31  N   UNL     1       4.309  -7.079  -0.142  0.00  0.00    -0.271 N 
ATOM     32  C   UNL     1       3.580  -8.351  -0.094  0.00  0.00    +0.127 C 
BRANCH  31  33
ATOM     33  C   UNL     1       5.634  -6.911   0.275  0.00  0.00    +0.036 A 
ATOM     34  C   UNL     1       6.280  -5.699   0.070  0.00  0.00    +0.024 A 
ATOM     35  C   UNL     1       7.588  -5.537   0.483  0.00  0.00    +0.005 A 
ATOM     36  C   UNL     1       8.254  -6.580   1.100  0.00  0.00    -0.050 A 
ATOM     37  C   UNL     1       7.615  -7.790   1.301  0.00  0.00    +0.005 A 
ATOM     38  C   UNL     1       6.306  -7.956   0.895  0.00  0.00    +0.024 A 
ATOM     39  C   UNL     1       9.681  -6.400   1.549  0.00  0.00    +0.044 C 
ENDBRANCH  31  33
ENDBRANCH  24  27
ENDBRANCH   2  23
TORSDOF 7
