REMARK  Name = ZINC26895497
REMARK  14 active torsions:
REMARK  status: ('A' for Active; 'I' for Inactive)
REMARK    1  A    between atoms: C_1  and  C_2
REMARK    2  A    between atoms: C_2  and  C_3
REMARK    3  A    between atoms: C_3  and  C_4
REMARK    4  A    between atoms: C_4  and  C_5
REMARK    5  A    between atoms: C_6  and  C_32
REMARK    6  A    between atoms: C_10  and  N_11
REMARK    7  A    between atoms: C_12  and  S_14
REMARK    8  A    between atoms: S_14  and  S_15
REMARK    9  A    between atoms: S_15  and  C_16
REMARK   10  A    between atoms: C_20  and  C_27
REMARK   11  A    between atoms: C_21  and  C_26
REMARK   12  A    between atoms: C_27  and  C_28
REMARK   13  A    between atoms: C_28  and  C_29
REMARK   14  A    between atoms: C_29  and  C_30
REMARK                            x       y       z     vdW  Elec       q    Type
REMARK                         _______ _______ _______ _____ _____    ______ ____
ROOT
ATOM      1  S   UNL     1      -5.415   2.309   0.059  0.00  0.00    -0.013 S 
ENDROOT
BRANCH   1   3
ATOM      2  N   UNL     1      -2.424   1.530   0.022  0.00  0.00    -0.171 N 
ATOM      3  C   UNL     1      -3.864   1.474   0.034  0.00  0.00    +0.183 C 
ATOM      4  N   UNL     1      -3.191   0.358   0.020  0.00  0.00    -0.276 N 
ATOM      5  H   UNL     1      -3.723  -0.605   0.018  0.00  0.00    +0.187 HD
BRANCH   2  11
ATOM      6  C   UNL     1      -0.018   1.503   0.010  0.00  0.00    +0.016 A 
ATOM      7  C   UNL     1       1.147   2.217   0.003  0.00  0.00    +0.048 A 
ATOM      8  N   UNL     1       1.101   3.544   0.010  0.00  0.00    -0.220 NA
ATOM      9  C   UNL     1      -0.057   4.189   0.024  0.00  0.00    +0.215 A 
ATOM     10  N   UNL     1      -1.211   3.539   0.032  0.00  0.00    -0.197 NA
ATOM     11  C   UNL     1      -1.235   2.204   0.020  0.00  0.00    +0.154 A 
ATOM     12  N   UNL     1      -0.060   5.572   0.032  0.00  0.00    -0.327 N 
ATOM     13  C   UNL     1       2.475   1.504  -0.013  0.00  0.00    +0.066 C 
ATOM     14  H   UNL     1      -1.014   6.120   0.043  0.00  0.00    +0.145 HD
ATOM     15  H   UNL     1       0.891   6.125   0.026  0.00  0.00    +0.145 HD
BRANCH   6  16
ATOM     16  C   UNL     1       0.002  -0.004   0.002  0.00  0.00    +0.040 C 
BRANCH  16  17
ATOM     17  C   UNL     1       0.023  -0.522   1.442  0.00  0.00    +0.005 C 
BRANCH  17  19
ATOM     18  C   UNL     1       0.064  -2.569   2.873  0.00  0.00    +0.004 C 
ATOM     19  C   UNL     1       0.043  -2.052   1.433  0.00  0.00    -0.003 C 
ENDBRANCH  17  19
ENDBRANCH  16  17
ENDBRANCH   6  16
ENDBRANCH   2  11
ENDBRANCH   1   3
BRANCH   1  20
ATOM     20  S   UNL     1      -6.692   0.693   0.050  0.00  0.00    -0.010 S 
BRANCH  20  21
ATOM     21  C   UNL     1      -6.748   0.337   1.774  0.00  0.00    +0.211 C 
ATOM     22  N   UNL     1      -6.370   0.615   2.990  0.00  0.00    -0.146 NA
ATOM     23  N   UNL     1      -7.249  -0.468   2.860  0.00  0.00    -0.146 N 
ATOM     24  C   UNL     1      -8.001  -1.490   3.368  0.00  0.00    +0.156 A 
ATOM     25  C   UNL     1      -8.020  -1.743   4.748  0.00  0.00    +0.016 A 
ATOM     26  C   UNL     1      -8.786  -2.776   5.213  0.00  0.00    +0.048 A 
ATOM     27  N   UNL     1      -9.487  -3.508   4.354  0.00  0.00    -0.220 NA
ATOM     28  C   UNL     1      -9.456  -3.254   3.054  0.00  0.00    +0.215 A 
ATOM     29  N   UNL     1      -8.733  -2.261   2.559  0.00  0.00    -0.197 NA
ATOM     30  N   UNL     1     -10.200  -4.042   2.193  0.00  0.00    -0.327 N 
ATOM     31  C   UNL     1      -8.836  -3.081   6.688  0.00  0.00    +0.066 C 
ATOM     32  H   UNL     1     -10.184  -3.842   1.112  0.00  0.00    +0.145 HD
ATOM     33  H   UNL     1     -10.809  -4.867   2.591  0.00  0.00    +0.145 HD
BRANCH  25  34
ATOM     34  C   UNL     1      -7.215  -0.894   5.698  0.00  0.00    +0.040 C 
BRANCH  34  35
ATOM     35  C   UNL     1      -8.063   0.290   6.168  0.00  0.00    +0.005 C 
BRANCH  35  36
ATOM     36  C   UNL     1      -7.245   1.152   7.132  0.00  0.00    -0.003 C 
ATOM     37  C   UNL     1      -8.093   2.336   7.602  0.00  0.00    +0.004 C 
ENDBRANCH  35  36
ENDBRANCH  34  35
ENDBRANCH  25  34
ENDBRANCH  20  21
ENDBRANCH   1  20
TORSDOF 10
