REMARK  Name = ZINC67631028
REMARK  9 active torsions:
REMARK  status: ('A' for Active; 'I' for Inactive)
REMARK    1  A    between atoms: C_1  and  C_2
REMARK    2  A    between atoms: N_5  and  C_8
REMARK    3  A    between atoms: C_8  and  C_9
REMARK    4  A    between atoms: C_9  and  C_11
REMARK    5  A    between atoms: C_9  and  O_31
REMARK    6  A    between atoms: C_11  and  N_12
REMARK    7  A    between atoms: N_15  and  C_16
REMARK    8  A    between atoms: C_16  and  C_18
REMARK    9  A    between atoms: C_16  and  C_25
REMARK                            x       y       z     vdW  Elec       q    Type
REMARK                         _______ _______ _______ _____ _____    ______ ____
ROOT
ATOM      1  N   UNL     1       0.358  -6.281   4.257  0.00  0.00    -0.297 N 
ATOM      2  C   UNL     1       0.602  -7.592   4.450  0.00  0.00    +0.300 C 
ATOM      3  O   UNL     1       0.334  -8.396   3.577  0.00  0.00    -0.253 OA
ATOM      4  N   UNL     1       1.143  -8.013   5.610  0.00  0.00    -0.290 N 
ATOM      5  H   UNL     1       0.572  -5.640   4.953  0.00  0.00    +0.150 HD
ATOM      6  H   UNL     1       1.425  -7.367   6.277  0.00  0.00    +0.151 HD
ENDROOT
BRANCH   1   7
ATOM      7  C   UNL     1      -0.229  -5.823   2.995  0.00  0.00    +0.135 C 
BRANCH   7   8
ATOM      8  C   UNL     1      -0.401  -4.303   3.034  0.00  0.00    +0.115 C 
BRANCH   8   9
ATOM      9  O   UNL     1      -1.263  -3.949   4.118  0.00  0.00    -0.392 OA
ATOM     10  H   UNL     1      -2.148  -4.335   4.059  0.00  0.00    +0.210 HD
ENDBRANCH   8   9
BRANCH   8  11
ATOM     11  C   UNL     1      -1.015  -3.825   1.717  0.00  0.00    -0.046 C 
BRANCH  11  16
ATOM     12  C   UNL     1      -0.626   1.768   0.676  0.00  0.00    +0.007 C 
ATOM     13  C   UNL     1      -0.501   0.247   0.572  0.00  0.00    -0.018 C 
ATOM     14  C   UNL     1      -1.898  -0.380   0.520  0.00  0.00    -0.016 C 
ATOM     15  C   UNL     1      -1.767  -1.904   0.497  0.00  0.00    -0.078 C 
ATOM     16  N   UNL     1      -1.070  -2.358   1.706  0.00  0.00    +0.381 N 
ATOM     17  C   UNL     1       0.295  -1.819   1.726  0.00  0.00    -0.078 C 
ATOM     18  C   UNL     1       0.243  -0.291   1.797  0.00  0.00    -0.016 C 
ATOM     19  H   UNL     1      -1.569  -2.036   2.522  0.00  0.00    -0.082 HD
ENDBRANCH  11  16
ENDBRANCH   8  11
ENDBRANCH   7   8
ENDBRANCH   1   7
BRANCH   4  20
ATOM     20  C   UNL     1       1.305  -9.447   5.865  0.00  0.00    +0.133 C 
BRANCH  20  21
ATOM     21  C   UNL     1      -0.007 -10.026   6.328  0.00  0.00    -0.025 A 
ATOM     22  C   UNL     1      -0.810  -9.310   7.196  0.00  0.00    +0.008 A 
ATOM     23  C   UNL     1      -2.014  -9.840   7.621  0.00  0.00    +0.038 A 
ATOM     24  C   UNL     1      -2.415 -11.089   7.176  0.00  0.00    +0.123 A 
ATOM     25  C   UNL     1      -1.610 -11.805   6.307  0.00  0.00    +0.038 A 
ATOM     26  C   UNL     1      -0.409 -11.271   5.880  0.00  0.00    +0.008 A 
ATOM     27  F   UNL     1      -3.591 -11.608   7.591  0.00  0.00    -0.205 F 
ENDBRANCH  20  21
BRANCH  20  28
ATOM     28  C   UNL     1       2.365  -9.656   6.949  0.00  0.00    +0.143 C 
ATOM     29  C   UNL     1       3.715  -9.072   6.480  0.00  0.00    +0.036 C 
ATOM     30  C   UNL     1       4.730 -10.123   7.007  0.00  0.00    +0.031 C 
ATOM     31  C   UNL     1       3.906 -11.427   6.858  0.00  0.00    +0.160 C 
ATOM     32  O   UNL     1       2.554 -11.056   7.180  0.00  0.00    -0.374 OA
ENDBRANCH  20  28
ENDBRANCH   4  20
TORSDOF 8
