REMARK  Name = ZINC63518740
REMARK  11 active torsions:
REMARK  status: ('A' for Active; 'I' for Inactive)
REMARK    1  A    between atoms: C_1  and  C_2
REMARK    2  A    between atoms: C_5  and  C_8
REMARK    3  A    between atoms: C_8  and  C_9
REMARK    4  A    between atoms: C_8  and  N_23
REMARK    5  A    between atoms: C_9  and  N_10
REMARK    6  A    between atoms: N_10  and  S_11
REMARK    7  A    between atoms: S_11  and  C_14
REMARK    8  A    between atoms: C_16  and  C_20
REMARK    9  A    between atoms: N_17  and  C_19
REMARK   10  A    between atoms: N_23  and  C_24
REMARK   11  A    between atoms: N_23  and  C_25
REMARK                            x       y       z     vdW  Elec       q    Type
REMARK                         _______ _______ _______ _____ _____    ______ ____
ROOT
ATOM      1  N   UNL     1      -2.231  -4.139  -1.105  0.00  0.00    -0.191 NA
ATOM      2  H   UNL     1      -1.850  -3.474  -1.699  0.00  0.00    +0.148 HD
ENDROOT
BRANCH   1   3
ATOM      3  S   UNL     1      -3.760  -4.715  -1.377  0.00  0.00    +0.060 S 
ATOM      4  O   UNL     1      -4.253  -4.032  -2.522  0.00  0.00    -0.153 OA
ATOM      5  O   UNL     1      -3.677  -6.133  -1.313  0.00  0.00    -0.153 OA
BRANCH   3   6
ATOM      6  C   UNL     1      -4.758  -4.207  -0.018  0.00  0.00    +0.123 A 
ATOM      7  C   UNL     1      -4.959  -4.919   1.168  0.00  0.00    +0.061 A 
ATOM      8  C   UNL     1      -5.804  -4.166   1.955  0.00  0.00    +0.106 A 
ATOM      9  N   UNL     1      -6.108  -3.019   1.258  0.00  0.00    -0.344 N 
ATOM     10  C   UNL     1      -5.464  -3.053   0.066  0.00  0.00    +0.114 A 
ATOM     11  C   UNL     1      -6.979  -1.939   1.728  0.00  0.00    +0.149 C 
BRANCH   8  12
ATOM     12  C   UNL     1      -6.290  -4.522   3.292  0.00  0.00    +0.258 C 
ATOM     13  O   UNL     1      -6.950  -3.724   3.933  0.00  0.00    -0.269 OA
ATOM     14  N   UNL     1      -6.007  -5.733   3.812  0.00  0.00    -0.324 N 
ATOM     15  H   UNL     1      -5.422  -6.341   3.334  0.00  0.00    +0.145 HD
ATOM     16  H   UNL     1      -6.388  -5.996   4.665  0.00  0.00    +0.145 HD
ENDBRANCH   8  12
ENDBRANCH   3   6
ENDBRANCH   1   3
BRANCH   1  17
ATOM     17  C   UNL     1      -1.454  -4.634   0.035  0.00  0.00    +0.095 C 
BRANCH  17  18
ATOM     18  C   UNL     1       0.021  -4.278  -0.161  0.00  0.00    -0.023 C 
BRANCH  18  23
ATOM     19  C   UNL     1       0.645   1.466  -0.033  0.00  0.00    +0.044 C 
ATOM     20  C   UNL     1       0.483  -0.032  -0.066  0.00  0.00    -0.050 A 
ATOM     21  C   UNL     1       0.448  -0.697  -1.278  0.00  0.00    +0.003 A 
ATOM     22  C   UNL     1       0.299  -2.071  -1.308  0.00  0.00    +0.002 A 
ATOM     23  C   UNL     1       0.184  -2.780  -0.127  0.00  0.00    -0.060 A 
ATOM     24  C   UNL     1       0.220  -2.115   1.084  0.00  0.00    +0.002 A 
ATOM     25  C   UNL     1       0.373  -0.742   1.115  0.00  0.00    +0.003 A 
ENDBRANCH  18  23
BRANCH  18  26
ATOM     26  N   UNL     1       0.817  -4.882   0.916  0.00  0.00    +0.381 N 
ATOM     27  C   UNL     1       0.720  -6.345   0.835  0.00  0.00    -0.096 C 
ATOM     28  C   UNL     1       2.222  -4.476   0.773  0.00  0.00    -0.096 C 
ATOM     29  H   UNL     1       0.466  -4.570   1.809  0.00  0.00    -0.082 HD
ENDBRANCH  18  26
ENDBRANCH  17  18
ENDBRANCH   1  17
TORSDOF 7
