REMARK  Name = ZINC09104065
REMARK  14 active torsions:
REMARK  status: ('A' for Active; 'I' for Inactive)
REMARK    1  A    between atoms: C_1  and  C_2
REMARK    2  A    between atoms: C_5  and  S_9
REMARK    3  A    between atoms: C_7  and  C_8
REMARK    4  A    between atoms: S_9  and  C_12
REMARK    5  A    between atoms: C_12  and  C_14
REMARK    6  A    between atoms: C_12  and  C_26
REMARK    7  A    between atoms: C_14  and  N_15
REMARK    8  A    between atoms: C_16  and  C_18
REMARK    9  A    between atoms: N_20  and  C_21
REMARK   10  A    between atoms: C_21  and  C_22
REMARK   11  A    between atoms: C_22  and  C_23
REMARK   12  A    between atoms: C_23  and  N_59
REMARK   13  A    between atoms: C_24  and  N_59
REMARK   14  A    between atoms: C_25  and  N_59
REMARK                            x       y       z     vdW  Elec       q    Type
REMARK                         _______ _______ _______ _____ _____    ______ ____
ROOT
ATOM      1  C   UNL     1       3.103   0.704  -1.776  0.00  0.00    +0.189 C 
ENDROOT
BRANCH   1   2
ATOM      2  C   UNL     1       1.954   0.013  -2.464  0.00  0.00    +0.016 A 
ATOM      3  C   UNL     1       1.188   0.450  -3.494  0.00  0.00    +0.013 A 
ATOM      4  C   UNL     1       0.177  -0.363  -3.969  0.00  0.00    +0.008 A 
ATOM      5  C   UNL     1      -0.020  -1.573  -3.391  0.00  0.00    +0.045 A 
ATOM      6  S   UNL     1       1.252  -1.595  -2.139  0.00  0.00    -0.100 S 
ENDBRANCH   1   2
BRANCH   1   7
ATOM      7  S   UNL     1       2.712   0.923  -0.018  0.00  0.00    +0.006 S 
ATOM      8  O   UNL     1       3.637   1.820   0.580  0.00  0.00    -0.169 OA
ATOM      9  O   UNL     1       2.432  -0.335   0.581  0.00  0.00    -0.169 OA
BRANCH   7  14
ATOM     10  C   UNL     1      -2.553   3.868   0.044  0.00  0.00    +0.044 C 
ATOM     11  C   UNL     1      -1.238   3.133   0.029  0.00  0.00    -0.047 A 
ATOM     12  C   UNL     1      -0.050   3.840   0.023  0.00  0.00    +0.005 A 
ATOM     13  C   UNL     1       1.156   3.166   0.008  0.00  0.00    +0.027 A 
ATOM     14  C   UNL     1       1.175   1.783   0.000  0.00  0.00    +0.089 A 
ATOM     15  C   UNL     1      -0.013   1.076   0.008  0.00  0.00    +0.030 A 
ATOM     16  C   UNL     1      -1.219   1.751   0.017  0.00  0.00    -0.046 A 
ATOM     17  C   UNL     1      -2.514   0.980   0.019  0.00  0.00    +0.044 C 
ENDBRANCH   7  14
ENDBRANCH   1   7
BRANCH   1  18
ATOM     18  C   UNL     1       4.367  -0.147  -1.916  0.00  0.00    +0.136 C 
BRANCH  18  19
ATOM     19  N   UNL     1       5.484   0.525  -1.248  0.00  0.00    -0.305 N 
ATOM     20  C   UNL     1       6.706  -0.044  -1.241  0.00  0.00    +0.299 C 
ATOM     21  O   UNL     1       6.880  -1.113  -1.790  0.00  0.00    -0.265 OA
ATOM     22  H   UNL     1       5.345   1.379  -0.809  0.00  0.00    +0.149 HD
BRANCH  20  23
ATOM     23  C   UNL     1       7.846   0.641  -0.559  0.00  0.00    +0.299 C 
ATOM     24  O   UNL     1       7.671   1.709  -0.011  0.00  0.00    -0.265 OA
ATOM     25  N   UNL     1       9.068   0.072  -0.553  0.00  0.00    -0.308 N 
ATOM     26  H   UNL     1       9.207  -0.782  -0.992  0.00  0.00    +0.149 HD
BRANCH  25  27
ATOM     27  C   UNL     1      10.185   0.744   0.115  0.00  0.00    +0.103 C 
BRANCH  27  28
ATOM     28  C   UNL     1      11.449  -0.107  -0.025  0.00  0.00    +0.000 C 
BRANCH  28  29
ATOM     29  C   UNL     1      12.615   0.594   0.674  0.00  0.00    -0.078 C 
BRANCH  29  32
ATOM     30  C   UNL     1      14.258  -0.302  -0.863  0.00  0.00    -0.097 C 
ATOM     31  C   UNL     1      14.908   0.293   1.391  0.00  0.00    -0.097 C 
ATOM     32  N   UNL     1      13.823  -0.250   0.548  0.00  0.00    +0.376 N 
ATOM     33  H   UNL     1      13.599  -1.201   0.864  0.00  0.00    -0.083 HD
ENDBRANCH  29  32
ENDBRANCH  28  29
ENDBRANCH  27  28
ENDBRANCH  25  27
ENDBRANCH  20  23
ENDBRANCH  18  19
ENDBRANCH   1  18
TORSDOF 10
