REMARK  Name = ZINC64098037
REMARK  10 active torsions:
REMARK  status: ('A' for Active; 'I' for Inactive)
REMARK    1  A    between atoms: C_1  and  C_2
REMARK    2  A    between atoms: C_5  and  N_9
REMARK    3  A    between atoms: C_6  and  C_8
REMARK    4  A    between atoms: C_10  and  C_12
REMARK    5  A    between atoms: C_12  and  S_13
REMARK    6  A    between atoms: S_13  and  C_14
REMARK    7  A    between atoms: C_18  and  C_21
REMARK    8  A    between atoms: C_21  and  C_23
REMARK    9  A    between atoms: C_21  and  N_33
REMARK   10  A    between atoms: C_23  and  C_24
REMARK                            x       y       z     vdW  Elec       q    Type
REMARK                         _______ _______ _______ _____ _____    ______ ____
ROOT
ATOM      1  C   UNL     1      -0.359  -8.743  -2.723  0.00  0.00    +0.263 C 
ATOM      2  N   UNL     1      -1.500  -9.122  -1.848  0.00  0.00    -0.218 NA
ATOM      3  N   UNL     1      -1.116 -10.441  -1.332  0.00  0.00    -0.228 NA
ATOM      4  C   UNL     1       0.355 -10.510  -1.452  0.00  0.00    +0.188 C 
ATOM      5  O   UNL     1       0.790  -9.255  -2.011  0.00  0.00    -0.334 OA
ATOM      6  H   UNL     1      -1.615  -8.459  -1.097  0.00  0.00    +0.144 HD
ATOM      7  H   UNL     1      -1.406 -10.552  -0.371  0.00  0.00    +0.143 HD
ENDROOT
BRANCH   1   8
ATOM      8  S   UNL     1      -0.255  -6.941  -2.895  0.00  0.00    -0.104 S 
BRANCH   8   9
ATOM      9  C   UNL     1      -0.134  -6.343  -1.187  0.00  0.00    +0.169 C 
BRANCH   9  11
ATOM     10  N   UNL     1       0.059  -4.170  -0.021  0.00  0.00    -0.285 N 
ATOM     11  C   UNL     1      -0.040  -4.839  -1.187  0.00  0.00    +0.227 C 
ATOM     12  O   UNL     1      -0.054  -4.230  -2.236  0.00  0.00    -0.275 OA
ATOM     13  H   UNL     1       0.135  -4.658   0.814  0.00  0.00    +0.155 HD
BRANCH  10  18
ATOM     14  C   UNL     1       0.025   1.503   0.005  0.00  0.00    +0.044 C 
ATOM     15  C   UNL     1       0.034  -0.004  -0.002  0.00  0.00    -0.050 A 
ATOM     16  C   UNL     1       0.632  -0.685  -1.046  0.00  0.00    +0.005 A 
ATOM     17  C   UNL     1       0.641  -2.066  -1.055  0.00  0.00    +0.024 A 
ATOM     18  C   UNL     1       0.051  -2.771  -0.014  0.00  0.00    +0.036 A 
ATOM     19  C   UNL     1      -0.548  -2.083   1.033  0.00  0.00    -0.029 A 
ATOM     20  C   UNL     1      -0.550  -0.702   1.039  0.00  0.00    +0.008 A 
ATOM     21  C   UNL     1      -1.190  -2.843   2.165  0.00  0.00    +0.045 C 
ENDBRANCH  10  18
ENDBRANCH   9  11
ENDBRANCH   8   9
ENDBRANCH   1   8
BRANCH   4  22
ATOM     22  C   UNL     1       0.983 -10.716  -0.072  0.00  0.00    -0.025 C 
BRANCH  22  23
ATOM     23  N   UNL     1       0.487 -11.970   0.509  0.00  0.00    +0.383 N 
ATOM     24  H   UNL     1       0.735 -12.741  -0.092  0.00  0.00    -0.089 HD
ATOM     25  H   UNL     1       0.901 -12.106   1.419  0.00  0.00    -0.089 HD
ATOM     26  H   UNL     1      -0.517 -11.925   0.600  0.00  0.00    -0.089 HD
ENDBRANCH  22  23
BRANCH  22  27
ATOM     27  C   UNL     1       2.506 -10.785  -0.210  0.00  0.00    +0.021 C 
BRANCH  27  28
ATOM     28  C   UNL     1       3.131 -10.865   1.159  0.00  0.00    -0.043 C 
ATOM     29  C   UNL     1       3.506 -11.985   1.817  0.00  0.00    -0.001 A 
ATOM     30  C   UNL     1       3.446 -13.410   1.470  0.00  0.00    +0.010 A 
ATOM     31  C   UNL     1       3.910 -14.321   2.356  0.00  0.00    +0.001 A 
ATOM     32  C   UNL     1       4.444 -13.940   3.594  0.00  0.00    +0.002 A 
ATOM     33  C   UNL     1       4.533 -12.650   3.984  0.00  0.00    +0.026 A 
ATOM     34  C   UNL     1       4.076 -11.608   3.131  0.00  0.00    +0.043 A 
ATOM     35  N   UNL     1       4.053 -10.306   3.279  0.00  0.00    -0.380 N 
ATOM     36  C   UNL     1       3.471  -9.708   2.072  0.00  0.00    +0.144 C 
ATOM     37  H   UNL     1       4.371  -9.819   4.055  0.00  0.00    +0.160 HD
ENDBRANCH  27  28
ENDBRANCH  22  27
ENDBRANCH   4  22
TORSDOF 8
