REMARK  Name = ZINC35458617
REMARK  17 active torsions:
REMARK  status: ('A' for Active; 'I' for Inactive)
REMARK    1  A    between atoms: C_1  and  C_2
REMARK    2  A    between atoms: C_2  and  C_3
REMARK    3  A    between atoms: C_2  and  C_4
REMARK    4  A    between atoms: C_8  and  C_42
REMARK    5  A    between atoms: C_10  and  C_12
REMARK    6  A    between atoms: C_13  and  C_14
REMARK    7  A    between atoms: C_13  and  C_16
REMARK    8  A    between atoms: C_14  and  O_15
REMARK    9  A    between atoms: C_16  and  O_18
REMARK   10  A    between atoms: O_18  and  C_19
REMARK   11  A    between atoms: C_19  and  C_20
REMARK   12  A    between atoms: C_20  and  O_41
REMARK   13  A    between atoms: C_23  and  C_38
REMARK   14  A    between atoms: C_33  and  C_35
REMARK   15  A    between atoms: C_38  and  C_39
REMARK   16  A    between atoms: C_38  and  C_40
REMARK   17  A    between atoms: C_42  and  O_43
REMARK                            x       y       z     vdW  Elec       q    Type
REMARK                         _______ _______ _______ _____ _____    ______ ____
ROOT
ATOM      1  C   UNL     1       0.010   0.900  -6.507  0.00  0.00    +0.268 C 
ENDROOT
BRANCH   1   2
ATOM      2  C   UNL     1       0.278   1.852  -7.675  0.00  0.00    +0.113 C 
ATOM      3  C   UNL     1      -1.053   2.347  -8.249  0.00  0.00    +0.039 C 
ATOM      4  C   UNL     1      -1.873   1.160  -8.758  0.00  0.00    +0.007 C 
ATOM      5  C   UNL     1      -1.091   0.410  -9.840  0.00  0.00    -0.001 C 
ATOM      6  C   UNL     1       0.230  -0.080  -9.247  0.00  0.00    +0.032 C 
ATOM      7  C   UNL     1       1.046   1.115  -8.770  0.00  0.00    +0.140 C 
ATOM      8  C   UNL     1       2.384   0.642  -8.258  0.00  0.00    +0.314 C 
ATOM      9  O   UNL     1       3.355   1.357  -8.333  0.00  0.00    -0.250 OA
ATOM     10  O   UNL     1       2.483  -0.587  -7.716  0.00  0.00    -0.459 OA
ATOM     11  C   UNL     1       2.698  -1.686  -8.582  0.00  0.00    +0.274 C 
ATOM     12  C   UNL     1       2.064  -1.594  -9.915  0.00  0.00    +0.074 C 
ATOM     13  C   UNL     1       1.017  -0.869 -10.243  0.00  0.00    -0.008 C 
BRANCH  12  14
ATOM     14  C   UNL     1       2.684  -2.374 -10.991  0.00  0.00    +0.386 C 
ATOM     15  O   UNL     1       2.211  -2.343 -12.120  0.00  0.00    -0.241 OA
ATOM     16  O   UNL     1       3.675  -3.054 -10.762  0.00  0.00    -0.241 OA
ENDBRANCH  12  14
BRANCH   5  17
ATOM     17  C   UNL     1      -1.910  -0.785 -10.329  0.00  0.00    -0.013 C 
ATOM     18  C   UNL     1      -2.160  -1.744  -9.163  0.00  0.00    +0.007 C 
ATOM     19  C   UNL     1      -3.250  -0.294 -10.880  0.00  0.00    +0.007 C 
ENDBRANCH   5  17
BRANCH   2  20
ATOM     20  O   UNL     1       1.047   2.966  -7.217  0.00  0.00    -0.384 OA
ATOM     21  H   UNL     1       0.617   3.482  -6.521  0.00  0.00    +0.210 HD
ENDBRANCH   2  20
ENDBRANCH   1   2
BRANCH   1  22
ATOM     22  O   UNL     1      -0.808   1.556  -5.536  0.00  0.00    -0.458 OA
BRANCH  22  23
ATOM     23  C   UNL     1      -1.138   0.849  -4.437  0.00  0.00    +0.337 C 
ATOM     24  O   UNL     1      -0.743  -0.293  -4.307  0.00  0.00    -0.245 OA
BRANCH  23  26
ATOM     25  C   UNL     1      -2.303   0.761  -2.310  0.00  0.00    -0.006 C 
ATOM     26  C   UNL     1      -1.977   1.459  -3.396  0.00  0.00    +0.058 C 
BRANCH  25  32
ATOM     27  C   UNL     1      -2.227   1.139   0.138  0.00  0.00    +0.003 C 
ATOM     28  C   UNL     1      -2.448  -0.335   0.501  0.00  0.00    +0.009 C 
ATOM     29  C   UNL     1      -3.919  -0.526   0.878  0.00  0.00    +0.033 C 
ATOM     30  C   UNL     1      -4.804   0.083  -0.169  0.00  0.00    -0.048 C 
ATOM     31  C   UNL     1      -4.400   0.940  -1.051  0.00  0.00    -0.018 C 
ATOM     32  C   UNL     1      -2.989   1.442  -1.154  0.00  0.00    +0.038 C 
BRANCH  27  34
ATOM     33  C   UNL     1      -0.533   2.821  -0.599  0.00  0.00    +0.007 C 
ATOM     34  C   UNL     1      -0.734   1.399  -0.072  0.00  0.00    -0.013 C 
ATOM     35  C   UNL     1       0.003   1.239   1.259  0.00  0.00    +0.007 C 
ENDBRANCH  27  34
BRANCH  30  36
ATOM     36  C   UNL     1      -6.253  -0.330  -0.197  0.00  0.00    +0.186 C 
BRANCH  36  37
ATOM     37  O   UNL     1      -6.923   0.354  -1.258  0.00  0.00    -0.391 OA
ATOM     38  H   UNL     1      -7.862   0.136  -1.335  0.00  0.00    +0.210 HD
ENDBRANCH  36  37
ENDBRANCH  30  36
ENDBRANCH  25  32
BRANCH  26  39
ATOM     39  C   UNL     1      -2.467   2.875  -3.557  0.00  0.00    +0.198 C 
BRANCH  39  40
ATOM     40  O   UNL     1      -3.139   3.006  -4.811  0.00  0.00    -0.390 OA
ATOM     41  H   UNL     1      -3.482   3.894  -4.982  0.00  0.00    +0.210 HD
ENDBRANCH  39  40
ENDBRANCH  26  39
ENDBRANCH  23  26
ENDBRANCH  22  23
ENDBRANCH   1  22
TORSDOF 13
