REMARK  Name = ZINC64736752
REMARK  8 active torsions:
REMARK  status: ('A' for Active; 'I' for Inactive)
REMARK    1  A    between atoms: C_1  and  C_2
REMARK    2  A    between atoms: N_6  and  C_7
REMARK    3  A    between atoms: C_7  and  C_8
REMARK    4  A    between atoms: C_8  and  C_9
REMARK    5  A    between atoms: C_8  and  C_10
REMARK    6  A    between atoms: C_10  and  N_11
REMARK    7  A    between atoms: C_12  and  C_14
REMARK    8  A    between atoms: C_19  and  O_20
REMARK                            x       y       z     vdW  Elec       q    Type
REMARK                         _______ _______ _______ _____ _____    ______ ____
ROOT
ATOM      1  N   UNL     1      -2.756   0.839   4.764  0.00  0.00    -0.311 N 
ATOM      2  C   UNL     1      -2.988   1.373   5.979  0.00  0.00    +0.248 C 
ATOM      3  O   UNL     1      -2.064   1.560   6.747  0.00  0.00    -0.270 OA
ATOM      4  H   UNL     1      -3.494   0.689   4.151  0.00  0.00    +0.149 HD
ENDROOT
BRANCH   2   5
ATOM      5  C   UNL     1      -4.363   1.730   6.378  0.00  0.00    +0.079 A 
ATOM      6  C   UNL     1      -5.428   1.511   5.501  0.00  0.00    +0.032 A 
ATOM      7  C   UNL     1      -6.710   1.847   5.880  0.00  0.00    +0.019 A 
ATOM      8  C   UNL     1      -6.947   2.402   7.128  0.00  0.00    +0.019 A 
ATOM      9  C   UNL     1      -5.903   2.623   8.004  0.00  0.00    +0.047 A 
ATOM     10  C   UNL     1      -4.608   2.285   7.641  0.00  0.00    +0.129 A 
ATOM     11 BR   UNL     1      -8.151   1.551   4.692  0.00  0.00    -0.050 Br
BRANCH  10  12
ATOM     12  O   UNL     1      -3.582   2.497   8.503  0.00  0.00    -0.506 OA
ATOM     13  H   UNL     1      -3.171   3.369   8.419  0.00  0.00    +0.292 HD
ENDBRANCH  10  12
ENDBRANCH   2   5
BRANCH   1  14
ATOM     14  C   UNL     1      -1.391   0.484   4.367  0.00  0.00    +0.109 C 
BRANCH  14  15
ATOM     15  C   UNL     1      -1.406  -0.098   2.953  0.00  0.00    +0.023 C 
ATOM     16  C   UNL     1      -2.183  -1.416   2.951  0.00  0.00    +0.011 C 
BRANCH  15  17
ATOM     17  C   UNL     1       0.030  -0.353   2.491  0.00  0.00    +0.127 C 
BRANCH  17  23
ATOM     18  C   UNL     1      -0.018   1.503   0.010  0.00  0.00    +0.084 C 
ATOM     19  C   UNL     1       0.002  -0.004   0.002  0.00  0.00    +0.084 A 
ATOM     20  N   UNL     1       0.008  -0.759  -1.063  0.00  0.00    -0.350 N 
ATOM     21  C   UNL     1       0.028  -2.047  -0.691  0.00  0.00    +0.101 A 
ATOM     22  C   UNL     1       0.034  -2.093   0.655  0.00  0.00    +0.104 A 
ATOM     23  N   UNL     1       0.023  -0.797   1.095  0.00  0.00    -0.336 N 
ATOM     24  H   UNL     1      -0.000  -0.438  -1.978  0.00  0.00    +0.166 HD
ENDBRANCH  17  23
ENDBRANCH  15  17
ENDBRANCH  14  15
ENDBRANCH   1  14
TORSDOF 6
