REMARK  Name = ZINC20466175
REMARK  11 active torsions:
REMARK  status: ('A' for Active; 'I' for Inactive)
REMARK    1  A    between atoms: C_1  and  C_2
REMARK    2  A    between atoms: C_4  and  N_32
REMARK    3  A    between atoms: C_8  and  C_31
REMARK    4  A    between atoms: C_11  and  O_30
REMARK    5  A    between atoms: C_13  and  C_17
REMARK    6  A    between atoms: C_17  and  C_19
REMARK    7  A    between atoms: C_17  and  C_20
REMARK    8  A    between atoms: N_22  and  C_23
REMARK    9  A    between atoms: C_23  and  C_24
REMARK   10  A    between atoms: C_24  and  N_25
REMARK   11  A    between atoms: C_33  and  C_35
REMARK                            x       y       z     vdW  Elec       q    Type
REMARK                         _______ _______ _______ _____ _____    ______ ____
ROOT
ATOM      1  C   UNL     1       4.103   2.320   0.617  0.00  0.00    +0.010 C 
ATOM      2  C   UNL     1       2.728   1.691   0.852  0.00  0.00    +0.012 C 
ATOM      3  C   UNL     1       2.780   0.203   0.502  0.00  0.00    +0.076 C 
ATOM      4  C   UNL     1       1.406  -0.426   0.737  0.00  0.00    +0.023 C 
ATOM      5  C   UNL     1       0.369   0.270  -0.147  0.00  0.00    +0.009 C 
ATOM      6  C   UNL     1       0.316   1.758   0.204  0.00  0.00    -0.027 C 
ATOM      7  C   UNL     1       1.691   2.387  -0.032  0.00  0.00    +0.028 C 
ATOM      8  C   UNL     1       1.638   3.875   0.319  0.00  0.00    +0.122 C 
ATOM      9  C   UNL     1       0.601   4.571  -0.565  0.00  0.00    +0.029 C 
ATOM     10  C   UNL     1      -0.774   3.942  -0.330  0.00  0.00    +0.007 C 
ATOM     11  C   UNL     1      -0.721   2.454  -0.680  0.00  0.00    +0.007 C 
ATOM     12  C   UNL     1      -0.075   1.923   1.674  0.00  0.00    +0.011 C 
ENDROOT
BRANCH   3  13
ATOM     13  N   UNL     1       3.773  -0.463   1.349  0.00  0.00    -0.312 N 
ATOM     14  C   UNL     1       4.364  -1.599   0.928  0.00  0.00    +0.210 C 
ATOM     15  O   UNL     1       4.074  -2.070  -0.151  0.00  0.00    -0.276 OA
ATOM     16  C   UNL     1       5.385  -2.284   1.799  0.00  0.00    +0.109 C 
ATOM     17  H   UNL     1       4.037  -0.036   2.328  0.00  0.00    +0.149 HD
ENDBRANCH   3  13
BRANCH   9  18
ATOM     18  C   UNL     1       0.548   6.059  -0.215  0.00  0.00    +0.077 C 
ATOM     19  C   UNL     1       0.007   6.230   1.206  0.00  0.00    +0.017 C 
BRANCH  18  20
ATOM     20  C   UNL     1      -0.357   6.772  -1.186  0.00  0.00    +0.216 C 
ATOM     21  O   UNL     1      -0.872   6.159  -2.098  0.00  0.00    -0.276 OA
ATOM     22  N   UNL     1      -0.596   8.091  -1.041  0.00  0.00    -0.317 N 
ATOM     23  H   UNL     1      -0.130   8.646  -0.214  0.00  0.00    +0.149 HD
BRANCH  22  24
ATOM     24  C   UNL     1      -1.476   8.784  -1.985  0.00  0.00    +0.085 C 
BRANCH  24  25
ATOM     25  C   UNL     1      -1.578  10.261  -1.598  0.00  0.00    -0.060 C 
BRANCH  25  26
ATOM     26  N   UNL     1      -2.460  10.955  -2.545  0.00  0.00    +0.381 N 
ATOM     27  C   UNL     1      -3.767  10.259  -2.664  0.00  0.00    -0.079 C 
ATOM     28  C   UNL     1      -4.702  11.354  -3.235  0.00  0.00    -0.020 C 
ATOM     29  C   UNL     1      -4.215  12.633  -2.516  0.00  0.00    -0.020 C 
ATOM     30  C   UNL     1      -2.774  12.321  -2.072  0.00  0.00    -0.079 C 
ATOM     31  H   UNL     1      -1.917  10.974  -3.502  0.00  0.00    -0.082 HD
ENDBRANCH  25  26
ENDBRANCH  24  25
ENDBRANCH  22  24
ENDBRANCH  18  20
ENDBRANCH   9  18
BRANCH   8  32
ATOM     32  O   UNL     1       2.922   4.462   0.099  0.00  0.00    -0.391 OA
ATOM     33  H   UNL     1       3.079   5.533   0.297  0.00  0.00    +0.210 HD
ENDBRANCH   8  32
TORSDOF 7
