REMARK  Name = ZINC33033780
REMARK  8 active torsions:
REMARK  status: ('A' for Active; 'I' for Inactive)
REMARK    1  A    between atoms: C_1  and  C_2
REMARK    2  A    between atoms: C_2  and  C_3
REMARK    3  A    between atoms: C_2  and  N_4
REMARK    4  A    between atoms: C_5  and  C_7
REMARK    5  A    between atoms: C_10  and  N_27
REMARK    6  A    between atoms: C_11  and  N_13
REMARK    7  A    between atoms: N_13  and  S_14
REMARK    8  A    between atoms: S_14  and  C_17
REMARK                            x       y       z     vdW  Elec       q    Type
REMARK                         _______ _______ _______ _____ _____    ______ ____
ROOT
ATOM      1  C   UNL     1      -2.442   0.399   0.075  0.00  0.00    +0.039 A 
ATOM      2  C   UNL     1      -2.736  -0.954   0.262  0.00  0.00    +0.015 A 
ATOM      3  C   UNL     1      -4.042  -1.390   0.205  0.00  0.00    +0.026 A 
ATOM      4  C   UNL     1      -5.069  -0.488  -0.049  0.00  0.00    +0.052 A 
ATOM      5  C   UNL     1      -4.780   0.865  -0.242  0.00  0.00    +0.070 A 
ATOM      6  C   UNL     1      -3.473   1.308  -0.181  0.00  0.00    +0.039 A 
ENDROOT
BRANCH   4   7
ATOM      7  N   UNL     1      -6.387  -0.935  -0.110  0.00  0.00    -0.332 N 
ATOM      8  C   UNL     1      -6.446  -2.403  -0.130  0.00  0.00    +0.086 C 
ATOM      9  C   UNL     1      -7.902  -2.851  -0.278  0.00  0.00    -0.063 C 
ATOM     10  N   UNL     1      -8.694  -2.309   0.836  0.00  0.00    +0.381 N 
ATOM     11  C   UNL     1      -8.635  -0.841   0.856  0.00  0.00    -0.063 C 
ATOM     12  C   UNL     1      -7.179  -0.394   1.003  0.00  0.00    +0.086 C 
ATOM     13  H   UNL     1      -9.743  -2.620   0.725  0.00  0.00    -0.086 HD
ATOM     14  H   UNL     1      -8.297  -2.692   1.788  0.00  0.00    -0.086 HD
ENDBRANCH   4   7
BRANCH   1  16
ATOM     15  N   UNL     1      -0.051  -0.011   0.388  0.00  0.00    -0.309 N 
ATOM     16  C   UNL     1      -1.044   0.866   0.141  0.00  0.00    +0.244 C 
ATOM     17  O   UNL     1      -0.788   2.043  -0.026  0.00  0.00    -0.270 OA
ATOM     18  H   UNL     1      -0.283  -1.075   0.544  0.00  0.00    +0.149 HD
BRANCH  15  20
ATOM     19  C   UNL     1       1.644   0.962   1.858  0.00  0.00    +0.027 C 
ATOM     20  C   UNL     1       1.337   0.453   0.448  0.00  0.00    +0.067 C 
ATOM     21  C   UNL     1       2.277  -0.706   0.109  0.00  0.00    +0.027 C 
ENDBRANCH  15  20
ENDBRANCH   1  16
BRANCH   5  22
ATOM     22  N   UNL     1      -5.816   1.773  -0.497  0.00  0.00    -0.214 N 
ATOM     23  H   UNL     1      -6.394   2.197   0.337  0.00  0.00    +0.174 HD
BRANCH  22  24
ATOM     24  S   UNL     1      -6.171   2.207  -2.056  0.00  0.00    +0.072 S 
ATOM     25  O   UNL     1      -7.267   3.109  -1.986  0.00  0.00    -0.150 OA
ATOM     26  O   UNL     1      -4.938   2.552  -2.672  0.00  0.00    -0.150 OA
BRANCH  24  27
ATOM     27  C   UNL     1      -6.758   0.763  -2.878  0.00  0.00    +0.109 A 
ATOM     28  C   UNL     1      -5.872  -0.069  -3.536  0.00  0.00    +0.029 A 
ATOM     29  C   UNL     1      -6.338  -1.200  -4.174  0.00  0.00    +0.006 A 
ATOM     30  C   UNL     1      -7.694  -1.502  -4.172  0.00  0.00    -0.044 A 
ATOM     31  C   UNL     1      -8.577  -0.672  -3.519  0.00  0.00    -0.042 A 
ATOM     32  C   UNL     1      -8.104   0.463  -2.872  0.00  0.00    +0.032 A 
ATOM     33  C   UNL     1     -10.058  -0.943  -3.467  0.00  0.00    +0.035 C 
ATOM     34  C   UNL     1     -10.459  -1.942  -4.550  0.00  0.00    +0.005 C 
ATOM     35  C   UNL     1      -9.535  -3.162  -4.450  0.00  0.00    +0.005 C 
ATOM     36  C   UNL     1      -8.137  -2.744  -4.900  0.00  0.00    +0.035 C 
ENDBRANCH  24  27
ENDBRANCH  22  24
ENDBRANCH   5  22
TORSDOF 6
