REMARK  Name = ZINC02601709
REMARK  6 active torsions:
REMARK  status: ('A' for Active; 'I' for Inactive)
REMARK    1  A    between atoms: N_10  and  C_13
REMARK    2  A    between atoms: C_13  and  C_14
REMARK    3  A    between atoms: C_14  and  C_15
REMARK    4  A    between atoms: C_15  and  C_16
REMARK    5  A    between atoms: C_21  and  C_24
REMARK    6  A    between atoms: C_21  and  N_27
REMARK                            x       y       z     vdW  Elec       q    Type
REMARK                         _______ _______ _______ _____ _____    ______ ____
ROOT
ATOM      1  C   UNL     1       1.419  -6.824  -2.778  0.00  0.00    +0.216 C 
ATOM      2  O   UNL     1       1.419  -6.016  -3.683  0.00  0.00    -0.276 OA
ATOM      3  N   UNL     1       1.409  -8.143  -3.053  0.00  0.00    -0.302 N 
ATOM      4  C   UNL     1       1.403  -9.133  -1.967  0.00  0.00    +0.107 C 
ATOM      5  C   UNL     1       0.228 -10.093  -2.182  0.00  0.00    +0.016 C 
ATOM      6  C   UNL     1       0.318 -10.698  -3.584  0.00  0.00    +0.015 C 
ATOM      7  C   UNL     1       0.229  -9.584  -4.630  0.00  0.00    +0.016 C 
ATOM      8  C   UNL     1       1.398  -8.619  -4.443  0.00  0.00    +0.107 C 
ENDROOT
BRANCH   6   9
ATOM      9  N   UNL     1      -0.789 -11.644  -3.782  0.00  0.00    +0.389 N 
ATOM     10  C   UNL     1      -0.703 -12.711  -2.778  0.00  0.00    -0.077 C 
ATOM     11  C   UNL     1      -1.899 -13.654  -2.927  0.00  0.00    -0.019 C 
ATOM     12  C   UNL     1      -1.885 -14.269  -4.330  0.00  0.00    -0.004 C 
ATOM     13  C   UNL     1      -1.900 -13.144  -5.369  0.00  0.00    -0.019 C 
ATOM     14  C   UNL     1      -0.704 -12.220  -5.129  0.00  0.00    -0.077 C 
ATOM     15  H   UNL     1      -1.667 -11.158  -3.679  0.00  0.00    -0.080 HD
ENDBRANCH   6   9
BRANCH   6  16
ATOM     16  C   UNL     1       1.631 -11.423  -3.735  0.00  0.00    +0.200 C 
ATOM     17  O   UNL     1       2.292 -11.689  -2.753  0.00  0.00    -0.278 OA
ATOM     18  N   UNL     1       2.069 -11.777  -4.959  0.00  0.00    -0.330 N 
ATOM     19  H   UNL     1       1.579 -11.498  -5.749  0.00  0.00    +0.145 HD
ATOM     20  H   UNL     1       2.874 -12.310  -5.051  0.00  0.00    +0.145 HD
ENDBRANCH   6  16
BRANCH   1  21
ATOM     21  C   UNL     1       1.430  -6.352  -1.347  0.00  0.00    +0.098 C 
BRANCH  21  22
ATOM     22  C   UNL     1       1.440  -4.822  -1.315  0.00  0.00    +0.031 C 
BRANCH  22  23
ATOM     23  C   UNL     1       1.452  -4.343   0.138  0.00  0.00    +0.130 C 
BRANCH  23  33
ATOM     24  C   UNL     1       1.597   1.283   0.255  0.00  0.00    +0.034 A 
ATOM     25  C   UNL     1       2.844   1.802   0.258  0.00  0.00    +0.048 A 
ATOM     26  S   UNL     1       3.856   0.460   0.225  0.00  0.00    -0.090 S 
ATOM     27  C   UNL     1       2.625  -0.814   0.206  0.00  0.00    +0.100 A 
ATOM     28  C   UNL     1       1.425  -0.098   0.228  0.00  0.00    +0.063 A 
ATOM     29  N   UNL     1       0.247  -0.860   0.219  0.00  0.00    -0.307 N 
ATOM     30  H   UNL     1      -0.614  -0.414   0.233  0.00  0.00    +0.170 HD
ATOM     31  C   UNL     1       0.301  -2.201   0.190  0.00  0.00    +0.330 A 
ATOM     32  O   UNL     1      -0.741  -2.827   0.183  0.00  0.00    -0.246 OA
ATOM     33  N   UNL     1       1.462  -2.878   0.170  0.00  0.00    -0.260 N 
ATOM     34  C   UNL     1       2.638  -2.212   0.178  0.00  0.00    +0.271 A 
ATOM     35  O   UNL     1       3.693  -2.820   0.159  0.00  0.00    -0.266 OA
ENDBRANCH  23  33
ENDBRANCH  22  23
ENDBRANCH  21  22
ENDBRANCH   1  21
TORSDOF 6
