REMARK  Name = ZINC66906119
REMARK  10 active torsions:
REMARK  status: ('A' for Active; 'I' for Inactive)
REMARK    1  A    between atoms: C_1  and  C_2
REMARK    2  A    between atoms: C_2  and  N_3
REMARK    3  A    between atoms: C_4  and  C_6
REMARK    4  A    between atoms: C_6  and  O_7
REMARK    5  A    between atoms: O_7  and  C_8
REMARK    6  A    between atoms: C_11  and  C_14
REMARK    7  A    between atoms: C_14  and  N_15
REMARK    8  A    between atoms: N_15  and  C_16
REMARK    9  A    between atoms: C_16  and  C_17
REMARK   10  A    between atoms: C_17  and  O_27
REMARK                            x       y       z     vdW  Elec       q    Type
REMARK                         _______ _______ _______ _____ _____    ______ ____
ROOT
ATOM      1  N   UNL     1      -8.338  -6.832  -1.353  0.00  0.00    +0.384 N 
ATOM      2  H   UNL     1      -8.323  -5.893  -1.724  0.00  0.00    -0.085 HD
ATOM      3  H   UNL     1      -7.775  -7.433  -1.935  0.00  0.00    -0.085 HD
ENDROOT
BRANCH   1   4
ATOM      4  C   UNL     1      -7.798  -6.827   0.013  0.00  0.00    -0.047 C 
BRANCH   4   8
ATOM      5  C   UNL     1      -3.775  -5.387  -0.051  0.00  0.00    +0.121 A 
ATOM      6  C   UNL     1      -4.828  -4.499   0.113  0.00  0.00    +0.046 A 
ATOM      7  C   UNL     1      -6.127  -4.967   0.133  0.00  0.00    +0.005 A 
ATOM      8  C   UNL     1      -6.379  -6.319  -0.009  0.00  0.00    -0.064 A 
ATOM      9  C   UNL     1      -5.331  -7.206  -0.173  0.00  0.00    +0.005 A 
ATOM     10  C   UNL     1      -4.030  -6.742  -0.200  0.00  0.00    +0.046 A 
BRANCH   5  11
ATOM     11  O   UNL     1      -2.495  -4.929  -0.072  0.00  0.00    -0.483 OA
BRANCH  11  12
ATOM     12  C   UNL     1      -2.307  -3.522   0.087  0.00  0.00    +0.324 C 
BRANCH  12  14
ATOM     13  N   UNL     1      -0.417  -1.928   0.168  0.00  0.00    -0.313 N 
ATOM     14  C   UNL     1      -0.835  -3.203   0.038  0.00  0.00    +0.251 C 
ATOM     15  O   UNL     1      -0.027  -4.093  -0.118  0.00  0.00    -0.272 OA
ATOM     16  H   UNL     1      -1.064  -1.216   0.292  0.00  0.00    +0.149 HD
BRANCH  13  18
ATOM     17  C   UNL     1       1.215  -0.111   0.291  0.00  0.00    +0.024 C 
ATOM     18  C   UNL     1       1.014  -1.618   0.120  0.00  0.00    +0.101 C 
ENDBRANCH  13  18
ENDBRANCH  12  14
ENDBRANCH  11  12
ENDBRANCH   5  11
ENDBRANCH   4   8
ENDBRANCH   1   4
BRANCH   1  19
ATOM     19  C   UNL     1      -9.721  -7.326  -1.330  0.00  0.00    -0.042 C 
BRANCH  19  20
ATOM     20  C   UNL     1     -10.242  -7.451  -2.764  0.00  0.00    +0.076 C 
ATOM     21  C   UNL     1     -10.141  -6.093  -3.456  0.00  0.00    +0.038 C 
ATOM     22  C   UNL     1     -10.863  -6.184  -4.806  0.00  0.00    +0.008 C 
ATOM     23  C   UNL     1     -12.363  -6.299  -4.543  0.00  0.00    +0.035 C 
ATOM     24  C   UNL     1     -12.644  -7.400  -3.553  0.00  0.00    -0.042 A 
ATOM     25  C   UNL     1     -11.671  -7.926  -2.733  0.00  0.00    -0.015 A 
ATOM     26  C   UNL     1     -11.998  -8.935  -1.838  0.00  0.00    +0.006 A 
ATOM     27  C   UNL     1     -13.289  -9.417  -1.766  0.00  0.00    +0.000 A 
ATOM     28  C   UNL     1     -14.265  -8.892  -2.591  0.00  0.00    +0.000 A 
ATOM     29  C   UNL     1     -13.942  -7.887  -3.480  0.00  0.00    +0.004 A 
BRANCH  20  30
ATOM     30  O   UNL     1      -9.444  -8.401  -3.473  0.00  0.00    -0.386 OA
ATOM     31  H   UNL     1      -9.451  -9.288  -3.086  0.00  0.00    +0.211 HD
ENDBRANCH  20  30
ENDBRANCH  19  20
ENDBRANCH   1  19
TORSDOF 9
