REMARK  Name = ZINC25672248
REMARK  9 active torsions:
REMARK  status: ('A' for Active; 'I' for Inactive)
REMARK    1  A    between atoms: C_1  and  C_2
REMARK    2  A    between atoms: C_5  and  N_8
REMARK    3  A    between atoms: C_9  and  C_11
REMARK    4  A    between atoms: C_11  and  C_13
REMARK    5  A    between atoms: C_11  and  N_19
REMARK    6  A    between atoms: N_19  and  C_20
REMARK    7  A    between atoms: C_20  and  C_21
REMARK    8  A    between atoms: C_21  and  C_22
REMARK    9  A    between atoms: C_22  and  N_23
REMARK                            x       y       z     vdW  Elec       q    Type
REMARK                         _______ _______ _______ _____ _____    ______ ____
ROOT
ATOM      1  C   UNL     1      -1.208  -0.821   0.131  0.00  0.00    +0.047 C 
ENDROOT
BRANCH   1   2
ATOM      2  C   UNL     1      -1.894  -0.493   1.432  0.00  0.00    -0.053 A 
ATOM      3  C   UNL     1      -1.454  -1.066   2.610  0.00  0.00    +0.002 A 
ATOM      4  C   UNL     1      -2.081  -0.762   3.804  0.00  0.00    +0.000 A 
ATOM      5  C   UNL     1      -3.154   0.109   3.818  0.00  0.00    +0.000 A 
ATOM      6  C   UNL     1      -3.598   0.678   2.639  0.00  0.00    +0.000 A 
ATOM      7  C   UNL     1      -2.968   0.377   1.446  0.00  0.00    +0.002 A 
ENDBRANCH   1   2
BRANCH   1   9
ATOM      8  N   UNL     1      -0.016   1.344   0.009  0.00  0.00    -0.287 N 
ATOM      9  C   UNL     1       0.052  -0.003   0.007  0.00  0.00    +0.207 C 
ATOM     10  O   UNL     1       1.127  -0.555  -0.094  0.00  0.00    -0.277 OA
ATOM     11  H   UNL     1      -0.995   1.845   0.024  0.00  0.00    +0.155 HD
BRANCH   8  16
ATOM     12  C   UNL     1       4.747   4.424  -0.059  0.00  0.00    +0.044 C 
ATOM     13  C   UNL     1       3.482   3.606  -0.041  0.00  0.00    -0.050 A 
ATOM     14  C   UNL     1       3.425   2.408  -0.730  0.00  0.00    +0.005 A 
ATOM     15  C   UNL     1       2.267   1.656  -0.715  0.00  0.00    +0.023 A 
ATOM     16  C   UNL     1       1.159   2.103  -0.007  0.00  0.00    +0.033 A 
ATOM     17  C   UNL     1       1.217   3.309   0.679  0.00  0.00    +0.023 A 
ATOM     18  C   UNL     1       2.380   4.054   0.664  0.00  0.00    +0.005 A 
ENDBRANCH   8  16
ENDBRANCH   1   9
BRANCH   1  19
ATOM     19  N   UNL     1      -0.868  -2.250   0.103  0.00  0.00    +0.389 N 
ATOM     20  H   UNL     1      -0.018  -2.411  -0.575  0.00  0.00    -0.084 HD
ATOM     21  H   UNL     1      -0.597  -2.582   1.116  0.00  0.00    -0.084 HD
BRANCH  19  22
ATOM     22  C   UNL     1      -2.005  -3.052  -0.367  0.00  0.00    -0.080 C 
BRANCH  22  23
ATOM     23  C   UNL     1      -1.614  -4.531  -0.382  0.00  0.00    +0.000 C 
BRANCH  23  24
ATOM     24  C   UNL     1      -2.798  -5.367  -0.873  0.00  0.00    +0.116 C 
BRANCH  24  25
ATOM     25  N   UNL     1      -2.424  -6.783  -0.887  0.00  0.00    -0.224 N 
ATOM     26  C   UNL     1      -2.590  -7.623   0.157  0.00  0.00    +0.246 C 
ATOM     27  O   UNL     1      -3.059  -7.362   1.244  0.00  0.00    -0.273 OA
ATOM     28  C   UNL     1      -2.068  -8.955  -0.317  0.00  0.00    +0.113 C 
ATOM     29  C   UNL     1      -3.167 -10.025  -0.273  0.00  0.00    +0.035 C 
ATOM     30  C   UNL     1      -2.411 -11.323   0.116  0.00  0.00    +0.003 C 
ATOM     31  C   UNL     1      -1.352 -10.815   1.127  0.00  0.00    +0.003 C 
ATOM     32  C   UNL     1      -0.914  -9.445   0.562  0.00  0.00    +0.035 C 
ATOM     33  N   UNL     1      -1.625  -8.708  -1.691  0.00  0.00    -0.285 N 
ATOM     34  C   UNL     1      -1.879  -7.407  -1.940  0.00  0.00    +0.309 C 
ATOM     35  O   UNL     1      -1.637  -6.862  -2.998  0.00  0.00    -0.252 OA
ATOM     36  H   UNL     1      -1.189  -9.525  -2.284  0.00  0.00    +0.151 HD
ENDBRANCH  24  25
ENDBRANCH  23  24
ENDBRANCH  22  23
ENDBRANCH  19  22
ENDBRANCH   1  19
TORSDOF 8
