REMARK  Name = ZINC09008384
REMARK  6 active torsions:
REMARK  status: ('A' for Active; 'I' for Inactive)
REMARK    1  A    between atoms: C_1  and  N_57
REMARK    2  A    between atoms: C_9  and  O_33
REMARK    3  A    between atoms: C_11  and  C_14
REMARK    4  A    between atoms: C_17  and  O_20
REMARK    5  A    between atoms: O_20  and  C_21
REMARK    6  A    between atoms: C_21  and  C_23
REMARK                            x       y       z     vdW  Elec       q    Type
REMARK                         _______ _______ _______ _____ _____    ______ ____
ROOT
ATOM      1  C   UNL     1      -4.027  -5.182  -0.099  0.00  0.00    -0.005 A 
ATOM      2  C   UNL     1      -5.191  -4.436  -0.116  0.00  0.00    +0.011 A 
ATOM      3  C   UNL     1      -5.129  -3.056  -0.082  0.00  0.00    +0.047 A 
ATOM      4  C   UNL     1      -3.898  -2.419  -0.030  0.00  0.00    +0.132 A 
ATOM      5  C   UNL     1      -2.731  -3.170  -0.018  0.00  0.00    +0.047 A 
ATOM      6  C   UNL     1      -2.798  -4.549  -0.046  0.00  0.00    +0.011 A 
ENDROOT
BRANCH   1  17
ATOM      7  C   UNL     1      -3.597  -7.725   8.226  0.00  0.00    -0.096 C 
ATOM      8  C   UNL     1      -4.937  -8.277   6.285  0.00  0.00    -0.074 C 
ATOM      9  C   UNL     1      -5.406  -7.734   4.933  0.00  0.00    +0.018 C 
ATOM     10  C   UNL     1      -4.189  -7.596   4.026  0.00  0.00    -0.027 A 
ATOM     11  C   UNL     1      -2.944  -7.588   4.562  0.00  0.00    -0.021 A 
ATOM     12  S   UNL     1      -1.853  -7.417   3.176  0.00  0.00    -0.080 S 
ATOM     13  C   UNL     1      -3.019  -7.358   1.925  0.00  0.00    +0.080 A 
ATOM     14  C   UNL     1      -4.252  -7.468   2.583  0.00  0.00    +0.067 A 
ATOM     15  C   UNL     1      -5.476  -7.442   1.741  0.00  0.00    +0.220 C 
ATOM     16  N   UNL     1      -5.343  -7.120   0.484  0.00  0.00    -0.223 NA
ATOM     17  C   UNL     1      -4.097  -6.687  -0.136  0.00  0.00    +0.224 C 
ATOM     18  N   UNL     1      -2.922  -7.241   0.561  0.00  0.00    -0.313 N 
ATOM     19  C   UNL     1      -2.600  -7.700   6.013  0.00  0.00    -0.036 C 
ATOM     20  H   UNL     1      -2.122  -7.508   0.082  0.00  0.00    +0.149 HD
ATOM     21  N   UNL     1      -3.833  -7.437   6.794  0.00  0.00    +0.381 N 
ATOM     22  H   UNL     1      -4.091  -6.449   6.691  0.00  0.00    -0.082 HD
BRANCH  15  23
ATOM     23  O   UNL     1      -6.688  -7.742   2.261  0.00  0.00    -0.492 OA
ATOM     24  H   UNL     1      -7.413  -7.693   1.623  0.00  0.00    +0.294 HD
ENDBRANCH  15  23
ENDBRANCH   1  17
BRANCH   4  25
ATOM     25  O   UNL     1      -3.834  -1.062   0.004  0.00  0.00    -0.422 OA
BRANCH  25  26
ATOM     26  C   UNL     1      -4.145  -0.464   1.171  0.00  0.00    +0.345 C 
ATOM     27  O   UNL     1      -4.373  -1.137   2.157  0.00  0.00    -0.245 OA
BRANCH  26  28
ATOM     28  C   UNL     1      -4.209   1.006   1.252  0.00  0.00    +0.067 A 
ATOM     29  C   UNL     1      -3.837   1.792   0.169  0.00  0.00    +0.015 A 
ATOM     30  C   UNL     1      -3.898   3.177   0.247  0.00  0.00    +0.001 A 
ATOM     31  C   UNL     1      -4.319   3.814   1.374  0.00  0.00    +0.008 A 
ATOM     32  C   UNL     1      -4.712   3.082   2.507  0.00  0.00    -0.017 A 
ATOM     33  C   UNL     1      -4.661   1.667   2.474  0.00  0.00    -0.004 A 
ATOM     34  C   UNL     1      -5.057   0.934   3.599  0.00  0.00    +0.009 A 
ATOM     35  C   UNL     1      -5.477   1.591   4.717  0.00  0.00    +0.001 A 
ATOM     36  C   UNL     1      -5.523   2.982   4.755  0.00  0.00    +0.001 A 
ATOM     37  C   UNL     1      -5.151   3.726   3.677  0.00  0.00    +0.008 A 
ENDBRANCH  26  28
ENDBRANCH  25  26
ENDBRANCH   4  25
TORSDOF 5
