REMARK  Name = ZINC63297494
REMARK  7 active torsions:
REMARK  status: ('A' for Active; 'I' for Inactive)
REMARK    1  A    between atoms: C_6  and  C_10
REMARK    2  A    between atoms: C_10  and  S_11
REMARK    3  A    between atoms: S_11  and  C_12
REMARK    4  A    between atoms: C_16  and  C_25
REMARK    5  A    between atoms: N_18  and  C_19
REMARK    6  A    between atoms: C_19  and  C_20
REMARK    7  A    between atoms: C_25  and  C_26
REMARK                            x       y       z     vdW  Elec       q    Type
REMARK                         _______ _______ _______ _____ _____    ______ ____
ROOT
ATOM      1  C   UNL     1       3.546  -2.895  -4.159  0.00  0.00    +0.200 C 
ATOM      2  N   UNL     1       5.024  -2.959  -4.098  0.00  0.00    -0.229 NA
ATOM      3  N   UNL     1       5.309  -4.231  -3.417  0.00  0.00    -0.237 NA
ATOM      4  C   UNL     1       4.266  -5.142  -3.955  0.00  0.00    +0.146 C 
ATOM      5  N   UNL     1       3.060  -4.287  -4.069  0.00  0.00    -0.254 NA
ATOM      6  H   UNL     1       5.399  -2.178  -3.580  0.00  0.00    +0.143 HD
ATOM      7  H   UNL     1       5.223  -4.132  -2.416  0.00  0.00    +0.142 HD
ENDROOT
BRANCH   1   8
ATOM      8  S   UNL     1       2.908  -1.923  -2.766  0.00  0.00    -0.121 S 
BRANCH   8   9
ATOM      9  C   UNL     1       3.542  -2.787  -1.302  0.00  0.00    +0.118 C 
BRANCH   9  15
ATOM     10  C   UNL     1      -0.016   1.344   0.009  0.00  0.00    +0.002 A 
ATOM     11  C   UNL     1       1.158   2.118   0.002  0.00  0.00    +0.002 A 
ATOM     12  C   UNL     1       2.389   1.570  -0.013  0.00  0.00    +0.027 A 
ATOM     13  C   UNL     1       2.533   0.108  -0.022  0.00  0.00    +0.060 A 
ATOM     14  N   UNL     1       3.569  -0.680  -0.036  0.00  0.00    -0.363 N 
ATOM     15  C   UNL     1       3.071  -2.062  -0.039  0.00  0.00    +0.184 C 
ATOM     16  N   UNL     1       1.606  -1.974  -0.024  0.00  0.00    -0.363 N 
ATOM     17  C   UNL     1       1.290  -0.712  -0.014  0.00  0.00    +0.060 A 
ATOM     18  C   UNL     1       0.002  -0.004   0.002  0.00  0.00    +0.027 A 
ATOM     19  H   UNL     1       4.499  -0.405  -0.045  0.00  0.00    +0.162 HD
ATOM     20  H   UNL     1       0.987  -2.721  -0.022  0.00  0.00    +0.162 HD
ENDBRANCH   9  15
ENDBRANCH   8   9
ENDBRANCH   1   8
BRANCH   5  21
ATOM     21  C   UNL     1       2.269  -4.646  -5.254  0.00  0.00    +0.162 C 
BRANCH  21  22
ATOM     22  C   UNL     1       0.963  -3.896  -5.232  0.00  0.00    +0.119 A 
ATOM     23  C   UNL     1       0.740  -2.688  -5.781  0.00  0.00    +0.046 A 
ATOM     24  C   UNL     1      -0.613  -2.365  -5.527  0.00  0.00    +0.041 A 
ATOM     25  C   UNL     1      -1.136  -3.395  -4.837  0.00  0.00    +0.195 A 
ATOM     26  O   UNL     1      -0.179  -4.322  -4.667  0.00  0.00    -0.467 OA
ENDBRANCH  21  22
ENDBRANCH   5  21
BRANCH   4  27
ATOM     27  C   UNL     1       4.015  -6.300  -2.987  0.00  0.00    +0.078 C 
BRANCH  27  28
ATOM     28  C   UNL     1       5.282  -7.099  -2.821  0.00  0.00    -0.007 A 
ATOM     29  C   UNL     1       6.279  -6.941  -1.915  0.00  0.00    +0.011 A 
ATOM     30  C   UNL     1       7.359  -7.802  -1.950  0.00  0.00    +0.008 A 
ATOM     31  C   UNL     1       7.390  -8.780  -2.889  0.00  0.00    +0.045 A 
ATOM     32  S   UNL     1       5.857  -8.504  -3.760  0.00  0.00    -0.102 S 
ENDBRANCH  27  28
ENDBRANCH   4  27
TORSDOF 7
