REMARK  Name = ZINC63795702
REMARK  7 active torsions:
REMARK  status: ('A' for Active; 'I' for Inactive)
REMARK    1  A    between atoms: C_1  and  C_2
REMARK    2  A    between atoms: C_8  and  C_10
REMARK    3  A    between atoms: C_10  and  C_11
REMARK    4  A    between atoms: C_13  and  C_17
REMARK    5  A    between atoms: N_19  and  C_20
REMARK    6  A    between atoms: C_20  and  C_21
REMARK    7  A    between atoms: C_21  and  C_22
REMARK                            x       y       z     vdW  Elec       q    Type
REMARK                         _______ _______ _______ _____ _____    ______ ____
ROOT
ATOM      1  C   UNL     1      -5.095  -3.977   0.004  0.00  0.00    +0.112 C 
ATOM      2  N   UNL     1      -5.783  -3.781   1.074  0.00  0.00    -0.339 N 
ATOM      3  C   UNL     1      -7.147  -3.393   0.694  0.00  0.00    +0.329 C 
ATOM      4  O   UNL     1      -7.153  -3.392  -0.742  0.00  0.00    -0.239 OA
ATOM      5  N   UNL     1      -5.837  -3.761  -1.121  0.00  0.00    -0.251 N 
ATOM      6  H   UNL     1      -5.516  -3.848  -2.033  0.00  0.00    +0.195 HD
ATOM      7  H   UNL     1      -5.455  -3.875   1.982  0.00  0.00    +0.164 HD
ENDROOT
BRANCH   3   8
ATOM      8  C   UNL     1      -7.465  -2.017   1.222  0.00  0.00    +0.265 C 
ATOM      9  O   UNL     1      -7.575  -1.084   0.455  0.00  0.00    -0.271 OA
ATOM     10  N   UNL     1      -7.627  -1.824   2.546  0.00  0.00    -0.311 N 
ATOM     11  H   UNL     1      -7.539  -2.570   3.159  0.00  0.00    +0.149 HD
BRANCH  10  12
ATOM     12  C   UNL     1      -7.936  -0.487   3.058  0.00  0.00    +0.108 C 
BRANCH  12  13
ATOM     13  C   UNL     1      -8.069  -0.542   4.581  0.00  0.00    +0.052 C 
BRANCH  13  14
ATOM     14  C   UNL     1      -8.386   0.833   5.108  0.00  0.00    -0.040 C 
ATOM     15  C   UNL     1      -9.611   1.334   5.387  0.00  0.00    +0.000 A 
ATOM     16  C   UNL     1     -10.963   0.770   5.285  0.00  0.00    +0.030 A 
ATOM     17  C   UNL     1     -12.021   1.533   5.646  0.00  0.00    +0.042 A 
ATOM     18  C   UNL     1     -11.858   2.846   6.112  0.00  0.00    +0.022 A 
ATOM     19  C   UNL     1     -10.649   3.432   6.233  0.00  0.00    +0.027 A 
ATOM     20  C   UNL     1      -9.467   2.722   5.883  0.00  0.00    +0.043 A 
ATOM     21  N   UNL     1      -8.202   3.065   5.909  0.00  0.00    -0.380 N 
ATOM     22  C   UNL     1      -7.400   1.931   5.439  0.00  0.00    +0.144 C 
ATOM     23 CL   UNL     1     -13.621   0.870   5.527  0.00  0.00    -0.084 Cl
ATOM     24  H   UNL     1      -7.855   3.924   6.196  0.00  0.00    +0.160 HD
ENDBRANCH  13  14
ENDBRANCH  12  13
ENDBRANCH  10  12
ENDBRANCH   3   8
BRANCH   1  25
ATOM     25  C   UNL     1      -3.646  -4.389  -0.006  0.00  0.00    +0.169 C 
BRANCH  25  33
ATOM     26  C   UNL     1      -0.018   1.503   0.010  0.00  0.00    +0.089 C 
ATOM     27  C   UNL     1       0.002  -0.004   0.002  0.00  0.00    +0.136 A 
ATOM     28  C   UNL     1      -1.076  -0.808   0.003  0.00  0.00    +0.091 A 
ATOM     29  C   UNL     1      -0.625  -2.147  -0.007  0.00  0.00    +0.168 A 
ATOM     30  N   UNL     1       0.683  -2.130  -0.013  0.00  0.00    -0.063 NA
ATOM     31  O   UNL     1       1.100  -0.776  -0.013  0.00  0.00    -0.358 OA
ATOM     32  N   UNL     1      -1.432  -3.285  -0.010  0.00  0.00    -0.267 N 
ATOM     33  C   UNL     1      -2.774  -3.159  -0.003  0.00  0.00    +0.226 C 
ATOM     34  O   UNL     1      -3.280  -2.057   0.006  0.00  0.00    -0.275 OA
ATOM     35  H   UNL     1      -1.027  -4.166  -0.017  0.00  0.00    +0.156 HD
ENDBRANCH  25  33
ENDBRANCH   1  25
TORSDOF 6
