REMARK  Name = ZINC35555232
REMARK  9 active torsions:
REMARK  status: ('A' for Active; 'I' for Inactive)
REMARK    1  A    between atoms: C_1  and  O_2
REMARK    2  A    between atoms: O_2  and  C_3
REMARK    3  A    between atoms: C_6  and  C_11
REMARK    4  A    between atoms: C_8  and  O_9
REMARK    5  A    between atoms: O_9  and  C_10
REMARK    6  A    between atoms: C_11  and  C_12
REMARK    7  A    between atoms: C_12  and  N_13
REMARK    8  A    between atoms: C_14  and  C_16
REMARK    9  A    between atoms: C_21  and  N_38
REMARK                            x       y       z     vdW  Elec       q    Type
REMARK                         _______ _______ _______ _____ _____    ______ ____
ROOT
ATOM      1  C   UNL     1       6.595  -4.361  -6.324  0.00  0.00    +0.101 C 
ATOM      2  C   UNL     1       6.441  -3.462  -7.550  0.00  0.00    +0.051 C 
ATOM      3  C   UNL     1       7.200  -4.076  -8.698  0.00  0.00    -0.023 A 
ATOM      4  C   UNL     1       6.775  -3.852  -9.995  0.00  0.00    +0.038 A 
ATOM      5  C   UNL     1       7.458  -4.420 -11.054  0.00  0.00    +0.127 A 
ATOM      6  C   UNL     1       8.566  -5.214 -10.819  0.00  0.00    +0.034 A 
ATOM      7  C   UNL     1       8.996  -5.437  -9.527  0.00  0.00    +0.025 A 
ATOM      8  C   UNL     1       8.313  -4.861  -8.458  0.00  0.00    +0.033 A 
ATOM      9  N   UNL     1       8.792  -5.085  -7.156  0.00  0.00    -0.323 N 
ATOM     10  C   UNL     1       8.080  -4.558  -6.005  0.00  0.00    +0.103 C 
ATOM     11  C   UNL     1       8.191  -5.440  -4.772  0.00  0.00    +0.129 C 
ATOM     12  N   UNL     1       9.458  -6.139  -4.687  0.00  0.00    -0.313 N 
ATOM     13  C   UNL     1      10.101  -6.736  -5.845  0.00  0.00    +0.125 C 
ATOM     14  C   UNL     1      10.054  -5.814  -7.042  0.00  0.00    +0.124 C 
ATOM     15  C   UNL     1      10.082  -6.242  -3.449  0.00  0.00    +0.099 A 
ATOM     16  C   UNL     1      11.233  -7.012  -3.319  0.00  0.00    +0.042 A 
ATOM     17  C   UNL     1      11.844  -7.105  -2.082  0.00  0.00    +0.005 A 
ATOM     18  C   UNL     1      11.281  -6.423  -1.012  0.00  0.00    +0.018 A 
ATOM     19  C   UNL     1      10.137  -5.677  -1.212  0.00  0.00    +0.084 A 
ATOM     20  N   UNL     1       9.578  -5.601  -2.405  0.00  0.00    -0.350 N 
ATOM     21  H   UNL     1       8.777  -5.067  -2.519  0.00  0.00    +0.166 HD
ENDROOT
BRANCH   1  23
ATOM     22  N   UNL     1       4.590  -3.451  -5.195  0.00  0.00    -0.315 N 
ATOM     23  C   UNL     1       5.910  -3.719  -5.145  0.00  0.00    +0.218 C 
ATOM     24  O   UNL     1       6.547  -3.444  -4.150  0.00  0.00    -0.275 OA
ATOM     25  H   UNL     1       4.081  -3.671  -5.991  0.00  0.00    +0.149 HD
BRANCH  22  26
ATOM     26  C   UNL     1       3.925  -2.828  -4.049  0.00  0.00    +0.109 C 
BRANCH  26  27
ATOM     27  C   UNL     1       2.440  -2.634  -4.364  0.00  0.00    +0.054 C 
BRANCH  27  31
ATOM     28  C   UNL     1       0.499  -0.808  -1.019  0.00  0.00    +0.161 A 
ATOM     29  C   UNL     1       1.053  -0.022  -2.017  0.00  0.00    +0.049 A 
ATOM     30  C   UNL     1       1.680  -0.615  -3.096  0.00  0.00    +0.007 A 
ATOM     31  C   UNL     1       1.756  -1.993  -3.184  0.00  0.00    -0.042 A 
ATOM     32  C   UNL     1       1.205  -2.783  -2.193  0.00  0.00    +0.053 A 
ATOM     33  C   UNL     1       0.581  -2.195  -1.105  0.00  0.00    +0.162 A 
BRANCH  28  35
ATOM     34  C   UNL     1      -0.164   1.202   0.065  0.00  0.00    +0.277 C 
ATOM     35  O   UNL     1      -0.118  -0.226   0.044  0.00  0.00    -0.491 OA
ENDBRANCH  28  35
BRANCH  33  36
ATOM     36  O   UNL     1       0.044  -2.971  -0.125  0.00  0.00    -0.491 OA
ATOM     37  C   UNL     1       0.165  -4.386  -0.280  0.00  0.00    +0.277 C 
ENDBRANCH  33  36
ENDBRANCH  27  31
ENDBRANCH  26  27
ENDBRANCH  22  26
ENDBRANCH   1  23
BRANCH   5  38
ATOM     38  N   UNL     1       7.002  -4.179 -12.441  0.00  0.00    +0.056 N 
ATOM     39  O   UNL     1       6.034  -3.486 -12.648  0.00  0.00    -0.126 OA
ATOM     40  O   UNL     1       7.599  -4.676 -13.368  0.00  0.00    -0.126 OA
ENDBRANCH   5  38
TORSDOF 7
