REMARK  Name = ZINC41393844
REMARK  3 active torsions:
REMARK  status: ('A' for Active; 'I' for Inactive)
REMARK    1  A    between atoms: C_1  and  C_2
REMARK    2  A    between atoms: C_7  and  C_10
REMARK    3  A    between atoms: N_24  and  C_25
REMARK                            x       y       z     vdW  Elec       q    Type
REMARK                         _______ _______ _______ _____ _____    ______ ____
ROOT
ATOM      1  C   UNL     1      -1.830  -1.734   4.194  0.00  0.00    +0.039 C 
ATOM      2  C   UNL     1      -2.130  -1.392   2.733  0.00  0.00    +0.133 C 
ATOM      3  C   UNL     1      -1.539  -2.473   1.822  0.00  0.00    +0.139 C 
ATOM      4  N   UNL     1      -1.675  -2.029   0.426  0.00  0.00    -0.296 N 
ATOM      5  C   UNL     1      -1.203  -0.679   0.080  0.00  0.00    +0.139 C 
ATOM      6  C   UNL     1      -1.811   0.315   1.077  0.00  0.00    +0.133 C 
ATOM      7  O   UNL     1      -1.544  -0.129   2.409  0.00  0.00    -0.371 OA
ATOM      8  C   UNL     1      -3.323   0.397   0.859  0.00  0.00    +0.039 C 
ATOM      9  C   UNL     1      -2.226  -2.851  -0.526  0.00  0.00    +0.202 A 
ATOM     10  N   UNL     1      -3.021  -2.340  -1.443  0.00  0.00    -0.208 NA
ATOM     11  C   UNL     1      -3.567  -3.111  -2.377  0.00  0.00    +0.117 A 
ATOM     12  C   UNL     1      -3.329  -4.494  -2.435  0.00  0.00    +0.076 A 
ATOM     13  C   UNL     1      -4.001  -5.213  -3.519  0.00  0.00    -0.023 A 
ATOM     14  C   UNL     1      -4.775  -4.485  -4.349  0.00  0.00    -0.004 A 
ATOM     15  S   UNL     1      -4.658  -2.822  -3.746  0.00  0.00    -0.073 S 
ATOM     16  C   UNL     1      -5.561  -4.979  -5.525  0.00  0.00    +0.043 C 
ATOM     17  C   UNL     1      -5.068  -6.389  -5.879  0.00  0.00    +0.005 C 
ATOM     18  C   UNL     1      -4.994  -7.221  -4.595  0.00  0.00    +0.005 C 
ATOM     19  C   UNL     1      -3.846  -6.718  -3.718  0.00  0.00    +0.037 C 
ATOM     20  C   UNL     1      -2.462  -5.021  -1.426  0.00  0.00    +0.264 A 
ATOM     21  O   UNL     1      -2.197  -6.211  -1.397  0.00  0.00    -0.267 OA
ATOM     22  N   UNL     1      -1.937  -4.183  -0.513  0.00  0.00    -0.283 N 
ATOM     23  C   UNL     1      -1.044  -4.715   0.520  0.00  0.00    +0.155 C 
ENDROOT
TORSDOF 0
