REMARK  Name = ZINC45748355
REMARK  9 active torsions:
REMARK  status: ('A' for Active; 'I' for Inactive)
REMARK    1  A    between atoms: C_1  and  C_2
REMARK    2  A    between atoms: C_4  and  C_14
REMARK    3  A    between atoms: N_16  and  C_17
REMARK    4  A    between atoms: C_19  and  S_24
REMARK    5  A    between atoms: C_22  and  O_23
REMARK    6  A    between atoms: S_24  and  N_27
REMARK    7  A    between atoms: N_27  and  C_28
REMARK    8  A    between atoms: C_33  and  O_34
REMARK    9  A    between atoms: O_34  and  C_35
REMARK                            x       y       z     vdW  Elec       q    Type
REMARK                         _______ _______ _______ _____ _____    ______ ____
ROOT
ATOM      1  C   UNL     1      -2.720   2.155  -3.108  0.00  0.00    +0.077 A 
ATOM      2  C   UNL     1      -3.227   1.084  -3.831  0.00  0.00    +0.055 A 
ATOM      3  C   UNL     1      -3.946   1.311  -4.989  0.00  0.00    +0.110 A 
ATOM      4  C   UNL     1      -4.162   2.603  -5.431  0.00  0.00    +0.032 A 
ATOM      5  C   UNL     1      -3.660   3.675  -4.716  0.00  0.00    +0.049 A 
ATOM      6  C   UNL     1      -2.943   3.456  -3.551  0.00  0.00    +0.138 A 
ENDROOT
BRANCH   1   9
ATOM      7  C   UNL     1      -2.178   0.790  -1.234  0.00  0.00    +0.262 C 
ATOM      8  O   UNL     1      -2.949  -0.053  -1.642  0.00  0.00    -0.271 OA
ATOM      9  N   UNL     1      -1.992   1.927  -1.933  0.00  0.00    -0.279 N 
ATOM     10  H   UNL     1      -1.354   2.588  -1.623  0.00  0.00    +0.155 HD
BRANCH   7  13
ATOM     11  C   UNL     1      -3.470  -0.438   1.104  0.00  0.00    +0.056 C 
ATOM     12  C   UNL     1      -2.399   0.647   1.239  0.00  0.00    +0.220 C 
ATOM     13  C   UNL     1      -1.428   0.565   0.053  0.00  0.00    +0.299 C 
ATOM     14  O   UNL     1      -0.433   1.582   0.217  0.00  0.00    -0.472 OA
ATOM     15  C   UNL     1       0.125   1.697   1.453  0.00  0.00    +0.163 A 
ATOM     16  C   UNL     1       1.320   2.388   1.599  0.00  0.00    +0.049 A 
ATOM     17  C   UNL     1       1.897   2.516   2.847  0.00  0.00    +0.004 A 
ATOM     18  C   UNL     1       1.287   1.957   3.955  0.00  0.00    +0.004 A 
ATOM     19  C   UNL     1       0.098   1.267   3.817  0.00  0.00    +0.049 A 
ATOM     20  C   UNL     1      -0.487   1.133   2.566  0.00  0.00    +0.163 A 
ATOM     21  O   UNL     1      -1.654   0.444   2.445  0.00  0.00    -0.481 OA
ENDBRANCH   7  13
ENDBRANCH   1   9
BRANCH   3  22
ATOM     22  S   UNL     1      -4.588  -0.050  -5.906  0.00  0.00    +0.073 S 
ATOM     23  O   UNL     1      -4.756   0.403  -7.242  0.00  0.00    -0.150 OA
ATOM     24  O   UNL     1      -3.784  -1.175  -5.579  0.00  0.00    -0.150 OA
BRANCH  22  25
ATOM     25  N   UNL     1      -6.104  -0.365  -5.318  0.00  0.00    -0.213 N 
ATOM     26  H   UNL     1      -6.292  -1.216  -4.893  0.00  0.00    +0.174 HD
BRANCH  25  27
ATOM     27  C   UNL     1      -7.113   0.598  -5.434  0.00  0.00    +0.090 A 
ATOM     28  C   UNL     1      -7.170   1.415  -6.554  0.00  0.00    +0.028 A 
ATOM     29  C   UNL     1      -8.167   2.364  -6.667  0.00  0.00    +0.002 A 
ATOM     30  C   UNL     1      -9.110   2.503  -5.666  0.00  0.00    +0.004 A 
ATOM     31  C   UNL     1      -9.060   1.693  -4.546  0.00  0.00    +0.047 A 
ATOM     32  C   UNL     1      -8.067   0.735  -4.428  0.00  0.00    +0.142 A 
BRANCH  32  33
ATOM     33  O   UNL     1      -8.019  -0.066  -3.330  0.00  0.00    -0.493 OA
ATOM     34  C   UNL     1      -9.030   0.132  -2.339  0.00  0.00    +0.277 C 
ENDBRANCH  32  33
ENDBRANCH  25  27
ENDBRANCH  22  25
ENDBRANCH   3  22
BRANCH   6  35
ATOM     35  O   UNL     1      -2.454   4.510  -2.844  0.00  0.00    -0.505 OA
ATOM     36  H   UNL     1      -1.565   4.783  -3.109  0.00  0.00    +0.292 HD
ENDBRANCH   6  35
TORSDOF 7
