REMARK  Name = ZINC22063397
REMARK  8 active torsions:
REMARK  status: ('A' for Active; 'I' for Inactive)
REMARK    1  A    between atoms: C_1  and  O_2
REMARK    2  A    between atoms: O_2  and  C_3
REMARK    3  A    between atoms: C_3  and  C_5
REMARK    4  A    between atoms: C_6  and  C_28
REMARK    5  A    between atoms: C_9  and  N_10
REMARK    6  A    between atoms: C_11  and  C_13
REMARK    7  A    between atoms: C_13  and  N_14
REMARK    8  A    between atoms: C_23  and  C_25
REMARK                            x       y       z     vdW  Elec       q    Type
REMARK                         _______ _______ _______ _____ _____    ______ ____
ROOT
ATOM      1  N   UNL     1       2.769   1.468   4.200  0.00  0.00    -0.281 N 
ATOM      2  C   UNL     1       2.550   2.743   4.578  0.00  0.00    +0.201 C 
ATOM      3  O   UNL     1       2.807   3.653   3.818  0.00  0.00    -0.278 OA
ATOM      4  H   UNL     1       2.537   0.643   4.889  0.00  0.00    +0.155 HD
ENDROOT
BRANCH   1   9
ATOM      5  C   UNL     1       3.578  -0.039   2.382  0.00  0.00    +0.095 A 
ATOM      6  C   UNL     1       4.112  -0.034   1.033  0.00  0.00    +0.006 A 
ATOM      7  C   UNL     1       4.281   1.180   0.449  0.00  0.00    +0.056 A 
ATOM      8  S   UNL     1       3.729   2.318   1.701  0.00  0.00    -0.080 S 
ATOM      9  C   UNL     1       3.288   1.197   2.944  0.00  0.00    +0.086 A 
BRANCH   6  10
ATOM     10  C   UNL     1       4.454  -1.291   0.327  0.00  0.00    +0.002 A 
ATOM     11  C   UNL     1       5.778  -1.566  -0.012  0.00  0.00    +0.010 A 
ATOM     12  C   UNL     1       6.091  -2.738  -0.669  0.00  0.00    +0.001 A 
ATOM     13  C   UNL     1       5.093  -3.642  -0.991  0.00  0.00    +0.001 A 
ATOM     14  C   UNL     1       3.778  -3.376  -0.657  0.00  0.00    +0.020 A 
ATOM     15  C   UNL     1       3.453  -2.208   0.004  0.00  0.00    +0.049 A 
ATOM     16 CL   UNL     1       1.802  -1.879   0.428  0.00  0.00    -0.083 Cl
ENDBRANCH   6  10
BRANCH   5  17
ATOM     17  C   UNL     1       3.352  -1.286   3.113  0.00  0.00    +0.342 C 
ATOM     18  O   UNL     1       4.237  -1.755   3.804  0.00  0.00    -0.245 OA
BRANCH  17  20
ATOM     19  C   UNL     1       2.010  -3.148   3.773  0.00  0.00    +0.280 C 
ATOM     20  O   UNL     1       2.163  -1.916   3.021  0.00  0.00    -0.464 OA
ENDBRANCH  17  20
ENDBRANCH   5  17
ENDBRANCH   1   9
BRANCH   2  21
ATOM     21  C   UNL     1       1.987   3.038   5.944  0.00  0.00    +0.020 C 
BRANCH  21  22
ATOM     22  N   UNL     1       1.843   4.491   6.111  0.00  0.00    +0.396 N 
ATOM     23  C   UNL     1       3.149   5.131   6.293  0.00  0.00    -0.041 C 
ATOM     24  C   UNL     1       2.982   6.604   6.560  0.00  0.00    -0.061 A 
ATOM     25  C   UNL     1       4.081   7.434   6.395  0.00  0.00    +0.002 A 
ATOM     26  C   UNL     1       3.975   8.789   6.637  0.00  0.00    +0.000 A 
ATOM     27  C   UNL     1       2.767   9.323   7.045  0.00  0.00    +0.000 A 
ATOM     28  C   UNL     1       1.672   8.499   7.208  0.00  0.00    +0.004 A 
ATOM     29  C   UNL     1       1.777   7.138   6.964  0.00  0.00    -0.047 A 
ATOM     30  C   UNL     1       0.553   6.277   7.150  0.00  0.00    +0.029 C 
ATOM     31  C   UNL     1       0.959   4.806   7.245  0.00  0.00    +0.024 C 
ATOM     32  H   UNL     1       1.389   4.889   5.191  0.00  0.00    -0.080 HD
BRANCH  31  33
ATOM     33  C   UNL     1      -0.271   3.937   7.185  0.00  0.00    +0.197 C 
ATOM     34  O   UNL     1      -0.740   3.624   6.112  0.00  0.00    -0.278 OA
ATOM     35  N   UNL     1      -0.849   3.508   8.325  0.00  0.00    -0.331 N 
ATOM     36  H   UNL     1      -1.746   2.874   8.281  0.00  0.00    +0.145 HD
ATOM     37  H   UNL     1      -0.423   3.792   9.298  0.00  0.00    +0.145 HD
ENDBRANCH  31  33
ENDBRANCH  21  22
ENDBRANCH   2  21
TORSDOF 7
