REMARK  Name = ZINC26403367
REMARK  11 active torsions:
REMARK  status: ('A' for Active; 'I' for Inactive)
REMARK    1  A    between atoms: C_1  and  C_2
REMARK    2  A    between atoms: N_11  and  C_14
REMARK    3  A    between atoms: C_14  and  C_15
REMARK    4  A    between atoms: C_15  and  C_16
REMARK    5  A    between atoms: C_23  and  O_27
REMARK    6  A    between atoms: O_27  and  C_28
REMARK    7  A    between atoms: C_29  and  C_40
REMARK    8  A    between atoms: C_30  and  C_31
REMARK    9  A    between atoms: C_33  and  C_39
REMARK   10  A    between atoms: C_34  and  O_38
REMARK   11  A    between atoms: C_35  and  C_37
REMARK                            x       y       z     vdW  Elec       q    Type
REMARK                         _______ _______ _______ _____ _____    ______ ____
ROOT
ATOM      1  C   UNL     1       3.064   5.294   2.736  0.00  0.00    +0.194 C 
ATOM      2  C   UNL     1       2.986   4.078   1.801  0.00  0.00    +0.167 C 
ATOM      3  N   UNL     1       1.949   4.350   0.796  0.00  0.00    -0.333 N 
ATOM      4  C   UNL     1       1.653   5.680   0.517  0.00  0.00    +0.092 A 
ATOM      5  C   UNL     1       0.661   5.741  -0.453  0.00  0.00    +0.010 A 
ATOM      6  C   UNL     1       0.229   7.011  -0.855  0.00  0.00    +0.056 A 
ATOM      7  C   UNL     1       0.797   8.134  -0.279  0.00  0.00    +0.124 A 
ATOM      8  C   UNL     1       1.795   8.043   0.697  0.00  0.00    +0.093 A 
ATOM      9  C   UNL     1       2.232   6.808   1.102  0.00  0.00    +0.148 A 
ATOM     10  O   UNL     1       3.187   6.534   2.030  0.00  0.00    -0.485 OA
ATOM     11  C   UNL     1       0.360   4.348  -0.771  0.00  0.00    -0.017 A 
ATOM     12  C   UNL     1       1.168   3.565   0.010  0.00  0.00    +0.053 A 
ATOM     13  C   UNL     1      -0.654   3.860  -1.774  0.00  0.00    +0.046 C 
ENDROOT
BRANCH  12  14
ATOM     14  C   UNL     1       1.184   2.087   0.002  0.00  0.00    -0.001 A 
ATOM     15  C   UNL     1      -0.017   1.374   0.010  0.00  0.00    +0.017 A 
ATOM     16  C   UNL     1       0.002  -0.004   0.002  0.00  0.00    -0.008 A 
ATOM     17  C   UNL     1       1.213  -0.684  -0.014  0.00  0.00    +0.123 A 
ATOM     18  C   UNL     1       2.409   0.021  -0.022  0.00  0.00    -0.008 A 
ATOM     19  C   UNL     1       2.399   1.400  -0.013  0.00  0.00    +0.017 A 
ATOM     20  C   UNL     1       3.720  -0.721  -0.039  0.00  0.00    +0.047 C 
ATOM     21  C   UNL     1      -1.293  -0.774   0.010  0.00  0.00    +0.047 C 
BRANCH  17  22
ATOM     22  O   UNL     1       1.227  -2.042  -0.021  0.00  0.00    -0.506 OA
ATOM     23  H   UNL     1       2.186  -2.582  -0.034  0.00  0.00    +0.292 HD
ENDBRANCH  17  22
ENDBRANCH  12  14
BRANCH   7  24
ATOM     24  O   UNL     1       0.372   9.363  -0.674  0.00  0.00    -0.495 OA
ATOM     25  C   UNL     1       0.987  10.493  -0.052  0.00  0.00    +0.277 C 
ENDBRANCH   7  24
BRANCH   1  26
ATOM     26  C   UNL     1       4.275   5.130   3.658  0.00  0.00    +0.061 C 
BRANCH  26  27
ATOM     27  C   UNL     1       4.251   6.220   4.730  0.00  0.00    +0.088 C 
BRANCH  27  38
ATOM     28  C   UNL     1       9.171   3.200  11.506  0.00  0.00    +0.044 C 
ATOM     29  C   UNL     1       9.027   4.401  10.607  0.00  0.00    -0.046 A 
ATOM     30  C   UNL     1       9.995   5.397  10.592  0.00  0.00    +0.021 A 
ATOM     31  C   UNL     1       9.834   6.484   9.757  0.00  0.00    +0.084 A 
ATOM     32  N   UNL     1       8.774   6.587   8.977  0.00  0.00    -0.350 N 
ATOM     33  C   UNL     1       7.829   5.659   8.963  0.00  0.00    +0.099 A 
ATOM     34  C   UNL     1       7.925   4.539   9.783  0.00  0.00    +0.045 A 
ATOM     35  N   UNL     1       6.730   5.809   8.127  0.00  0.00    -0.314 N 
ATOM     36  C   UNL     1       6.821   7.056   7.355  0.00  0.00    +0.122 C 
ATOM     37  C   UNL     1       5.557   7.221   6.507  0.00  0.00    +0.103 C 
ATOM     38  N   UNL     1       5.413   6.063   5.615  0.00  0.00    -0.299 NA
ATOM     39  C   UNL     1       5.322   4.815   6.387  0.00  0.00    +0.103 C 
ATOM     40  C   UNL     1       6.586   4.650   7.234  0.00  0.00    +0.122 C 
ATOM     41  H   UNL     1       8.659   7.460   8.318  0.00  0.00    +0.166 HD
ENDBRANCH  27  38
ENDBRANCH  26  27
ENDBRANCH   1  26
TORSDOF 6
