REMARK  Name = ZINC35828191
REMARK  7 active torsions:
REMARK  status: ('A' for Active; 'I' for Inactive)
REMARK    1  A    between atoms: C_1  and  C_2
REMARK    2  A    between atoms: C_12  and  C_22
REMARK    3  A    between atoms: C_15  and  C_18
REMARK    4  A    between atoms: C_18  and  C_19
REMARK    5  A    between atoms: N_24  and  C_25
REMARK    6  A    between atoms: C_30  and  O_31
REMARK    7  A    between atoms: O_31  and  C_32
REMARK                            x       y       z     vdW  Elec       q    Type
REMARK                         _______ _______ _______ _____ _____    ______ ____
ROOT
ATOM      1  C   UNL     1      -0.077   1.452  -0.080  0.00  0.00    +0.046 C 
ATOM      2  C   UNL     1      -0.055  -0.055  -0.066  0.00  0.00    -0.028 A 
ATOM      3  C   UNL     1      -0.068  -0.753  -1.256  0.00  0.00    +0.025 A 
ATOM      4  C   UNL     1      -0.048  -2.137  -1.254  0.00  0.00    +0.042 A 
ATOM      5  C   UNL     1      -0.013  -2.823  -0.052  0.00  0.00    +0.024 A 
ATOM      6  C   UNL     1       0.001  -2.129   1.137  0.00  0.00    -0.026 A 
ATOM      7  C   UNL     1      -0.015  -0.738   1.147  0.00  0.00    +0.039 A 
ATOM      8  N   UNL     1       0.009  -0.264   2.460  0.00  0.00    -0.286 N 
ATOM      9  C   UNL     1       0.047  -1.264   3.360  0.00  0.00    +0.211 C 
ATOM     10  O   UNL     1       0.074  -1.150   4.567  0.00  0.00    -0.277 OA
ATOM     11  C   UNL     1       0.037  -2.554   2.580  0.00  0.00    +0.049 C 
ATOM     12  C   UNL     1      -1.183  -3.413   2.933  0.00  0.00    +0.076 C 
ATOM     13  C   UNL     1      -0.593  -4.757   3.423  0.00  0.00    -0.003 C 
ATOM     14  C   UNL     1       0.822  -4.767   2.789  0.00  0.00    -0.061 C 
ATOM     15  N   UNL     1       1.244  -3.344   2.871  0.00  0.00    +0.394 N 
ATOM     16 CL   UNL     1      -0.066  -3.010  -2.755  0.00  0.00    -0.084 Cl
ATOM     17  H   UNL     1       0.000   0.677   2.697  0.00  0.00    +0.155 HD
ATOM     18  H   UNL     1       1.960  -3.152   2.185  0.00  0.00    -0.083 HD
ATOM     19  H   UNL     1       1.583  -3.133   3.798  0.00  0.00    -0.083 HD
ENDROOT
BRANCH  12  20
ATOM     20  C   UNL     1      -1.985  -2.759   4.028  0.00  0.00    +0.220 C 
ATOM     21  O   UNL     1      -1.801  -3.073   5.185  0.00  0.00    -0.275 OA
ATOM     22  N   UNL     1      -2.908  -1.825   3.722  0.00  0.00    -0.282 N 
ATOM     23  H   UNL     1      -3.096  -1.616   2.794  0.00  0.00    +0.155 HD
BRANCH  22  24
ATOM     24  C   UNL     1      -3.594  -1.156   4.745  0.00  0.00    +0.077 A 
ATOM     25  C   UNL     1      -3.749  -1.756   5.985  0.00  0.00    +0.047 A 
ATOM     26  C   UNL     1      -4.426  -1.094   6.993  0.00  0.00    +0.043 A 
ATOM     27  C   UNL     1      -4.950   0.167   6.766  0.00  0.00    +0.024 A 
ATOM     28  C   UNL     1      -4.798   0.770   5.532  0.00  0.00    +0.049 A 
ATOM     29  C   UNL     1      -4.116   0.115   4.519  0.00  0.00    +0.141 A 
ATOM     30 CL   UNL     1      -4.621  -1.847   8.546  0.00  0.00    -0.083 Cl
BRANCH  29  31
ATOM     31  O   UNL     1      -3.961   0.711   3.307  0.00  0.00    -0.493 OA
ATOM     32  C   UNL     1      -4.523   2.015   3.147  0.00  0.00    +0.277 C 
ENDBRANCH  29  31
ENDBRANCH  22  24
ENDBRANCH  12  20
BRANCH  14  33
ATOM     33  C   UNL     1       1.767  -5.661   3.594  0.00  0.00    +0.080 C 
BRANCH  33  34
ATOM     34  C   UNL     1       3.107  -5.721   2.907  0.00  0.00    +0.209 C 
ATOM     35  O   UNL     1       3.288  -5.109   1.876  0.00  0.00    -0.276 OA
ATOM     36  N   UNL     1       4.105  -6.455   3.439  0.00  0.00    -0.329 N 
ATOM     37  H   UNL     1       3.960  -6.945   4.264  0.00  0.00    +0.145 HD
ATOM     38  H   UNL     1       4.967  -6.494   2.998  0.00  0.00    +0.145 HD
ENDBRANCH  33  34
ENDBRANCH  14  33
TORSDOF 5
