REMARK  Name = ZINC21456035
REMARK  8 active torsions:
REMARK  status: ('A' for Active; 'I' for Inactive)
REMARK    1  A    between atoms: C_1  and  C_2
REMARK    2  A    between atoms: C_5  and  N_8
REMARK    3  A    between atoms: C_9  and  C_26
REMARK    4  A    between atoms: C_12  and  S_13
REMARK    5  A    between atoms: S_13  and  C_14
REMARK    6  A    between atoms: C_14  and  C_15
REMARK    7  A    between atoms: N_17  and  C_18
REMARK    8  A    between atoms: C_19  and  C_23
REMARK                            x       y       z     vdW  Elec       q    Type
REMARK                         _______ _______ _______ _____ _____    ______ ____
ROOT
ATOM      1  N   UNL     1       0.016   1.077   4.089  0.00  0.00    -0.270 N 
ATOM      2  C   UNL     1       1.053   0.360   4.646  0.00  0.00    +0.169 A 
ATOM      3  N   UNL     1       1.761  -0.127   3.653  0.00  0.00    -0.128 NA
ATOM      4  N   UNL     1       1.244   0.226   2.530  0.00  0.00    -0.122 NA
ATOM      5  C   UNL     1       0.174   0.961   2.735  0.00  0.00    +0.197 A 
ENDROOT
BRANCH   1  10
ATOM      6  C   UNL     1      -4.061   3.912   6.837  0.00  0.00    +0.044 C 
ATOM      7  C   UNL     1      -2.979   3.159   6.108  0.00  0.00    -0.050 A 
ATOM      8  C   UNL     1      -3.303   2.058   5.336  0.00  0.00    +0.005 A 
ATOM      9  C   UNL     1      -2.313   1.367   4.666  0.00  0.00    +0.026 A 
ATOM     10  C   UNL     1      -0.991   1.777   4.768  0.00  0.00    +0.051 A 
ATOM     11  C   UNL     1      -0.667   2.879   5.548  0.00  0.00    +0.026 A 
ATOM     12  C   UNL     1      -1.663   3.571   6.211  0.00  0.00    +0.005 A 
ENDBRANCH   1  10
BRANCH   2  13
ATOM     13  C   UNL     1       1.321   0.178   6.088  0.00  0.00    +0.020 A 
ATOM     14  C   UNL     1       0.335   0.484   7.028  0.00  0.00    +0.013 A 
ATOM     15  C   UNL     1       0.589   0.307   8.372  0.00  0.00    +0.021 A 
ATOM     16  C   UNL     1       1.822  -0.162   8.791  0.00  0.00    +0.041 A 
ATOM     17  C   UNL     1       2.806  -0.462   7.863  0.00  0.00    +0.021 A 
ATOM     18  C   UNL     1       2.562  -0.295   6.516  0.00  0.00    +0.013 A 
ATOM     19 CL   UNL     1       2.137  -0.375  10.485  0.00  0.00    -0.084 Cl
ENDBRANCH   2  13
BRANCH   5  20
ATOM     20  S   UNL     1      -0.860   1.669   1.497  0.00  0.00    -0.076 S 
BRANCH  20  21
ATOM     21  C   UNL     1      -0.013   1.086   0.008  0.00  0.00    +0.173 C 
BRANCH  21  22
ATOM     22  C   UNL     1      -0.742   1.585  -1.213  0.00  0.00    +0.228 C 
ATOM     23  O   UNL     1      -1.736   2.268  -1.088  0.00  0.00    -0.275 OA
ATOM     24  N   UNL     1      -0.288   1.272  -2.443  0.00  0.00    -0.279 N 
ATOM     25  H   UNL     1       0.614   0.653  -2.556  0.00  0.00    +0.155 HD
BRANCH  24  26
ATOM     26  C   UNL     1      -0.959   1.732  -3.566  0.00  0.00    +0.084 A 
ATOM     27  C   UNL     1      -0.646   1.522  -4.904  0.00  0.00    +0.065 A 
ATOM     28  C   UNL     1      -1.528   2.120  -5.878  0.00  0.00    +0.022 A 
ATOM     29  C   UNL     1      -2.567   2.835  -5.410  0.00  0.00    +0.048 A 
ATOM     30  S   UNL     1      -2.385   2.712  -3.642  0.00  0.00    -0.081 S 
BRANCH  27  31
ATOM     31  C   UNL     1       0.519   0.730  -5.307  0.00  0.00    +0.244 C 
ATOM     32  O   UNL     1       1.241   0.236  -4.460  0.00  0.00    -0.270 OA
ATOM     33  N   UNL     1       0.792   0.547  -6.614  0.00  0.00    -0.325 N 
ATOM     34  H   UNL     1       1.667  -0.047  -6.916  0.00  0.00    +0.145 HD
ATOM     35  H   UNL     1       0.140   0.994  -7.379  0.00  0.00    +0.145 HD
ENDBRANCH  27  31
ENDBRANCH  24  26
ENDBRANCH  21  22
ENDBRANCH  20  21
ENDBRANCH   5  20
TORSDOF 7
