REMARK  Name = ZINC34787037
REMARK  11 active torsions:
REMARK  status: ('A' for Active; 'I' for Inactive)
REMARK    1  A    between atoms: C_1  and  C_2
REMARK    2  A    between atoms: C_4  and  C_36
REMARK    3  A    between atoms: C_11  and  C_17
REMARK    4  A    between atoms: C_12  and  C_16
REMARK    5  A    between atoms: N_18  and  N_19
REMARK    6  A    between atoms: N_18  and  N_27
REMARK    7  A    between atoms: N_19  and  C_20
REMARK    8  A    between atoms: C_20  and  C_21
REMARK    9  A    between atoms: N_27  and  C_28
REMARK   10  A    between atoms: C_33  and  O_34
REMARK   11  A    between atoms: O_34  and  C_35
REMARK                            x       y       z     vdW  Elec       q    Type
REMARK                         _______ _______ _______ _____ _____    ______ ____
ROOT
ATOM      1  C   UNL     1      -3.624  -7.415  -0.453  0.00  0.00    +0.067 C 
ATOM      2  C   UNL     1      -2.470  -6.452  -0.339  0.00  0.00    +0.061 A 
ATOM      3  C   UNL     1      -1.716  -5.948  -1.405  0.00  0.00    +0.048 A 
ATOM      4  C   UNL     1      -0.778  -5.117  -0.896  0.00  0.00    +0.045 A 
ATOM      5  N   UNL     1      -0.935  -5.097   0.453  0.00  0.00    -0.202 N 
ATOM      6  N   UNL     1      -2.007  -5.940   0.772  0.00  0.00    -0.169 NA
ATOM      7  C   UNL     1      -0.168  -4.364   1.359  0.00  0.00    +0.254 A 
ATOM      8  N   UNL     1      -0.436  -4.449   2.655  0.00  0.00    -0.192 NA
ATOM      9  C   UNL     1       0.256  -3.779   3.561  0.00  0.00    +0.167 A 
ATOM     10  C   UNL     1       1.324  -2.938   3.140  0.00  0.00    +0.054 A 
ATOM     11  C   UNL     1       2.220  -2.111   3.929  0.00  0.00    -0.028 A 
ATOM     12  C   UNL     1       3.167  -1.393   3.307  0.00  0.00    -0.008 A 
ATOM     13  S   UNL     1       2.919  -1.781   1.584  0.00  0.00    -0.073 S 
ATOM     14  C   UNL     1       1.551  -2.897   1.747  0.00  0.00    +0.116 A 
ATOM     15  N   UNL     1       0.817  -3.602   0.909  0.00  0.00    -0.203 NA
ATOM     16  C   UNL     1       4.194  -0.475   3.918  0.00  0.00    +0.052 C 
ATOM     17  C   UNL     1       2.088  -2.060   5.429  0.00  0.00    +0.045 C 
ATOM     18  N   UNL     1      -0.055  -3.893   4.904  0.00  0.00    -0.166 N 
ATOM     19  C   UNL     1       0.256  -4.353  -1.684  0.00  0.00    +0.066 C 
ENDROOT
BRANCH  18  20
ATOM     20  N   UNL     1      -0.547  -2.817   5.585  0.00  0.00    -0.217 NA
ATOM     21  H   UNL     1      -0.370  -2.903   6.575  0.00  0.00    +0.146 HD
BRANCH  20  22
ATOM     22  C   UNL     1      -1.981  -2.637   5.321  0.00  0.00    +0.139 C 
BRANCH  22  23
ATOM     23  C   UNL     1      -2.488  -1.443   6.088  0.00  0.00    -0.032 A 
ATOM     24  C   UNL     1      -2.975  -1.602   7.372  0.00  0.00    +0.005 A 
ATOM     25  C   UNL     1      -3.440  -0.507   8.076  0.00  0.00    +0.000 A 
ATOM     26  C   UNL     1      -3.417   0.748   7.495  0.00  0.00    +0.000 A 
ATOM     27  C   UNL     1      -2.929   0.907   6.212  0.00  0.00    +0.000 A 
ATOM     28  C   UNL     1      -2.461  -0.188   5.510  0.00  0.00    +0.005 A 
ENDBRANCH  22  23
ENDBRANCH  20  22
ENDBRANCH  18  20
BRANCH  18  29
ATOM     29  N   UNL     1       0.135  -5.114   5.565  0.00  0.00    -0.245 N 
ATOM     30  H   UNL     1      -0.631  -5.630   5.861  0.00  0.00    +0.172 HD
BRANCH  29  31
ATOM     31  C   UNL     1       1.431  -5.589   5.799  0.00  0.00    +0.087 A 
ATOM     32  C   UNL     1       2.524  -4.915   5.275  0.00  0.00    +0.028 A 
ATOM     33  C   UNL     1       3.802  -5.385   5.508  0.00  0.00    +0.002 A 
ATOM     34  C   UNL     1       3.995  -6.527   6.262  0.00  0.00    +0.004 A 
ATOM     35  C   UNL     1       2.910  -7.205   6.789  0.00  0.00    +0.047 A 
ATOM     36  C   UNL     1       1.626  -6.736   6.565  0.00  0.00    +0.142 A 
BRANCH  36  37
ATOM     37  O   UNL     1       0.559  -7.398   7.086  0.00  0.00    -0.493 OA
ATOM     38  C   UNL     1       0.835  -8.567   7.861  0.00  0.00    +0.277 C 
ENDBRANCH  36  37
ENDBRANCH  29  31
ENDBRANCH  18  29
TORSDOF 6
