REMARK  Name = ZINC22922342
REMARK  12 active torsions:
REMARK  status: ('A' for Active; 'I' for Inactive)
REMARK    1  A    between atoms: C_1  and  C_2
REMARK    2  A    between atoms: C_2  and  N_3
REMARK    3  A    between atoms: N_3  and  C_4
REMARK    4  A    between atoms: C_4  and  C_5
REMARK    5  A    between atoms: C_6  and  C_8
REMARK    6  A    between atoms: C_8  and  C_9
REMARK    7  A    between atoms: C_9  and  C_10
REMARK    8  A    between atoms: C_20  and  N_23
REMARK    9  A    between atoms: N_23  and  C_24
REMARK   10  A    between atoms: C_24  and  C_25
REMARK   11  A    between atoms: C_28  and  C_30
REMARK   12  A    between atoms: C_30  and  O_31
REMARK                            x       y       z     vdW  Elec       q    Type
REMARK                         _______ _______ _______ _____ _____    ______ ____
ROOT
ATOM      1  C   UNL     1      -5.287  -2.025   2.770  0.00  0.00    -0.050 C 
ATOM      2  C   UNL     1      -5.721  -2.015   4.243  0.00  0.00    +0.089 C 
ATOM      3  N   UNL     1      -6.827  -2.931   4.494  0.00  0.00    -0.318 N 
ATOM      4  C   UNL     1      -7.288  -3.831   3.603  0.00  0.00    +0.200 C 
ATOM      5  O   UNL     1      -8.142  -4.631   3.921  0.00  0.00    -0.278 OA
ATOM      6  C   UNL     1      -6.730  -3.827   2.218  0.00  0.00    +0.021 C 
ATOM      7  N   UNL     1      -5.307  -3.405   2.318  0.00  0.00    +0.391 N 
ATOM      8  C   UNL     1      -4.729  -3.704   1.012  0.00  0.00    -0.059 C 
ATOM      9  C   UNL     1      -5.501  -4.942   0.488  0.00  0.00    +0.036 C 
ATOM     10  C   UNL     1      -6.626  -5.203   1.545  0.00  0.00    +0.010 C 
ATOM     11  H   UNL     1      -7.260  -2.890   5.362  0.00  0.00    +0.149 HD
ATOM     12  H   UNL     1      -4.845  -3.982   3.005  0.00  0.00    -0.080 HD
ENDROOT
BRANCH   9  13
ATOM     13  N   UNL     1      -4.603  -6.100   0.387  0.00  0.00    -0.308 NA
ATOM     14  H   UNL     1      -3.660  -5.809   0.177  0.00  0.00    +0.123 HD
BRANCH  13  15
ATOM     15  C   UNL     1      -5.092  -7.062  -0.610  0.00  0.00    +0.156 C 
BRANCH  15  16
ATOM     16  C   UNL     1      -4.147  -8.233  -0.684  0.00  0.00    +0.119 A 
ATOM     17  C   UNL     1      -4.230  -9.358   0.048  0.00  0.00    +0.046 A 
ATOM     18  C   UNL     1      -3.148 -10.181  -0.343  0.00  0.00    +0.047 A 
ATOM     19  C   UNL     1      -2.470  -9.510  -1.290  0.00  0.00    +0.131 A 
ATOM     20  O   UNL     1      -3.082  -8.333  -1.497  0.00  0.00    -0.461 OA
BRANCH  19  21
ATOM     21  C   UNL     1      -1.235  -9.998  -2.002  0.00  0.00    +0.230 C 
BRANCH  21  22
ATOM     22  O   UNL     1      -1.615 -10.714  -3.179  0.00  0.00    -0.387 OA
ATOM     23  H   UNL     1      -0.869 -11.059  -3.688  0.00  0.00    +0.210 HD
ENDBRANCH  21  22
ENDBRANCH  19  21
ENDBRANCH  15  16
ENDBRANCH  13  15
ENDBRANCH   9  13
BRANCH   1  24
ATOM     24  C   UNL     1      -3.872  -1.457   2.641  0.00  0.00    -0.005 C 
BRANCH  24  25
ATOM     25  C   UNL     1      -3.886   0.032   2.994  0.00  0.00    +0.094 C 
BRANCH  25  27
ATOM     26  N   UNL     1      -2.295   1.925   2.995  0.00  0.00    -0.302 N 
ATOM     27  C   UNL     1      -2.520   0.619   2.752  0.00  0.00    +0.215 C 
ATOM     28  O   UNL     1      -1.622  -0.084   2.339  0.00  0.00    -0.276 OA
BRANCH  26  30
ATOM     29  C   UNL     1      -0.127   2.377   4.035  0.00  0.00    +0.024 C 
ATOM     30  C   UNL     1      -0.966   2.496   2.761  0.00  0.00    +0.104 C 
ENDBRANCH  26  30
BRANCH  26  31
ATOM     31  C   UNL     1      -3.379   2.775   3.495  0.00  0.00    +0.104 C 
ATOM     32  C   UNL     1      -4.132   3.388   2.313  0.00  0.00    +0.024 C 
ENDBRANCH  26  31
ENDBRANCH  25  27
ENDBRANCH  24  25
ENDBRANCH   1  24
TORSDOF 10
