REMARK  Name = ZINC39738095
REMARK  6 active torsions:
REMARK  status: ('A' for Active; 'I' for Inactive)
REMARK    1  A    between atoms: C_7  and  S_31
REMARK    2  A    between atoms: C_9  and  N_12
REMARK    3  A    between atoms: C_10  and  N_11
REMARK    4  A    between atoms: N_13  and  C_14
REMARK    5  A    between atoms: C_18  and  C_20
REMARK    6  A    between atoms: C_21  and  C_22
REMARK                            x       y       z     vdW  Elec       q    Type
REMARK                         _______ _______ _______ _____ _____    ______ ____
ROOT
ATOM      1  N   UNL     1       4.870  -2.680   0.033  0.00  0.00    -0.147 NA
ATOM      2  N   UNL     1       4.884  -3.969   0.068  0.00  0.00    -0.149 NA
ENDROOT
BRANCH   1  11
ATOM      3  C   UNL     1      -0.016   1.357  -0.124  0.00  0.00    +0.001 A 
ATOM      4  C   UNL     1       1.168   2.090  -0.132  0.00  0.00    +0.001 A 
ATOM      5  C   UNL     1       2.378   1.464  -0.103  0.00  0.00    +0.010 A 
ATOM      6  C   UNL     1       2.435   0.062  -0.066  0.00  0.00    +0.007 A 
ATOM      7  C   UNL     1       1.231  -0.684  -0.059  0.00  0.00    +0.011 A 
ATOM      8  C   UNL     1       0.002  -0.005  -0.089  0.00  0.00    +0.010 A 
ATOM      9  C   UNL     1       1.280  -2.092  -0.021  0.00  0.00    +0.129 A 
ATOM     10  C   UNL     1       2.474  -2.734   0.009  0.00  0.00    +0.061 A 
ATOM     11  C   UNL     1       3.683  -2.013   0.003  0.00  0.00    +0.109 A 
ATOM     12  C   UNL     1       3.672  -0.616  -0.035  0.00  0.00    +0.060 A 
BRANCH   9  13
ATOM     13  S   UNL     1      -0.216  -3.022  -0.011  0.00  0.00    +0.140 S 
ATOM     14  O   UNL     1      -0.652  -3.135  -1.395  0.00  0.00    -0.140 OA
ATOM     15  O   UNL     1       0.096  -4.319   0.568  0.00  0.00    -0.140 OA
ATOM     16  O   UNL     1      -1.170  -2.280   0.800  0.00  0.00    -0.043 OA
ENDBRANCH   9  13
BRANCH  12  17
ATOM     17  N   UNL     1       4.861   0.095  -0.042  0.00  0.00    -0.356 N 
ATOM     18  H   UNL     1       4.846   1.064  -0.068  0.00  0.00    +0.142 HD
ATOM     19  H   UNL     1       5.708  -0.377  -0.020  0.00  0.00    +0.142 HD
ENDBRANCH  12  17
ENDBRANCH   1  11
BRANCH   2  20
ATOM     20  C   UNL     1       6.075  -4.639   0.099  0.00  0.00    +0.087 A 
ATOM     21  C   UNL     1       7.280  -3.929   0.099  0.00  0.00    +0.029 A 
ATOM     22  C   UNL     1       8.483  -4.604   0.130  0.00  0.00    +0.003 A 
ATOM     23  C   UNL     1       8.506  -5.985   0.162  0.00  0.00    +0.008 A 
ATOM     24  C   UNL     1       7.311  -6.708   0.162  0.00  0.00    -0.023 A 
ATOM     25  C   UNL     1       6.093  -6.034   0.137  0.00  0.00    +0.037 A 
BRANCH  24  26
ATOM     26  C   UNL     1       7.340  -8.185   0.196  0.00  0.00    +0.007 C 
ATOM     27  C   UNL     1       8.500  -8.826   0.226  0.00  0.00    +0.020 C 
BRANCH  27  28
ATOM     28  C   UNL     1       8.529 -10.332   0.261  0.00  0.00    +0.198 C 
ATOM     29  N   UNL     1       9.275 -10.795   1.438  0.00  0.00    -0.360 N 
ATOM     30  C   UNL     1      10.289 -11.489   1.009  0.00  0.00    +0.060 A 
ATOM     31  C   UNL     1      11.377 -12.197   1.697  0.00  0.00    +0.027 A 
ATOM     32  C   UNL     1      12.311 -12.847   0.973  0.00  0.00    +0.002 A 
ATOM     33  C   UNL     1      12.293 -12.879  -0.433  0.00  0.00    +0.002 A 
ATOM     34  C   UNL     1      11.341 -12.263  -1.161  0.00  0.00    +0.027 A 
ATOM     35  C   UNL     1      10.270 -11.524  -0.479  0.00  0.00    +0.060 A 
ATOM     36  N   UNL     1       9.244 -10.849  -0.912  0.00  0.00    -0.360 N 
ATOM     37  H   UNL     1       9.053 -10.616   2.365  0.00  0.00    +0.162 HD
ATOM     38  H   UNL     1       8.998 -10.714  -1.841  0.00  0.00    +0.162 HD
ENDBRANCH  27  28
ENDBRANCH  24  26
ENDBRANCH   2  20
TORSDOF 6
