REMARK  Name = ZINC39951354
REMARK  9 active torsions:
REMARK  status: ('A' for Active; 'I' for Inactive)
REMARK    1  A    between atoms: C_1  and  C_2
REMARK    2  A    between atoms: C_2  and  C_3
REMARK    3  A    between atoms: C_3  and  C_4
REMARK    4  A    between atoms: C_9  and  C_29
REMARK    5  A    between atoms: C_10  and  O_12
REMARK    6  A    between atoms: C_16  and  C_18
REMARK    7  A    between atoms: C_27  and  O_28
REMARK    8  A    between atoms: C_29  and  C_30
REMARK    9  A    between atoms: C_30  and  C_31
REMARK                            x       y       z     vdW  Elec       q    Type
REMARK                         _______ _______ _______ _____ _____    ______ ____
ROOT
ATOM      1  C   UNL     1      -1.245  -1.967  -0.182  0.00  0.00    -0.016 C 
ATOM      2  C   UNL     1      -0.713  -2.265   1.187  0.00  0.00    +0.023 C 
ATOM      3  C   UNL     1      -0.062  -3.602   1.310  0.00  0.00    +0.083 C 
ATOM      4  N   UNL     1      -0.664  -4.657   0.531  0.00  0.00    -0.311 NA
ATOM      5  C   UNL     1      -2.096  -4.676   0.402  0.00  0.00    +0.090 C 
ATOM      6  C   UNL     1      -2.692  -3.892  -0.750  0.00  0.00    -0.005 C 
ATOM      7  C   UNL     1      -2.664  -2.414  -0.428  0.00  0.00    +0.125 C 
ATOM      8  C   UNL     1      -1.874  -4.100  -2.029  0.00  0.00    -0.065 C 
ATOM      9  N   UNL     1      -0.475  -3.796  -1.708  0.00  0.00    +0.394 N 
ATOM     10  C   UNL     1      -0.292  -2.415  -1.278  0.00  0.00    -0.067 C 
ATOM     11  C   UNL     1       0.035  -4.780  -0.761  0.00  0.00    +0.037 C 
ATOM     12  H   UNL     1       0.055  -3.915  -2.559  0.00  0.00    -0.079 HD
ENDROOT
BRANCH  11  13
ATOM     13  C   UNL     1      -0.183  -6.165  -1.315  0.00  0.00    +0.002 A 
ATOM     14  C   UNL     1      -0.294  -7.263  -0.447  0.00  0.00    -0.012 A 
ATOM     15  C   UNL     1      -0.206  -7.103   0.947  0.00  0.00    +0.009 A 
ATOM     16  C   UNL     1      -0.318  -8.190   1.759  0.00  0.00    +0.001 A 
ATOM     17  C   UNL     1      -0.519  -9.463   1.229  0.00  0.00    +0.001 A 
ATOM     18  C   UNL     1      -0.609  -9.657  -0.116  0.00  0.00    +0.008 A 
ATOM     19  C   UNL     1      -0.499  -8.559  -0.985  0.00  0.00    -0.017 A 
ATOM     20  C   UNL     1      -0.588  -8.721  -2.379  0.00  0.00    +0.012 A 
ATOM     21  C   UNL     1      -0.476  -7.637  -3.193  0.00  0.00    +0.046 A 
ATOM     22  C   UNL     1      -0.279  -6.358  -2.663  0.00  0.00    +0.120 A 
BRANCH  22  23
ATOM     23  O   UNL     1      -0.177  -5.293  -3.502  0.00  0.00    -0.506 OA
ATOM     24  H   UNL     1       0.726  -5.104  -3.790  0.00  0.00    +0.292 HD
ENDBRANCH  22  23
ENDBRANCH  11  13
BRANCH   7  25
ATOM     25  O   UNL     1      -3.208  -1.693  -1.536  0.00  0.00    -0.391 OA
ATOM     26  H   UNL     1      -3.229  -0.735  -1.409  0.00  0.00    +0.210 HD
ENDBRANCH   7  25
BRANCH   1  27
ATOM     27  C   UNL     1      -1.279  -0.441  -0.280  0.00  0.00    +0.007 C 
BRANCH  27  29
ATOM     28  C   UNL     1      -2.212   1.644   0.733  0.00  0.00    +0.004 C 
ATOM     29  C   UNL     1      -2.259   0.115   0.755  0.00  0.00    -0.003 C 
ENDBRANCH  27  29
ENDBRANCH   1  27
BRANCH   6  30
ATOM     30  C   UNL     1      -4.135  -4.345  -0.982  0.00  0.00    +0.008 C 
BRANCH  30  31
ATOM     31  C   UNL     1      -4.154  -5.837  -1.318  0.00  0.00    -0.003 C 
ATOM     32  C   UNL     1      -5.597  -6.290  -1.551  0.00  0.00    +0.004 C 
ENDBRANCH  30  31
ENDBRANCH   6  30
TORSDOF 7
