REMARK  Name = ZINC12734568
REMARK  3 active torsions:
REMARK  status: ('A' for Active; 'I' for Inactive)
REMARK    1  A    between atoms: C_3  and  C_8
REMARK    2  A    between atoms: C_13  and  C_16
REMARK    3  A    between atoms: C_16  and  N_17
REMARK                            x       y       z     vdW  Elec       q    Type
REMARK                         _______ _______ _______ _____ _____    ______ ____
ROOT
ATOM      1  C   UNL     1      -3.719   1.989   0.031  0.00  0.00    +0.255 C 
ATOM      2  O   UNL     1      -3.769   3.200   0.134  0.00  0.00    -0.270 OA
ATOM      3  N   UNL     1      -4.857   1.274  -0.069  0.00  0.00    -0.261 N 
ATOM      4  C   UNL     1      -6.080   1.925  -0.164  0.00  0.00    +0.165 A 
ATOM      5  N   UNL     1      -7.282   1.397  -0.263  0.00  0.00    -0.231 NA
ATOM      6  C   UNL     1      -8.357   2.160  -0.345  0.00  0.00    +0.034 A 
ATOM      7  C   UNL     1      -8.164   3.501  -0.323  0.00  0.00    +0.070 A 
ATOM      8  S   UNL     1      -6.386   3.580  -0.174  0.00  0.00    -0.060 S 
ATOM      9  H   UNL     1      -4.822   0.305  -0.075  0.00  0.00    +0.157 HD
ENDROOT
BRANCH   1  12
ATOM     10  C   UNL     1      -0.016   1.355  -0.016  0.00  0.00    +0.018 A 
ATOM     11  C   UNL     1      -1.232   2.038  -0.002  0.00  0.00    +0.020 A 
ATOM     12  C   UNL     1      -2.417   1.306   0.015  0.00  0.00    +0.101 A 
ATOM     13  C   UNL     1      -2.346  -0.112   0.018  0.00  0.00    +0.261 A 
ATOM     14  N   UNL     1      -1.145  -0.721   0.004  0.00  0.00    -0.328 N 
ATOM     15  C   UNL     1       0.003  -0.003  -0.013  0.00  0.00    +0.086 A 
ATOM     16  O   UNL     1      -3.368  -0.775   0.034  0.00  0.00    -0.267 OA
ATOM     17  H   UNL     1      -1.102  -1.690   0.007  0.00  0.00    +0.168 HD
ENDBRANCH   1  12
BRANCH   6  18
ATOM     18  C   UNL     1      -9.737   1.565  -0.458  0.00  0.00    -0.022 C 
BRANCH  18  19
ATOM     19  N   UNL     1     -10.027   1.267  -1.867  0.00  0.00    +0.383 N 
ATOM     20  C   UNL     1      -9.170   0.151  -2.342  0.00  0.00    -0.078 C 
ATOM     21  C   UNL     1      -9.947  -0.398  -3.564  0.00  0.00    -0.020 C 
ATOM     22  C   UNL     1     -11.423  -0.276  -3.119  0.00  0.00    -0.020 C 
ATOM     23  C   UNL     1     -11.421   0.794  -2.011  0.00  0.00    -0.078 C 
ATOM     24  H   UNL     1      -9.878   2.087  -2.434  0.00  0.00    -0.081 HD
ENDBRANCH  18  19
ENDBRANCH   6  18
TORSDOF 3
