REMARK  Name = ZINC27330757
REMARK  6 active torsions:
REMARK  status: ('A' for Active; 'I' for Inactive)
REMARK    1  A    between atoms: C_1  and  C_2
REMARK    2  A    between atoms: C_9  and  C_11
REMARK    3  A    between atoms: N_13  and  N_14
REMARK    4  A    between atoms: C_15  and  C_17
REMARK    5  A    between atoms: C_20  and  S_23
REMARK    6  A    between atoms: S_23  and  N_26
REMARK                            x       y       z     vdW  Elec       q    Type
REMARK                         _______ _______ _______ _____ _____    ______ ____
ROOT
ATOM      1  N   UNL     1      -4.933   1.606   0.035  0.00  0.00    -0.230 N 
ATOM      2  C   UNL     1      -5.977   2.458   0.044  0.00  0.00    +0.260 C 
ATOM      3  O   UNL     1      -5.782   3.658   0.049  0.00  0.00    -0.269 OA
ATOM      4  H   UNL     1      -5.109   0.520   0.030  0.00  0.00    +0.173 HD
ENDROOT
BRANCH   2   5
ATOM      5  C   UNL     1      -7.359   1.934   0.048  0.00  0.00    +0.038 A 
ATOM      6  C   UNL     1      -7.587   0.557   0.036  0.00  0.00    +0.015 A 
ATOM      7  C   UNL     1      -8.879   0.074   0.046  0.00  0.00    +0.029 A 
ATOM      8  C   UNL     1      -9.948   0.952   0.056  0.00  0.00    +0.105 A 
ATOM      9  C   UNL     1      -9.730   2.318   0.061  0.00  0.00    +0.029 A 
ATOM     10  C   UNL     1      -8.443   2.814   0.058  0.00  0.00    +0.015 A 
BRANCH   8  11
ATOM     11  S   UNL     1     -11.596   0.327   0.060  0.00  0.00    +0.056 S 
ATOM     12  O   UNL     1     -11.531  -0.984   0.604  0.00  0.00    -0.153 OA
ATOM     13  O   UNL     1     -12.415   1.345   0.620  0.00  0.00    -0.153 OA
BRANCH  11  14
ATOM     14  N   UNL     1     -12.061   0.161  -1.520  0.00  0.00    -0.204 NA
ATOM     15  H   UNL     1     -13.089  -0.228  -1.561  0.00  0.00    +0.144 HD
ATOM     16  H   UNL     1     -11.384  -0.539  -2.031  0.00  0.00    +0.144 HD
ENDBRANCH  11  14
ENDBRANCH   8  11
ENDBRANCH   2   5
BRANCH   1  19
ATOM     17  C   UNL     1      -2.579   1.250   0.021  0.00  0.00    +0.267 C 
ATOM     18  O   UNL     1      -2.774   0.049   0.016  0.00  0.00    -0.268 OA
ATOM     19  N   UNL     1      -3.623   2.102   0.031  0.00  0.00    -0.230 N 
ATOM     20  H   UNL     1      -3.446   3.188   0.035  0.00  0.00    +0.173 HD
BRANCH  17  28
ATOM     21  C   UNL     1       4.985   1.579   0.268  0.00  0.00    +0.008 C 
ATOM     22  C   UNL     1       3.584   2.167   0.444  0.00  0.00    -0.009 C 
ATOM     23  C   UNL     1       3.460   3.446  -0.389  0.00  0.00    +0.009 C 
ATOM     24  C   UNL     1       2.162   4.167   0.002  0.00  0.00    +0.043 C 
ATOM     25  C   UNL     1       1.049   3.164   0.008  0.00  0.00    -0.006 A 
ATOM     26  C   UNL     1       1.166   1.804   0.001  0.00  0.00    -0.036 A 
ATOM     27  C   UNL     1      -0.013   1.076   0.008  0.00  0.00    +0.024 A 
ATOM     28  C   UNL     1      -1.208   1.770   0.017  0.00  0.00    +0.076 A 
ATOM     29  S   UNL     1      -0.647   3.464   0.026  0.00  0.00    -0.088 S 
ATOM     30  C   UNL     1       2.543   1.145  -0.014  0.00  0.00    +0.039 C 
ENDBRANCH  17  28
ENDBRANCH   1  19
TORSDOF 5
