REMARK  Name = ZINC63478313
REMARK  11 active torsions:
REMARK  status: ('A' for Active; 'I' for Inactive)
REMARK    1  A    between atoms: C_1  and  C_2
REMARK    2  A    between atoms: C_5  and  N_9
REMARK    3  A    between atoms: C_6  and  C_8
REMARK    4  A    between atoms: C_10  and  S_15
REMARK    5  A    between atoms: S_15  and  C_16
REMARK    6  A    between atoms: C_16  and  C_17
REMARK    7  A    between atoms: N_19  and  C_20
REMARK    8  A    between atoms: C_20  and  C_21
REMARK    9  A    between atoms: C_21  and  C_22
REMARK   10  A    between atoms: C_26  and  O_31
REMARK   11  A    between atoms: O_31  and  C_32
REMARK                            x       y       z     vdW  Elec       q    Type
REMARK                         _______ _______ _______ _____ _____    ______ ____
ROOT
ATOM      1  C   UNL     1       1.017  -4.970  -4.450  0.00  0.00    +0.223 C 
ATOM      2  O   UNL     1       0.071  -4.623  -5.126  0.00  0.00    -0.275 OA
ATOM      3  N   UNL     1       2.215  -5.186  -5.028  0.00  0.00    -0.314 N 
ATOM      4  H   UNL     1       2.971  -5.463  -4.487  0.00  0.00    +0.149 HD
ENDROOT
BRANCH   1   5
ATOM      5  C   UNL     1       0.852  -5.159  -2.964  0.00  0.00    +0.168 C 
BRANCH   5   6
ATOM      6  S   UNL     1      -0.862  -4.794  -2.494  0.00  0.00    -0.107 S 
BRANCH   6   8
ATOM      7  N   UNL     1       0.059  -4.167  -0.021  0.00  0.00    -0.173 N 
ATOM      8  C   UNL     1      -0.893  -5.065  -0.701  0.00  0.00    +0.260 C 
ATOM      9  N   UNL     1      -0.379  -6.406  -0.363  0.00  0.00    -0.218 N 
ATOM     10  N   UNL     1       0.753  -6.193   0.433  0.00  0.00    -0.063 NA
ATOM     11  N   UNL     1       0.989  -5.001   0.610  0.00  0.00    -0.056 NA
ATOM     12  H   UNL     1      -0.750  -7.260  -0.635  0.00  0.00    +0.173 HD
BRANCH   7  17
ATOM     13  C   UNL     1      -0.018   1.503   0.010  0.00  0.00    +0.044 C 
ATOM     14  C   UNL     1       0.002  -0.004   0.002  0.00  0.00    -0.050 A 
ATOM     15  C   UNL     1       0.006  -0.687  -1.201  0.00  0.00    +0.005 A 
ATOM     16  C   UNL     1       0.025  -2.068  -1.212  0.00  0.00    +0.025 A 
ATOM     17  C   UNL     1       0.041  -2.771  -0.013  0.00  0.00    +0.059 A 
ATOM     18  C   UNL     1       0.037  -2.081   1.193  0.00  0.00    -0.027 A 
ATOM     19  C   UNL     1       0.023  -0.700   1.197  0.00  0.00    +0.008 A 
ATOM     20  C   UNL     1       0.054  -2.839   2.495  0.00  0.00    +0.046 C 
ENDBRANCH   7  17
ENDBRANCH   6   8
ENDBRANCH   5   6
ENDBRANCH   1   5
BRANCH   3  21
ATOM     21  C   UNL     1       2.375  -5.002  -6.473  0.00  0.00    +0.108 C 
BRANCH  21  22
ATOM     22  C   UNL     1       3.821  -5.310  -6.868  0.00  0.00    +0.052 C 
BRANCH  22  23
ATOM     23  C   UNL     1       3.986  -5.121  -8.354  0.00  0.00    -0.040 C 
ATOM     24  C   UNL     1       4.433  -4.014  -8.987  0.00  0.00    -0.001 A 
ATOM     25  C   UNL     1       4.884  -2.705  -8.498  0.00  0.00    +0.013 A 
ATOM     26  C   UNL     1       5.284  -1.773  -9.390  0.00  0.00    +0.046 A 
ATOM     27  C   UNL     1       5.279  -2.026 -10.775  0.00  0.00    +0.122 A 
ATOM     28  C   UNL     1       4.876  -3.212 -11.298  0.00  0.00    +0.071 A 
ATOM     29  C   UNL     1       4.438  -4.258 -10.448  0.00  0.00    +0.046 A 
ATOM     30  N   UNL     1       4.008  -5.471 -10.707  0.00  0.00    -0.380 N 
ATOM     31  C   UNL     1       3.689  -6.134  -9.437  0.00  0.00    +0.144 C 
ATOM     32  H   UNL     1       3.919  -5.865 -11.589  0.00  0.00    +0.160 HD
BRANCH  27  33
ATOM     33  O   UNL     1       5.692  -1.048 -11.618  0.00  0.00    -0.495 OA
ATOM     34  C   UNL     1       6.107   0.185 -11.027  0.00  0.00    +0.277 C 
ENDBRANCH  27  33
ENDBRANCH  22  23
ENDBRANCH  21  22
ENDBRANCH   3  21
TORSDOF 8
