REMARK  Name = ZINC67595125
REMARK  9 active torsions:
REMARK  status: ('A' for Active; 'I' for Inactive)
REMARK    1  A    between atoms: C_1  and  N_2
REMARK    2  A    between atoms: N_5  and  C_8
REMARK    3  A    between atoms: C_8  and  C_9
REMARK    4  A    between atoms: C_9  and  N_10
REMARK    5  A    between atoms: C_11  and  C_13
REMARK    6  A    between atoms: C_13  and  C_14
REMARK    7  A    between atoms: C_14  and  C_15
REMARK    8  A    between atoms: C_15  and  C_16
REMARK    9  A    between atoms: C_16  and  C_17
REMARK                            x       y       z     vdW  Elec       q    Type
REMARK                         _______ _______ _______ _____ _____    ______ ____
ROOT
ATOM      1  C   UNL     1       0.340  -8.103   3.722  0.00  0.00    +0.096 C 
ENDROOT
BRANCH   1   3
ATOM      2  N   UNL     1      -0.093  -5.950   2.584  0.00  0.00    -0.314 N 
ATOM      3  C   UNL     1       0.348  -6.596   3.681  0.00  0.00    +0.213 C 
ATOM      4  O   UNL     1       0.750  -5.966   4.636  0.00  0.00    -0.276 OA
ATOM      5  H   UNL     1      -0.415  -6.454   1.820  0.00  0.00    +0.149 HD
BRANCH   2   6
ATOM      6  C   UNL     1      -0.086  -4.485   2.544  0.00  0.00    +0.119 C 
BRANCH   6   7
ATOM      7  C   UNL     1      -0.632  -4.009   1.196  0.00  0.00    +0.103 C 
BRANCH   7  12
ATOM      8  C   UNL     1      -0.018   1.465   0.010  0.00  0.00    -0.096 C 
ATOM      9  N   UNL     1       0.002  -0.004   0.002  0.00  0.00    +0.379 N 
ATOM     10  C   UNL     1      -1.376  -0.512   0.011  0.00  0.00    -0.064 C 
ATOM     11  C   UNL     1      -1.356  -2.042  -0.017  0.00  0.00    +0.066 C 
ATOM     12  N   UNL     1      -0.624  -2.541   1.156  0.00  0.00    -0.304 NA
ATOM     13  C   UNL     1       0.750  -2.020   1.175  0.00  0.00    +0.066 C 
ATOM     14  C   UNL     1       0.713  -0.490   1.192  0.00  0.00    -0.064 C 
ATOM     15  H   UNL     1       0.475  -0.329  -0.828  0.00  0.00    -0.082 HD
ENDBRANCH   7  12
ENDBRANCH   6   7
ENDBRANCH   2   6
ENDBRANCH   1   3
BRANCH   1  16
ATOM     16  C   UNL     1       0.886  -8.579   5.070  0.00  0.00    +0.009 C 
BRANCH  16  17
ATOM     17  C   UNL     1       0.879 -10.108   5.111  0.00  0.00    +0.002 C 
BRANCH  17  18
ATOM     18  C   UNL     1       1.425 -10.585   6.459  0.00  0.00    +0.016 C 
BRANCH  18  19
ATOM     19  C   UNL     1       1.417 -12.114   6.501  0.00  0.00    +0.069 C 
ATOM     20  C   UNL     1       1.918 -12.625   7.827  0.00  0.00    +0.108 C 
ATOM     21  C   UNL     1       2.520 -14.049   7.616  0.00  0.00    +0.105 C 
ATOM     22  C   UNL     1       3.636 -13.869   6.589  0.00  0.00    +0.093 C 
ATOM     23  S   UNL     1       2.692 -12.821   5.356  0.00  0.00    -0.154 S 
ATOM     24  N   UNL     1       2.807 -14.388   8.991  0.00  0.00    -0.294 N 
ATOM     25  C   UNL     1       1.833 -13.774   9.728  0.00  0.00    +0.300 C 
ATOM     26  O   UNL     1       1.606 -14.034  10.894  0.00  0.00    -0.253 OA
ATOM     27  N   UNL     1       1.137 -12.854   9.006  0.00  0.00    -0.294 N 
ATOM     28  H   UNL     1       3.537 -14.935   9.322  0.00  0.00    +0.151 HD
ATOM     29  H   UNL     1       0.294 -12.438   9.246  0.00  0.00    +0.151 HD
ENDBRANCH  18  19
ENDBRANCH  17  18
ENDBRANCH  16  17
ENDBRANCH   1  16
TORSDOF 8
