REMARK  Name = ZINC12589814
REMARK  6 active torsions:
REMARK  status: ('A' for Active; 'I' for Inactive)
REMARK    1  A    between atoms: C_1  and  C_2
REMARK    2  A    between atoms: C_3  and  C_26
REMARK    3  A    between atoms: C_8  and  C_10
REMARK    4  A    between atoms: C_13  and  N_19
REMARK    5  A    between atoms: C_14  and  N_16
REMARK    6  A    between atoms: N_22  and  C_25
REMARK                            x       y       z     vdW  Elec       q    Type
REMARK                         _______ _______ _______ _____ _____    ______ ____
ROOT
ATOM      1  C   UNL     1      -1.171   1.030   0.280  0.00  0.00    +0.054 C 
ATOM      2  C   UNL     1      -0.913  -0.454   0.255  0.00  0.00    +0.016 A 
ATOM      3  C   UNL     1      -1.796  -1.495   0.337  0.00  0.00    +0.083 A 
ATOM      4  N   UNL     1      -1.340  -2.738   0.293  0.00  0.00    -0.224 NA
ATOM      5  C   UNL     1      -0.051  -2.992   0.171  0.00  0.00    +0.165 A 
ATOM      6  S   UNL     1       0.632  -1.341   0.100  0.00  0.00    -0.057 S 
ATOM      7  N   UNL     1       0.602  -4.216   0.108  0.00  0.00    -0.261 N 
ATOM      8  C   UNL     1       1.943  -4.259  -0.018  0.00  0.00    +0.250 C 
ATOM      9  O   UNL     1       2.582  -3.226  -0.078  0.00  0.00    -0.270 OA
ATOM     10  H   UNL     1       0.093  -5.040   0.155  0.00  0.00    +0.157 HD
ENDROOT
BRANCH   3  11
ATOM     11  C   UNL     1      -3.249  -1.235   0.474  0.00  0.00    +0.001 A 
ATOM     12  C   UNL     1      -4.011  -1.979   1.373  0.00  0.00    +0.011 A 
ATOM     13  C   UNL     1      -5.363  -1.733   1.498  0.00  0.00    +0.016 A 
ATOM     14  C   UNL     1      -5.963  -0.749   0.732  0.00  0.00    +0.018 A 
ATOM     15  C   UNL     1      -5.211  -0.006  -0.162  0.00  0.00    +0.016 A 
ATOM     16  C   UNL     1      -3.857  -0.240  -0.290  0.00  0.00    +0.011 A 
ATOM     17 BR   UNL     1      -7.816  -0.417   0.907  0.00  0.00    -0.050 Br
ENDBRANCH   3  11
BRANCH   8  18
ATOM     18  C   UNL     1       2.636  -5.559  -0.085  0.00  0.00    +0.039 A 
ATOM     19  C   UNL     1       1.903  -6.748  -0.023  0.00  0.00    +0.015 A 
ATOM     20  C   UNL     1       2.552  -7.959  -0.085  0.00  0.00    +0.026 A 
ATOM     21  C   UNL     1       3.939  -8.002  -0.210  0.00  0.00    +0.060 A 
ATOM     22  C   UNL     1       4.672  -6.820  -0.272  0.00  0.00    +0.148 A 
ATOM     23  C   UNL     1       4.027  -5.605  -0.216  0.00  0.00    +0.047 A 
BRANCH  21  24
ATOM     24  N   UNL     1       4.592  -9.227  -0.272  0.00  0.00    -0.332 N 
ATOM     25  C   UNL     1       4.920  -9.846  -1.566  0.00  0.00    +0.086 C 
ATOM     26  C   UNL     1       4.424 -11.296  -1.551  0.00  0.00    -0.060 C 
ATOM     27  N   UNL     1       4.986 -11.992  -0.387  0.00  0.00    +0.380 N 
ATOM     28  C   UNL     1       4.478 -11.388   0.851  0.00  0.00    -0.060 C 
ATOM     29  C   UNL     1       4.981  -9.940   0.955  0.00  0.00    +0.086 C 
ATOM     30  C   UNL     1       4.601 -13.409  -0.432  0.00  0.00    -0.096 C 
ATOM     31  H   UNL     1       5.992 -11.919  -0.407  0.00  0.00    -0.082 HD
ENDBRANCH  21  24
BRANCH  22  32
ATOM     32  N   UNL     1       6.145  -6.870  -0.404  0.00  0.00    +0.058 N 
ATOM     33  O   UNL     1       6.772  -5.849  -0.567  0.00  0.00    -0.126 OA
ATOM     34  O   UNL     1       6.721  -7.931  -0.349  0.00  0.00    -0.126 OA
ENDBRANCH  22  32
ENDBRANCH   8  18
TORSDOF 4
