REMARK  Name = ZINC67382899
REMARK  7 active torsions:
REMARK  status: ('A' for Active; 'I' for Inactive)
REMARK    1  A    between atoms: C_1  and  C_2
REMARK    2  A    between atoms: C_6  and  C_7
REMARK    3  A    between atoms: N_9  and  N_10
REMARK    4  A    between atoms: N_13  and  C_14
REMARK    5  A    between atoms: C_14  and  C_15
REMARK    6  A    between atoms: C_15  and  C_17
REMARK    7  A    between atoms: C_15  and  N_22
REMARK                            x       y       z     vdW  Elec       q    Type
REMARK                         _______ _______ _______ _____ _____    ______ ____
ROOT
ATOM      1  N   UNL     1       2.419  -2.502   9.233  0.00  0.00    -0.218 N 
ATOM      2  C   UNL     1       1.362  -2.655   8.411  0.00  0.00    +0.316 C 
ATOM      3  O   UNL     1       0.493  -1.806   8.373  0.00  0.00    -0.251 OA
ATOM      4  N   UNL     1       1.270  -3.749   7.629  0.00  0.00    -0.299 N 
ATOM      5  H   UNL     1       2.486  -1.715   9.796  0.00  0.00    +0.174 HD
ATOM      6  H   UNL     1       1.963  -4.426   7.659  0.00  0.00    +0.150 HD
ENDROOT
BRANCH   1   9
ATOM      7  C   UNL     1       4.477  -3.328  10.099  0.00  0.00    +0.267 C 
ATOM      8  O   UNL     1       4.561  -2.340  10.805  0.00  0.00    -0.268 OA
ATOM      9  N   UNL     1       3.421  -3.481   9.276  0.00  0.00    -0.229 N 
ATOM     10  H   UNL     1       3.354  -4.268   8.714  0.00  0.00    +0.173 HD
BRANCH   7  16
ATOM     11  C   UNL     1       7.035  -3.286  11.876  0.00  0.00    +0.045 C 
ATOM     12  C   UNL     1       6.680  -4.387  10.911  0.00  0.00    -0.031 A 
ATOM     13  C   UNL     1       7.477  -5.493  10.738  0.00  0.00    +0.011 A 
ATOM     14  C   UNL     1       7.098  -6.447   9.852  0.00  0.00    +0.046 A 
ATOM     15  S   UNL     1       5.648  -5.875   9.226  0.00  0.00    -0.092 S 
ATOM     16  C   UNL     1       5.525  -4.351  10.144  0.00  0.00    +0.078 A 
ENDBRANCH   7  16
ENDBRANCH   1   9
BRANCH   4  17
ATOM     17  C   UNL     1       0.121  -3.915   6.734  0.00  0.00    +0.095 C 
BRANCH  17  18
ATOM     18  C   UNL     1       0.193  -5.287   6.062  0.00  0.00    -0.013 C 
BRANCH  18  19
ATOM     19  N   UNL     1      -0.882  -5.402   5.068  0.00  0.00    +0.386 N 
ATOM     20  C   UNL     1      -0.877  -6.761   4.484  0.00  0.00    -0.078 C 
ATOM     21  C   UNL     1      -1.264  -6.554   2.998  0.00  0.00    -0.020 C 
ATOM     22  C   UNL     1      -0.542  -5.221   2.669  0.00  0.00    -0.020 C 
ATOM     23  C   UNL     1      -0.664  -4.425   3.986  0.00  0.00    -0.078 C 
ATOM     24  H   UNL     1      -1.773  -5.227   5.508  0.00  0.00    -0.081 HD
ENDBRANCH  18  19
BRANCH  18  25
ATOM     25  C   UNL     1       0.032  -6.365   7.103  0.00  0.00    -0.022 A 
ATOM     26  C   UNL     1       0.984  -7.116   7.709  0.00  0.00    +0.009 A 
ATOM     27  C   UNL     1       0.600  -8.057   8.646  0.00  0.00    +0.008 A 
ATOM     28  C   UNL     1      -0.717  -8.202   8.931  0.00  0.00    +0.045 A 
ATOM     29  S   UNL     1      -1.462  -6.980   7.864  0.00  0.00    -0.103 S 
ENDBRANCH  18  25
ENDBRANCH  17  18
ENDBRANCH   4  17
TORSDOF 6
