REMARK  Name = ZINC39631591
REMARK  12 active torsions:
REMARK  status: ('A' for Active; 'I' for Inactive)
REMARK    1  A    between atoms: C_1  and  C_2
REMARK    2  A    between atoms: C_5  and  C_9
REMARK    3  A    between atoms: C_13  and  C_22
REMARK    4  A    between atoms: N_24  and  C_25
REMARK    5  A    between atoms: C_25  and  C_27
REMARK    6  A    between atoms: C_25  and  C_28
REMARK    7  A    between atoms: C_28  and  C_29
REMARK    8  A    between atoms: C_29  and  C_30
REMARK    9  A    between atoms: C_30  and  C_31
REMARK   10  A    between atoms: C_31  and  C_32
REMARK   11  A    between atoms: C_31  and  C_33
REMARK   12  A    between atoms: C_31  and  O_34
REMARK                            x       y       z     vdW  Elec       q    Type
REMARK                         _______ _______ _______ _____ _____    ______ ____
ROOT
ATOM      1  C   UNL     1       0.057  -4.250  -0.023  0.00  0.00    +0.247 C 
ATOM      2  O   UNL     1      -0.048  -4.851  -1.074  0.00  0.00    -0.270 OA
ATOM      3  N   UNL     1       0.174  -4.931   1.134  0.00  0.00    -0.296 N 
ATOM      4  C   UNL     1       0.184  -4.385   2.512  0.00  0.00    +0.121 C 
ATOM      5  C   UNL     1      -0.633  -5.402   3.340  0.00  0.00    +0.100 C 
ATOM      6  C   UNL     1      -0.538  -6.718   2.551  0.00  0.00    -0.004 C 
ATOM      7  C   UNL     1       0.316  -6.395   1.316  0.00  0.00    +0.115 C 
ATOM      8  C   UNL     1      -1.927  -7.178   2.119  0.00  0.00    -0.010 C 
ATOM      9  C   UNL     1      -1.811  -8.517   1.386  0.00  0.00    -0.082 C 
ATOM     10  N   UNL     1      -1.199  -9.512   2.275  0.00  0.00    +0.379 N 
ATOM     11  C   UNL     1       0.171  -9.108   2.611  0.00  0.00    -0.082 C 
ATOM     12  C   UNL     1       0.140  -7.793   3.396  0.00  0.00    -0.010 C 
ATOM     13  H   UNL     1      -1.744  -9.586   3.121  0.00  0.00    -0.086 HD
ATOM     14  H   UNL     1      -1.180 -10.408   1.812  0.00  0.00    -0.086 HD
ENDROOT
BRANCH   1  19
ATOM     15  C   UNL     1       0.060   1.507   0.016  0.00  0.00    +0.047 C 
ATOM     16  C   UNL     1       0.059  -0.000   0.005  0.00  0.00    -0.015 A 
ATOM     17  C   UNL     1       0.663  -0.697   1.036  0.00  0.00    +0.007 A 
ATOM     18  C   UNL     1       0.666  -2.077   1.032  0.00  0.00    +0.013 A 
ATOM     19  C   UNL     1       0.057  -2.771  -0.014  0.00  0.00    +0.040 A 
ATOM     20  C   UNL     1      -0.552  -2.064  -1.052  0.00  0.00    +0.051 A 
ATOM     21  C   UNL     1      -0.553  -0.682  -1.034  0.00  0.00    +0.127 A 
ATOM     22  F   UNL     1      -1.147   0.005  -2.034  0.00  0.00    -0.205 F 
ENDBRANCH   1  19
BRANCH   5  23
ATOM     23  C   UNL     1      -0.033  -5.565   4.712  0.00  0.00    +0.218 C 
ATOM     24  O   UNL     1       1.144  -5.332   4.891  0.00  0.00    -0.275 OA
ATOM     25  N   UNL     1      -0.803  -5.969   5.741  0.00  0.00    -0.312 N 
ATOM     26  H   UNL     1      -1.744  -6.156   5.599  0.00  0.00    +0.149 HD
BRANCH  25  27
ATOM     27  C   UNL     1      -0.219  -6.128   7.075  0.00  0.00    +0.070 C 
ATOM     28  C   UNL     1      -0.220  -4.779   7.796  0.00  0.00    +0.028 C 
BRANCH  27  29
ATOM     29  C   UNL     1      -1.045  -7.135   7.877  0.00  0.00    +0.022 C 
BRANCH  29  30
ATOM     30  C   UNL     1      -0.942  -8.515   7.224  0.00  0.00    +0.005 C 
BRANCH  30  31
ATOM     31  C   UNL     1      -1.768  -9.522   8.026  0.00  0.00    +0.034 C 
BRANCH  31  32
ATOM     32  C   UNL     1      -1.665 -10.902   7.372  0.00  0.00    +0.061 C 
ATOM     33  C   UNL     1      -0.201 -11.347   7.348  0.00  0.00    +0.041 C 
ATOM     34  C   UNL     1      -2.491 -11.909   8.174  0.00  0.00    +0.041 C 
BRANCH  32  35
ATOM     35  O   UNL     1      -2.164 -10.834   6.035  0.00  0.00    -0.389 OA
ATOM     36  H   UNL     1      -3.088 -10.558   5.974  0.00  0.00    +0.210 HD
ENDBRANCH  32  35
ENDBRANCH  31  32
ENDBRANCH  30  31
ENDBRANCH  29  30
ENDBRANCH  27  29
ENDBRANCH  25  27
ENDBRANCH   5  23
TORSDOF 8
