REMARK  Name = ZINC44325300
REMARK  11 active torsions:
REMARK  status: ('A' for Active; 'I' for Inactive)
REMARK    1  A    between atoms: C_1  and  N_2
REMARK    2  A    between atoms: N_5  and  C_8
REMARK    3  A    between atoms: C_8  and  C_9
REMARK    4  A    between atoms: C_11  and  C_16
REMARK    5  A    between atoms: C_14  and  O_15
REMARK    6  A    between atoms: C_16  and  CA_17
REMARK    7  A    between atoms: CA_17  and  C_19
REMARK    8  A    between atoms: CA_17  and  N_22
REMARK    9  A    between atoms: C_23  and  O_25
REMARK   10  A    between atoms: O_25  and  C_26
REMARK   11  A    between atoms: C_26  and  C_27
REMARK                            x       y       z     vdW  Elec       q    Type
REMARK                         _______ _______ _______ _____ _____    ______ ____
ROOT
ATOM      1  CA  UNL     1       1.969  -7.549   4.296  0.00  0.00    +0.193 C 
ENDROOT
BRANCH   1   2
ATOM      2  N   UNL     1       0.998  -7.834   3.237  0.00  0.00    -0.267 N 
ATOM      3  C   UNL     1       1.071  -8.992   2.550  0.00  0.00    +0.401 C 
ATOM      4  O   UNL     1       1.942  -9.799   2.810  0.00  0.00    -0.226 OA
ATOM      5  H   UNL     1       0.303  -7.190   3.029  0.00  0.00    +0.153 HD
BRANCH   3   6
ATOM      6  O   UNL     1       0.179  -9.254   1.577  0.00  0.00    -0.449 OA
BRANCH   6   7
ATOM      7  C   UNL     1       0.316 -10.500   0.890  0.00  0.00    +0.246 C 
BRANCH   7   8
ATOM      8  C   UNL     1      -0.779 -10.619  -0.173  0.00  0.00    +0.088 C 
ATOM      9  C   UNL     1      -2.129 -10.764   0.486  0.00  0.00    -0.029 A 
ATOM     10  C   UNL     1      -2.837  -9.942   1.336  0.00  0.00    +0.005 A 
ATOM     11  C   UNL     1      -4.081 -10.331   1.799  0.00  0.00    +0.000 A 
ATOM     12  C   UNL     1      -4.618 -11.546   1.410  0.00  0.00    +0.001 A 
ATOM     13  C   UNL     1      -3.916 -12.374   0.559  0.00  0.00    +0.009 A 
ATOM     14  C   UNL     1      -2.660 -11.988   0.088  0.00  0.00    -0.014 A 
ATOM     15  C   UNL     1      -1.704 -12.670  -0.819  0.00  0.00    -0.014 A 
ATOM     16  C   UNL     1      -0.576 -11.873  -0.989  0.00  0.00    -0.029 A 
ATOM     17  C   UNL     1       0.460 -12.295  -1.794  0.00  0.00    +0.005 A 
ATOM     18  C   UNL     1       0.382 -13.517  -2.439  0.00  0.00    +0.000 A 
ATOM     19  C   UNL     1      -0.735 -14.317  -2.277  0.00  0.00    +0.001 A 
ATOM     20  C   UNL     1      -1.776 -13.902  -1.473  0.00  0.00    +0.009 A 
ENDBRANCH   7   8
ENDBRANCH   6   7
ENDBRANCH   3   6
ENDBRANCH   1   2
BRANCH   1  21
ATOM     21  C   UNL     1       1.504  -8.175   5.586  0.00  0.00    +0.376 C 
ATOM     22  O   UNL     1       0.312  -8.309   5.803  0.00  0.00    -0.244 OA
ATOM     23  OXT UNL     1       2.320  -8.548   6.412  0.00  0.00    -0.244 OA
ENDBRANCH   1  21
BRANCH   1  24
ATOM     24  C   UNL     1       2.093  -6.035   4.480  0.00  0.00    +0.069 C 
BRANCH  24  27
ATOM     25  C   UNL     1       2.367  -4.437   1.071  0.00  0.00    +0.008 A 
ATOM     26  C   UNL     1       1.837  -4.999   2.217  0.00  0.00    +0.012 A 
ATOM     27  C   UNL     1       2.674  -5.423   3.232  0.00  0.00    -0.045 A 
ATOM     28  C   UNL     1       4.044  -5.287   3.103  0.00  0.00    +0.007 A 
ATOM     29  C   UNL     1       4.579  -4.726   1.960  0.00  0.00    +0.046 A 
ATOM     30  C   UNL     1       3.741  -4.304   0.938  0.00  0.00    +0.121 A 
BRANCH  30  31
ATOM     31  O   UNL     1       4.266  -3.757  -0.190  0.00  0.00    -0.506 OA
ATOM     32  H   UNL     1       4.376  -2.797  -0.147  0.00  0.00    +0.292 HD
ENDBRANCH  30  31
BRANCH  25  33
ATOM     33  C   UNL     1       1.453  -3.974  -0.034  0.00  0.00    +0.123 C 
BRANCH  33  38
ATOM     34  C   UNL     1      -0.018   1.465   0.010  0.00  0.00    -0.096 C 
ATOM     35  N   UNL     1       0.002  -0.004   0.002  0.00  0.00    +0.379 N 
ATOM     36  C   UNL     1       0.688  -0.477  -1.207  0.00  0.00    -0.064 C 
ATOM     37  C   UNL     1       0.693  -2.008  -1.226  0.00  0.00    +0.066 C 
ATOM     38  N   UNL     1       1.378  -2.507  -0.025  0.00  0.00    -0.302 NA
ATOM     39  C   UNL     1       0.717  -2.021   1.194  0.00  0.00    +0.066 C 
ATOM     40  C   UNL     1       0.713  -0.490   1.192  0.00  0.00    -0.064 C 
ATOM     41  H   UNL     1      -0.945  -0.353   0.010  0.00  0.00    -0.082 HD
ENDBRANCH  33  38
ENDBRANCH  25  33
ENDBRANCH  24  27
ENDBRANCH   1  24
TORSDOF 10
