REMARK  Name = ZINC24228181
REMARK  12 active torsions:
REMARK  status: ('A' for Active; 'I' for Inactive)
REMARK    1  A    between atoms: C_1  and  C_2
REMARK    2  A    between atoms: C_2  and  C_4
REMARK    3  A    between atoms: C_2  and  N_35
REMARK    4  A    between atoms: C_7  and  S_16
REMARK    5  A    between atoms: N_8  and  C_9
REMARK    6  A    between atoms: S_16  and  C_17
REMARK    7  A    between atoms: C_17  and  C_19
REMARK    8  A    between atoms: C_17  and  C_20
REMARK    9  A    between atoms: C_32  and  C_33
REMARK   10  A    between atoms: C_32  and  C_34
REMARK   11  A    between atoms: N_35  and  C_36
REMARK   12  A    between atoms: N_35  and  C_37
REMARK                            x       y       z     vdW  Elec       q    Type
REMARK                         _______ _______ _______ _____ _____    ______ ____
ROOT
ATOM      1  S   UNL     1       2.001  -2.062   4.548  0.00  0.00    -0.073 S 
ENDROOT
BRANCH   1   5
ATOM      2  C   UNL     1       2.589  -3.106   8.263  0.00  0.00    +0.125 A 
ATOM      3  N   UNL     1       2.165  -1.879   8.377  0.00  0.00    -0.135 NA
ATOM      4  N   UNL     1       1.927  -1.384   7.215  0.00  0.00    -0.122 NA
ATOM      5  C   UNL     1       2.180  -2.278   6.287  0.00  0.00    +0.197 A 
ATOM      6  N   UNL     1       2.614  -3.406   6.927  0.00  0.00    -0.275 N 
BRANCH   6   7
ATOM      7  C   UNL     1       3.005  -4.618   6.337  0.00  0.00    +0.050 A 
ATOM      8  C   UNL     1       2.271  -5.773   6.571  0.00  0.00    +0.029 A 
ATOM      9  C   UNL     1       2.654  -6.964   5.985  0.00  0.00    +0.040 A 
ATOM     10  C   UNL     1       3.775  -7.008   5.174  0.00  0.00    +0.124 A 
ATOM     11  C   UNL     1       4.511  -5.858   4.944  0.00  0.00    +0.040 A 
ATOM     12  C   UNL     1       4.128  -4.665   5.524  0.00  0.00    +0.029 A 
ATOM     13  F   UNL     1       4.151  -8.175   4.606  0.00  0.00    -0.205 F 
ENDBRANCH   6   7
BRANCH   2  15
ATOM     14  C   UNL     1       4.343  -3.606   9.942  0.00  0.00    -0.005 C 
ATOM     15  C   UNL     1       2.979  -4.025   9.392  0.00  0.00    -0.003 C 
BRANCH  15  16
ATOM     16  N   UNL     1       1.974  -3.942  10.461  0.00  0.00    +0.382 N 
ATOM     17  C   UNL     1       2.257  -4.911  11.527  0.00  0.00    -0.096 C 
ATOM     18  C   UNL     1       1.889  -2.577  10.999  0.00  0.00    -0.096 C 
ATOM     19  H   UNL     1       0.996  -4.194  10.025  0.00  0.00    -0.082 HD
ENDBRANCH  15  16
ENDBRANCH   2  15
ENDBRANCH   1   5
BRANCH   1  20
ATOM     20  C   UNL     1       1.399  -0.356   4.503  0.00  0.00    +0.137 C 
ATOM     21  C   UNL     1       2.488   0.583   5.026  0.00  0.00    +0.029 C 
BRANCH  20  22
ATOM     22  C   UNL     1       1.052   0.017   3.084  0.00  0.00    +0.234 C 
ATOM     23  O   UNL     1       1.312  -0.744   2.176  0.00  0.00    -0.274 OA
ATOM     24  N   UNL     1       0.454   1.197   2.825  0.00  0.00    -0.255 N 
ATOM     25  C   UNL     1       0.312   1.663   1.508  0.00  0.00    +0.059 A 
ATOM     26  C   UNL     1       1.226   1.323   0.528  0.00  0.00    +0.025 A 
ATOM     27  C   UNL     1       1.061   1.802  -0.760  0.00  0.00    +0.002 A 
ATOM     28  C   UNL     1      -0.013   2.617  -1.066  0.00  0.00    +0.002 A 
ATOM     29  C   UNL     1      -0.931   2.959  -0.091  0.00  0.00    +0.025 A 
ATOM     30  C   UNL     1      -0.775   2.483   1.201  0.00  0.00    +0.055 A 
ATOM     31  N   UNL     1      -1.696   2.813   2.202  0.00  0.00    -0.282 N 
ATOM     32  C   UNL     1      -1.410   2.593   3.499  0.00  0.00    +0.241 C 
ATOM     33  O   UNL     1      -2.241   2.846   4.346  0.00  0.00    -0.273 OA
ATOM     34  C   UNL     1      -0.072   2.037   3.912  0.00  0.00    +0.113 C 
ATOM     35  C   UNL     1      -0.236   1.192   5.177  0.00  0.00    +0.042 C 
ATOM     36  C   UNL     1       0.900   3.186   4.186  0.00  0.00    +0.042 C 
ATOM     37  H   UNL     1      -2.665   3.257   1.932  0.00  0.00    +0.155 HD
ENDBRANCH  20  22
ENDBRANCH   1  20
TORSDOF 6
