REMARK  Name = ZINC12536732
REMARK  6 active torsions:
REMARK  status: ('A' for Active; 'I' for Inactive)
REMARK    1  A    between atoms: C_1  and  C_2
REMARK    2  A    between atoms: C_2  and  C_4
REMARK    3  A    between atoms: C_2  and  O_7
REMARK    4  A    between atoms: O_7  and  C_8
REMARK    5  A    between atoms: C_8  and  C_10
REMARK    6  A    between atoms: C_15  and  N_16
REMARK                            x       y       z     vdW  Elec       q    Type
REMARK                         _______ _______ _______ _____ _____    ______ ____
ROOT
ATOM      1  C   UNL     1      -2.438   1.199  -2.861  0.00  0.00    +0.082 A 
ATOM      2  C   UNL     1      -2.218   2.462  -3.421  0.00  0.00    +0.032 A 
ATOM      3  C   UNL     1      -2.936   2.856  -4.529  0.00  0.00    +0.020 A 
ATOM      4  C   UNL     1      -3.876   2.007  -5.094  0.00  0.00    +0.032 A 
ATOM      5  C   UNL     1      -4.104   0.758  -4.554  0.00  0.00    +0.040 A 
ATOM      6  C   UNL     1      -3.386   0.340  -3.439  0.00  0.00    +0.053 A 
ATOM      7 BR   UNL     1      -5.388  -0.389  -5.334  0.00  0.00    -0.048 Br
ATOM      8 BR   UNL     1      -2.637   4.564  -5.284  0.00  0.00    -0.050 Br
ENDROOT
BRANCH   6   9
ATOM      9  N   UNL     1      -3.609  -0.919  -2.896  0.00  0.00    -0.356 N 
ATOM     10  H   UNL     1      -3.169  -1.177  -2.071  0.00  0.00    +0.142 HD
ATOM     11  H   UNL     1      -4.205  -1.541  -3.343  0.00  0.00    +0.142 HD
ENDBRANCH   6   9
BRANCH   1  12
ATOM     12  C   UNL     1      -1.674   0.771  -1.677  0.00  0.00    +0.342 C 
ATOM     13  O   UNL     1      -1.941  -0.281  -1.129  0.00  0.00    -0.245 OA
BRANCH  12  14
ATOM     14  O   UNL     1      -0.679   1.545  -1.201  0.00  0.00    -0.449 OA
BRANCH  14  16
ATOM     15  C   UNL     1      -0.660   1.573   1.234  0.00  0.00    +0.062 C 
ATOM     16  C   UNL     1       0.031   1.060  -0.030  0.00  0.00    +0.259 C 
BRANCH  16  17
ATOM     17  C   UNL     1       1.453   1.558  -0.064  0.00  0.00    +0.251 C 
ATOM     18  O   UNL     1       1.807   2.326  -0.933  0.00  0.00    -0.272 OA
ATOM     19  N   UNL     1       2.332   1.149   0.873  0.00  0.00    -0.326 N 
ATOM     20  H   UNL     1       2.049   0.535   1.569  0.00  0.00    +0.145 HD
ATOM     21  H   UNL     1       3.247   1.470   0.852  0.00  0.00    +0.145 HD
ENDBRANCH  16  17
ENDBRANCH  14  16
ENDBRANCH  12  14
ENDBRANCH   1  12
TORSDOF 5
