REMARK  Name = ZINC39560210
REMARK  6 active torsions:
REMARK  status: ('A' for Active; 'I' for Inactive)
REMARK    1  A    between atoms: C_1  and  C_2
REMARK    2  A    between atoms: C_13  and  C_18
REMARK    3  A    between atoms: C_13  and  C_19
REMARK    4  A    between atoms: C_14  and  C_17
REMARK    5  A    between atoms: C_19  and  C_20
REMARK    6  A    between atoms: C_23  and  C_28
REMARK                            x       y       z     vdW  Elec       q    Type
REMARK                         _______ _______ _______ _____ _____    ______ ____
ROOT
ATOM      1  C   UNL     1      -0.623   1.116   0.062  0.00  0.00    +0.044 C 
ATOM      2  C   UNL     1      -0.564  -0.388   0.142  0.00  0.00    -0.036 A 
ATOM      3  C   UNL     1      -0.658  -1.146  -1.004  0.00  0.00    +0.004 A 
ATOM      4  C   UNL     1      -0.604  -2.530  -0.934  0.00  0.00    +0.004 A 
ATOM      5  C   UNL     1      -0.456  -3.167   0.281  0.00  0.00    +0.047 A 
ATOM      6  C   UNL     1      -0.360  -2.421   1.448  0.00  0.00    +0.143 A 
ATOM      7  C   UNL     1      -0.407  -1.020   1.376  0.00  0.00    +0.062 A 
ATOM      8  C   UNL     1      -0.294  -0.235   2.619  0.00  0.00    +0.142 A 
ATOM      9  C   UNL     1      -0.132  -0.927   3.787  0.00  0.00    +0.089 A 
ATOM     10  C   UNL     1      -0.095  -2.326   3.782  0.00  0.00    +0.345 A 
ATOM     11  O   UNL     1       0.043  -2.920   4.837  0.00  0.00    -0.245 OA
ATOM     12  O   UNL     1      -0.217  -3.032   2.645  0.00  0.00    -0.422 OA
ATOM     13  C   UNL     1      -0.014   0.094   4.901  0.00  0.00    +0.043 C 
ATOM     14  C   UNL     1       0.251   1.397   4.108  0.00  0.00    +0.181 C 
ATOM     15  O   UNL     1      -0.330   1.101   2.825  0.00  0.00    -0.487 OA
ATOM     16  C   UNL     1       1.752   1.662   3.982  0.00  0.00    +0.053 C 
ATOM     17  C   UNL     1      -1.317   0.192   5.695  0.00  0.00    +0.020 C 
ENDROOT
BRANCH  13  18
ATOM     18  C   UNL     1       1.163  -0.234   5.822  0.00  0.00    +0.060 C 
BRANCH  18  19
ATOM     19  C   UNL     1       1.248   0.813   6.934  0.00  0.00    +0.178 C 
ATOM     20  C   UNL     1       2.451   0.523   7.872  0.00  0.00    +0.059 C 
ATOM     21  C   UNL     1       1.952   1.172   9.189  0.00  0.00    +0.098 C 
ATOM     22  C   UNL     1       0.450   1.275   9.000  0.00  0.00    +0.310 C 
ATOM     23  O   UNL     1      -0.322   1.785   9.777  0.00  0.00    -0.251 OA
ATOM     24  O   UNL     1       0.115   0.710   7.822  0.00  0.00    -0.461 OA
ATOM     25  C   UNL     1       2.285   0.280  10.386  0.00  0.00    +0.019 C 
ENDBRANCH  18  19
ENDBRANCH  13  18
TORSDOF 2
