REMARK  Name = ZINC09396529
REMARK  8 active torsions:
REMARK  status: ('A' for Active; 'I' for Inactive)
REMARK    1  A    between atoms: C_1  and  C_2
REMARK    2  A    between atoms: C_2  and  C_4
REMARK    3  A    between atoms: C_2  and  N_61
REMARK    4  A    between atoms: C_7  and  S_16
REMARK    5  A    between atoms: N_8  and  C_9
REMARK    6  A    between atoms: S_16  and  C_17
REMARK    7  A    between atoms: C_17  and  C_19
REMARK    8  A    between atoms: C_17  and  C_25
REMARK                            x       y       z     vdW  Elec       q    Type
REMARK                         _______ _______ _______ _____ _____    ______ ____
ROOT
ATOM      1  C   UNL     1      -2.471  -6.707  -1.011  0.00  0.00    +0.125 A 
ATOM      2  N   UNL     1      -1.315  -6.400  -0.496  0.00  0.00    -0.135 NA
ATOM      3  N   UNL     1      -1.227  -5.129  -0.332  0.00  0.00    -0.122 NA
ATOM      4  C   UNL     1      -2.333  -4.548  -0.737  0.00  0.00    +0.197 A 
ATOM      5  N   UNL     1      -3.165  -5.539  -1.179  0.00  0.00    -0.275 N 
ENDROOT
BRANCH   5   6
ATOM      6  C   UNL     1      -4.460  -5.389  -1.700  0.00  0.00    +0.050 A 
ATOM      7  C   UNL     1      -5.548  -5.921  -1.022  0.00  0.00    +0.029 A 
ATOM      8  C   UNL     1      -6.822  -5.767  -1.532  0.00  0.00    +0.040 A 
ATOM      9  C   UNL     1      -7.013  -5.093  -2.727  0.00  0.00    +0.124 A 
ATOM     10  C   UNL     1      -5.928  -4.566  -3.408  0.00  0.00    +0.040 A 
ATOM     11  C   UNL     1      -4.653  -4.713  -2.897  0.00  0.00    +0.029 A 
ATOM     12  F   UNL     1      -8.259  -4.948  -3.228  0.00  0.00    -0.205 F 
ENDBRANCH   5   6
BRANCH   1  14
ATOM     13  C   UNL     1      -3.335  -8.832  -0.069  0.00  0.00    -0.005 C 
ATOM     14  C   UNL     1      -2.957  -8.092  -1.354  0.00  0.00    -0.002 C 
BRANCH  14  20
ATOM     15  C   UNL     1      -1.433  -8.095  -3.235  0.00  0.00    -0.078 C 
ATOM     16  C   UNL     1      -0.230  -8.815  -3.847  0.00  0.00    -0.019 C 
ATOM     17  C   UNL     1      -0.635 -10.241  -4.229  0.00  0.00    -0.004 C 
ATOM     18  C   UNL     1      -1.154 -10.967  -2.985  0.00  0.00    -0.019 C 
ATOM     19  C   UNL     1      -2.330 -10.185  -2.397  0.00  0.00    -0.078 C 
ATOM     20  N   UNL     1      -1.869  -8.830  -2.028  0.00  0.00    +0.386 N 
ATOM     21  H   UNL     1      -1.074  -8.913  -1.384  0.00  0.00    -0.081 HD
ENDBRANCH  14  20
ENDBRANCH   1  14
BRANCH   4  22
ATOM     22  S   UNL     1      -2.680  -2.821  -0.709  0.00  0.00    -0.068 S 
BRANCH  22  23
ATOM     23  C   UNL     1      -1.135  -2.201   0.001  0.00  0.00    +0.170 C 
BRANCH  23  24
ATOM     24  C   UNL     1      -1.156  -0.694   0.009  0.00  0.00    +0.238 C 
ATOM     25  O   UNL     1      -2.214  -0.102   0.023  0.00  0.00    -0.274 OA
ATOM     26  N   UNL     1       0.002  -0.004   0.002  0.00  0.00    -0.239 N 
ATOM     27  C   UNL     1      -0.016   1.344   0.009  0.00  0.00    +0.303 C 
ATOM     28  O   UNL     1      -1.077   1.937   0.018  0.00  0.00    -0.253 OA
ATOM     29  N   UNL     1       1.142   2.033   0.002  0.00  0.00    -0.313 N 
ATOM     30  H   UNL     1       0.849  -0.478  -0.009  0.00  0.00    +0.159 HD
ATOM     31  H   UNL     1       1.988   1.560  -0.009  0.00  0.00    +0.146 HD
ATOM     32  H   UNL     1       1.129   3.003   0.007  0.00  0.00    +0.146 HD
ENDBRANCH  23  24
BRANCH  23  33
ATOM     33  C   UNL     1      -0.991  -2.709   1.413  0.00  0.00    -0.025 A 
ATOM     34  C   UNL     1      -1.942  -2.388   2.363  0.00  0.00    +0.005 A 
ATOM     35  C   UNL     1      -1.812  -2.858   3.657  0.00  0.00    +0.000 A 
ATOM     36  C   UNL     1      -0.726  -3.640   4.002  0.00  0.00    +0.000 A 
ATOM     37  C   UNL     1       0.227  -3.957   3.053  0.00  0.00    +0.000 A 
ATOM     38  C   UNL     1       0.095  -3.491   1.758  0.00  0.00    +0.005 A 
ENDBRANCH  23  33
ENDBRANCH  22  23
ENDBRANCH   4  22
TORSDOF 7
