REMARK  Name = ZINC12428446
REMARK  5 active torsions:
REMARK  status: ('A' for Active; 'I' for Inactive)
REMARK    1  A    between atoms: C_3  and  N_9
REMARK    2  A    between atoms: C_12  and  C_19
REMARK    3  A    between atoms: C_14  and  C_17
REMARK    4  A    between atoms: C_15  and  N_16
REMARK    5  A    between atoms: C_22  and  N_24
REMARK                            x       y       z     vdW  Elec       q    Type
REMARK                         _______ _______ _______ _____ _____    ______ ____
ROOT
ATOM      1  N   UNL     1      -3.026   7.265   0.021  0.00  0.00    -0.257 N 
ATOM      2  C   UNL     1      -3.495   6.794   1.219  0.00  0.00    +0.025 C 
ATOM      3  C   UNL     1      -4.155   5.618   1.285  0.00  0.00    +0.026 C 
ATOM      4  C   UNL     1      -4.378   4.785   0.048  0.00  0.00    +0.104 C 
ATOM      5  C   UNL     1      -4.196   5.602  -1.196  0.00  0.00    +0.077 C 
ATOM      6  C   UNL     1      -3.536   6.789  -1.166  0.00  0.00    +0.107 C 
ATOM      7  C   UNL     1      -4.655   5.136   2.507  0.00  0.00    +0.162 C 
ATOM      8  O   UNL     1      -5.235   4.068   2.534  0.00  0.00    -0.292 OA
ATOM      9  C   UNL     1      -4.484   5.915   3.782  0.00  0.00    +0.080 C 
ATOM     10  C   UNL     1      -4.405   7.408   3.446  0.00  0.00    +0.014 C 
ATOM     11  C   UNL     1      -3.258   7.623   2.457  0.00  0.00    +0.052 C 
ENDROOT
BRANCH   1  14
ATOM     12  C   UNL     1       0.305   8.824  -0.034  0.00  0.00    +0.017 A 
ATOM     13  C   UNL     1      -0.685   7.861  -0.012  0.00  0.00    +0.028 A 
ATOM     14  C   UNL     1      -2.020   8.240   0.003  0.00  0.00    +0.075 A 
ATOM     15  C   UNL     1      -2.357   9.589   0.007  0.00  0.00    +0.146 A 
ATOM     16  C   UNL     1      -1.361  10.549  -0.010  0.00  0.00    +0.055 A 
ATOM     17  C   UNL     1      -0.031  10.166  -0.030  0.00  0.00    +0.021 A 
ATOM     18 BR   UNL     1       1.328  11.480  -0.053  0.00  0.00    -0.050 Br
ATOM     19  F   UNL     1      -3.655   9.963   0.028  0.00  0.00    -0.203 F 
ENDBRANCH   1  14
BRANCH   4  20
ATOM     20  C   UNL     1      -3.395   3.643   0.038  0.00  0.00    +0.005 A 
ATOM     21  C   UNL     1      -3.636   2.309   0.032  0.00  0.00    +0.014 A 
ATOM     22  C   UNL     1      -2.565   1.434   0.017  0.00  0.00    +0.041 A 
ATOM     23  C   UNL     1      -1.306   1.937   0.019  0.00  0.00    +0.164 A 
ATOM     24  S   UNL     1      -1.611   3.696   0.029  0.00  0.00    -0.068 S 
BRANCH  23  25
ATOM     25  N   UNL     1      -0.014   1.214   0.009  0.00  0.00    +0.063 N 
ATOM     26  O   UNL     1       0.002  -0.004   0.002  0.00  0.00    -0.126 OA
ATOM     27  O   UNL     1       1.032   1.837   0.002  0.00  0.00    -0.126 OA
ENDBRANCH  23  25
ENDBRANCH   4  20
BRANCH   6  28
ATOM     28  N   UNL     1      -3.377   7.516  -2.322  0.00  0.00    -0.345 N 
ATOM     29  H   UNL     1      -2.905   8.363  -2.301  0.00  0.00    +0.144 HD
ATOM     30  H   UNL     1      -3.736   7.181  -3.158  0.00  0.00    +0.144 HD
ENDBRANCH   6  28
BRANCH   5  31
ATOM     31  C   UNL     1      -4.727   5.124  -2.437  0.00  0.00    +0.099 C 
ATOM     32  N   UNL     1      -5.149   4.744  -3.421  0.00  0.00    -0.191 NA
ENDBRANCH   5  31
TORSDOF 5
