REMARK  Name = ZINC08854813
REMARK  4 active torsions:
REMARK  status: ('A' for Active; 'I' for Inactive)
REMARK    1  A    between atoms: C_6  and  C_7
REMARK    2  A    between atoms: C_7  and  O_27
REMARK    3  A    between atoms: C_12  and  N_48
REMARK    4  A    between atoms: N_17  and  C_20
REMARK                            x       y       z     vdW  Elec       q    Type
REMARK                         _______ _______ _______ _____ _____    ______ ____
ROOT
ATOM      1  C   UNL     1      -1.452   1.973  -0.012  0.00  0.00    +0.088 C 
ATOM      2  C   UNL     1      -1.753   2.383  -1.456  0.00  0.00    +0.021 C 
ATOM      3  C   UNL     1      -3.042   3.208  -1.488  0.00  0.00    -0.075 C 
ATOM      4  C   UNL     1      -2.639   4.031   0.755  0.00  0.00    -0.075 C 
ATOM      5  C   UNL     1      -1.339   3.230   0.855  0.00  0.00    +0.021 C 
ATOM      6  N   UNL     1      -2.859   4.416  -0.655  0.00  0.00    +0.388 N 
ATOM      7  H   UNL     1      -2.037   4.931  -0.991  0.00  0.00    -0.081 HD
ENDROOT
BRANCH   1  13
ATOM      8  C   UNL     1       1.040   1.887   0.210  0.00  0.00    +0.007 A 
ATOM      9  C   UNL     1       2.232   1.190   0.247  0.00  0.00    +0.015 A 
ATOM     10  C   UNL     1       2.232  -0.187   0.108  0.00  0.00    +0.018 A 
ATOM     11  C   UNL     1       1.039  -0.864  -0.068  0.00  0.00    +0.015 A 
ATOM     12  C   UNL     1      -0.153  -0.165  -0.105  0.00  0.00    +0.007 A 
ATOM     13  C   UNL     1      -0.152   1.210   0.034  0.00  0.00    -0.016 A 
ATOM     14 BR   UNL     1       3.863  -1.142   0.158  0.00  0.00    -0.050 Br
ENDBRANCH   1  13
BRANCH   6  15
ATOM     15  C   UNL     1      -4.048   5.286  -0.761  0.00  0.00    +0.029 C 
ATOM     16  C   UNL     1      -5.302   4.615  -0.164  0.00  0.00    +0.090 C 
ATOM     17  C   UNL     1      -5.696   5.541   0.966  0.00  0.00    +0.225 C 
ATOM     18  O   UNL     1      -6.643   5.382   1.706  0.00  0.00    -0.275 OA
ATOM     19  N   UNL     1      -4.832   6.563   1.020  0.00  0.00    -0.212 N 
ATOM     20  C   UNL     1      -3.865   6.521   0.095  0.00  0.00    +0.213 C 
ATOM     21  O   UNL     1      -2.982   7.341  -0.035  0.00  0.00    -0.277 OA
BRANCH  19  22
ATOM     22  C   UNL     1      -4.933   7.593   1.967  0.00  0.00    +0.044 A 
ATOM     23  C   UNL     1      -4.726   7.322   3.312  0.00  0.00    +0.027 A 
ATOM     24  C   UNL     1      -4.821   8.338   4.243  0.00  0.00    +0.040 A 
ATOM     25  C   UNL     1      -5.133   9.625   3.835  0.00  0.00    +0.124 A 
ATOM     26  C   UNL     1      -5.346   9.895   2.494  0.00  0.00    +0.040 A 
ATOM     27  C   UNL     1      -5.247   8.882   1.560  0.00  0.00    +0.027 A 
ATOM     28  F   UNL     1      -5.230  10.617   4.747  0.00  0.00    -0.205 F 
ENDBRANCH  19  22
ENDBRANCH   6  15
BRANCH   1  29
ATOM     29  O   UNL     1      -2.508   1.146   0.481  0.00  0.00    -0.384 OA
ATOM     30  H   UNL     1      -2.638   0.331  -0.022  0.00  0.00    +0.211 HD
ENDBRANCH   1  29
TORSDOF 4
