REMARK  Name = ZINC22366075
REMARK  3 active torsions:
REMARK  status: ('A' for Active; 'I' for Inactive)
REMARK    1  A    between atoms: C_10  and  C_12
REMARK    2  A    between atoms: C_12  and  S_13
REMARK    3  A    between atoms: S_13  and  C_14
REMARK                            x       y       z     vdW  Elec       q    Type
REMARK                         _______ _______ _______ _____ _____    ______ ____
ROOT
ATOM      1  C   UNL     1      -0.017   1.395   0.010  0.00  0.00    +0.030 A 
ATOM      2  C   UNL     1       1.161   2.084   0.002  0.00  0.00    +0.020 A 
ATOM      3  C   UNL     1       2.382   1.413  -0.013  0.00  0.00    +0.032 A 
ATOM      4  C   UNL     1       2.434   0.050  -0.021  0.00  0.00    +0.045 A 
ATOM      5  C   UNL     1       1.242  -0.689  -0.014  0.00  0.00    +0.092 A 
ATOM      6  C   UNL     1       0.002  -0.004   0.002  0.00  0.00    +0.069 A 
ATOM      7  C   UNL     1      -1.185  -0.772   0.009  0.00  0.00    +0.281 A 
ATOM      8  O   UNL     1      -2.399  -0.175   0.023  0.00  0.00    -0.265 OA
ATOM      9  N   UNL     1      -1.077  -2.092   0.000  0.00  0.00    -0.193 NA
ATOM     10  C   UNL     1       0.104  -2.690  -0.014  0.00  0.00    +0.144 A 
ATOM     11  N   UNL     1       1.237  -2.030  -0.022  0.00  0.00    -0.230 NA
ATOM     12 BR   UNL     1       4.104  -0.838  -0.043  0.00  0.00    -0.048 Br
ATOM     13 BR   UNL     1       1.137   3.975   0.012  0.00  0.00    -0.050 Br
ENDROOT
BRANCH  10  14
ATOM     14  C   UNL     1       0.148  -4.196  -0.023  0.00  0.00    +0.153 C 
BRANCH  14  15
ATOM     15  S   UNL     1       0.150  -4.791  -1.736  0.00  0.00    -0.085 S 
BRANCH  15  16
ATOM     16  C   UNL     1       0.203  -6.545  -1.578  0.00  0.00    +0.123 C 
ATOM     17  N   UNL     1       0.231  -7.105  -0.369  0.00  0.00    -0.382 N 
ATOM     18  N   UNL     1       0.215  -7.313  -2.668  0.00  0.00    -0.340 N 
ATOM     19  H   UNL     1       0.260  -8.071  -0.281  0.00  0.00    +0.158 HD
ATOM     20  H   UNL     1       0.195  -6.905  -3.548  0.00  0.00    +0.144 HD
ATOM     21  H   UNL     1       0.244  -8.278  -2.581  0.00  0.00    +0.144 HD
ATOM     22  H   UNL     1       0.222  -6.546   0.424  0.00  0.00    +0.158 HD
ENDBRANCH  15  16
ENDBRANCH  14  15
ENDBRANCH  10  14
TORSDOF 3
