REMARK  Name = ZINC64006790
REMARK  4 active torsions:
REMARK  status: ('A' for Active; 'I' for Inactive)
REMARK    1  A    between atoms: C_1  and  C_2
REMARK    2  A    between atoms: C_7  and  C_8
REMARK    3  A    between atoms: C_23  and  C_25
REMARK    4  A    between atoms: N_35  and  C_37
REMARK                            x       y       z     vdW  Elec       q    Type
REMARK                         _______ _______ _______ _____ _____    ______ ____
ROOT
ATOM      1  C   UNL     1      -0.016  -0.202   2.609  0.00  0.00    +0.133 C 
ATOM      2  C   UNL     1      -1.474  -0.161   3.077  0.00  0.00    +0.131 C 
ATOM      3  C   UNL     1      -1.445   0.174   4.563  0.00  0.00    -0.035 C 
ATOM      4  C   UNL     1      -2.195   1.258   4.718  0.00  0.00    -0.001 A 
ATOM      5  C   UNL     1      -2.599   2.007   5.919  0.00  0.00    +0.010 A 
ATOM      6  C   UNL     1      -3.379   3.100   5.710  0.00  0.00    +0.001 A 
ATOM      7  C   UNL     1      -3.794   3.518   4.442  0.00  0.00    +0.002 A 
ATOM      8  C   UNL     1      -3.474   2.887   3.283  0.00  0.00    +0.026 A 
ATOM      9  C   UNL     1      -2.660   1.721   3.374  0.00  0.00    +0.043 A 
ATOM     10  N   UNL     1      -2.227   0.912   2.424  0.00  0.00    -0.375 N 
ATOM     11  C   UNL     1      -0.616  -0.607   5.553  0.00  0.00    +0.052 C 
ATOM     12  C   UNL     1       0.809  -0.683   4.976  0.00  0.00    +0.113 C 
ATOM     13  N   UNL     1       0.740  -1.038   3.554  0.00  0.00    -0.290 N 
ATOM     14  C   UNL     1       1.374  -2.141   3.110  0.00  0.00    +0.239 C 
ATOM     15  O   UNL     1       1.399  -2.389   1.923  0.00  0.00    -0.273 OA
ATOM     16  H   UNL     1      -2.369   1.004   1.469  0.00  0.00    +0.160 HD
ENDROOT
BRANCH  14  17
ATOM     17  C   UNL     1       2.052  -3.066   4.088  0.00  0.00    +0.189 C 
ATOM     18  C   UNL     1       3.477  -2.622   4.290  0.00  0.00    -0.008 A 
ATOM     19  C   UNL     1       3.820  -1.741   5.290  0.00  0.00    +0.006 A 
ATOM     20  C   UNL     1       5.140  -1.347   5.437  0.00  0.00    +0.000 A 
ATOM     21  C   UNL     1       6.117  -1.831   4.584  0.00  0.00    +0.001 A 
ATOM     22  C   UNL     1       5.785  -2.720   3.579  0.00  0.00    +0.013 A 
ATOM     23  C   UNL     1       4.462  -3.123   3.434  0.00  0.00    +0.043 A 
ATOM     24  C   UNL     1       4.051  -4.097   2.400  0.00  0.00    +0.260 C 
ATOM     25  O   UNL     1       4.811  -4.419   1.508  0.00  0.00    -0.269 OA
ATOM     26  N   UNL     1       2.808  -4.619   2.472  0.00  0.00    -0.235 N 
ATOM     27  N   UNL     1       2.023  -4.433   3.563  0.00  0.00    -0.222 NA
ATOM     28  C   UNL     1       2.296  -5.404   1.346  0.00  0.00    +0.153 C 
ATOM     29  H   UNL     1       2.244  -5.102   4.286  0.00  0.00    +0.146 HD
ENDBRANCH  14  17
BRANCH   1  36
ATOM     30  C   UNL     1       2.282   0.316   0.936  0.00  0.00    +0.044 C 
ATOM     31  C   UNL     1       1.159  -0.550   0.426  0.00  0.00    -0.045 A 
ATOM     32  C   UNL     1       1.232  -1.102  -0.839  0.00  0.00    +0.004 A 
ATOM     33  C   UNL     1       0.202  -1.897  -1.306  0.00  0.00    +0.000 A 
ATOM     34  C   UNL     1      -0.900  -2.140  -0.507  0.00  0.00    +0.000 A 
ATOM     35  C   UNL     1      -0.972  -1.589   0.758  0.00  0.00    +0.006 A 
ATOM     36  C   UNL     1       0.060  -0.798   1.227  0.00  0.00    -0.022 A 
ENDBRANCH   1  36
TORSDOF 2
