REMARK  Name = ZINC36266648
REMARK  5 active torsions:
REMARK  status: ('A' for Active; 'I' for Inactive)
REMARK    1  A    between atoms: C_2  and  S_8
REMARK    2  A    between atoms: S_8  and  N_11
REMARK    3  A    between atoms: N_11  and  C_12
REMARK    4  A    between atoms: C_12  and  C_13
REMARK    5  A    between atoms: C_13  and  N_19
REMARK                            x       y       z     vdW  Elec       q    Type
REMARK                         _______ _______ _______ _____ _____    ______ ____
ROOT
ATOM      1  N   UNL     1       1.895   4.274   1.440  0.00  0.00    -0.191 NA
ATOM      2  H   UNL     1       1.369   4.760   2.094  0.00  0.00    +0.148 HD
ENDROOT
BRANCH   1   3
ATOM      3  S   UNL     1       1.207   3.800   0.010  0.00  0.00    +0.060 S 
ATOM      4  O   UNL     1       2.098   4.200  -1.022  0.00  0.00    -0.153 OA
ATOM      5  O   UNL     1      -0.149   4.224   0.052  0.00  0.00    -0.153 OA
BRANCH   3   7
ATOM      6  C   UNL     1      -0.016   1.352   0.009  0.00  0.00    +0.052 A 
ATOM      7  C   UNL     1       1.184   2.038   0.002  0.00  0.00    +0.127 A 
ATOM      8  C   UNL     1       2.343   1.335  -0.013  0.00  0.00    +0.082 A 
ATOM      9  S   UNL     1       1.753  -0.350  -0.017  0.00  0.00    -0.073 S 
ATOM     10  C   UNL     1       0.002  -0.004   0.002  0.00  0.00    +0.058 A 
ATOM     11 BR   UNL     1      -1.451  -1.215   0.010  0.00  0.00    -0.042 Br
ATOM     12 BR   UNL     1       4.123   1.973  -0.027  0.00  0.00    -0.041 Br
ENDBRANCH   3   7
ENDBRANCH   1   3
BRANCH   1  13
ATOM     13  C   UNL     1       3.299   3.959   1.717  0.00  0.00    +0.093 C 
BRANCH  13  14
ATOM     14  C   UNL     1       3.789   4.805   2.894  0.00  0.00    -0.057 C 
ATOM     15  C   UNL     1       3.659   6.289   2.544  0.00  0.00    -0.012 C 
ATOM     16  C   UNL     1       4.505   6.597   1.307  0.00  0.00    -0.001 C 
ATOM     17  C   UNL     1       5.971   6.268   1.597  0.00  0.00    -0.000 C 
ATOM     18  C   UNL     1       6.101   4.784   1.946  0.00  0.00    -0.001 C 
ATOM     19  C   UNL     1       5.255   4.476   3.183  0.00  0.00    -0.012 C 
BRANCH  14  20
ATOM     20  N   UNL     1       2.977   4.509   4.082  0.00  0.00    +0.383 N 
ATOM     21  H   UNL     1       3.062   3.530   4.312  0.00  0.00    -0.089 HD
ATOM     22  H   UNL     1       3.300   5.067   4.858  0.00  0.00    -0.089 HD
ATOM     23  H   UNL     1       2.010   4.726   3.891  0.00  0.00    -0.089 HD
ENDBRANCH  14  20
ENDBRANCH  13  14
ENDBRANCH   1  13
TORSDOF 5
