REMARK  Name = ZINC60332798
REMARK  11 active torsions:
REMARK  status: ('A' for Active; 'I' for Inactive)
REMARK    1  A    between atoms: C_1  and  C_2
REMARK    2  A    between atoms: C_2  and  C_4
REMARK    3  A    between atoms: C_2  and  N_16
REMARK    4  A    between atoms: C_7  and  O_12
REMARK    5  A    between atoms: C_8  and  O_10
REMARK    6  A    between atoms: O_10  and  C_11
REMARK    7  A    between atoms: O_12  and  C_13
REMARK    8  A    between atoms: C_13  and  C_14
REMARK    9  A    between atoms: C_14  and  O_15
REMARK   10  A    between atoms: N_16  and  C_17
REMARK   11  A    between atoms: C_17  and  C_18
REMARK                            x       y       z     vdW  Elec       q    Type
REMARK                         _______ _______ _______ _____ _____    ______ ____
ROOT
ATOM      1  N   UNL     1       0.713  -0.491   1.192  0.00  0.00    +0.386 N 
ATOM      2  H   UNL     1       0.290  -0.099   2.020  0.00  0.00    -0.085 HD
ATOM      3  H   UNL     1       0.655  -1.497   1.230  0.00  0.00    -0.085 HD
ENDROOT
BRANCH   1   5
ATOM      4  C   UNL     1      -0.019   1.526   0.010  0.00  0.00    -0.009 C 
ATOM      5  C   UNL     1       0.002  -0.004   0.002  0.00  0.00    -0.044 C 
BRANCH   5   6
ATOM      6  C   UNL     1      -1.412  -0.526   0.013  0.00  0.00    -0.058 A 
ATOM      7  C   UNL     1      -2.122  -0.570   1.198  0.00  0.00    +0.006 A 
ATOM      8  C   UNL     1      -3.419  -1.048   1.213  0.00  0.00    +0.049 A 
ATOM      9  C   UNL     1      -4.011  -1.483   0.038  0.00  0.00    +0.162 A 
ATOM     10  C   UNL     1      -3.296  -1.438  -1.155  0.00  0.00    +0.162 A 
ATOM     11  C   UNL     1      -1.998  -0.953  -1.164  0.00  0.00    +0.051 A 
BRANCH  10  12
ATOM     12  O   UNL     1      -3.873  -1.863  -2.311  0.00  0.00    -0.491 OA
ATOM     13  C   UNL     1      -3.080  -1.788  -3.497  0.00  0.00    +0.277 C 
ENDBRANCH  10  12
BRANCH   9  14
ATOM     14  O   UNL     1      -5.286  -1.954   0.051  0.00  0.00    -0.486 OA
BRANCH  14  15
ATOM     15  C   UNL     1      -5.958  -1.971   1.313  0.00  0.00    +0.257 C 
BRANCH  15  16
ATOM     16  C   UNL     1      -7.371  -2.529   1.130  0.00  0.00    +0.196 C 
BRANCH  16  17
ATOM     17  O   UNL     1      -7.295  -3.896   0.723  0.00  0.00    -0.392 OA
ATOM     18  H   UNL     1      -8.156  -4.315   0.588  0.00  0.00    +0.210 HD
ENDBRANCH  16  17
ENDBRANCH  15  16
ENDBRANCH  14  15
ENDBRANCH   9  14
ENDBRANCH   5   6
ENDBRANCH   1   5
BRANCH   1  19
ATOM     19  C   UNL     1       2.122  -0.083   1.122  0.00  0.00    -0.047 C 
BRANCH  19  20
ATOM     20  C   UNL     1       2.851  -0.582   2.343  0.00  0.00    -0.049 C 
ATOM     21  C   UNL     1       3.516  -1.732   2.293  0.00  0.00    +0.012 C 
ATOM     22  C   UNL     1       4.188  -2.207   3.521  0.00  0.00    +0.020 A 
ATOM     23  C   UNL     1       5.126  -3.233   3.483  0.00  0.00    +0.031 A 
ATOM     24  C   UNL     1       5.742  -3.638   4.653  0.00  0.00    +0.043 A 
ATOM     25  C   UNL     1       5.428  -3.026   5.856  0.00  0.00    +0.043 A 
ATOM     26  C   UNL     1       4.491  -2.008   5.902  0.00  0.00    +0.084 A 
ATOM     27  C   UNL     1       3.863  -1.598   4.740  0.00  0.00    +0.146 A 
ATOM     28  O   UNL     1       2.913  -0.627   4.757  0.00  0.00    -0.486 OA
ATOM     29  C   UNL     1       2.829   0.227   3.613  0.00  0.00    +0.258 C 
ATOM     30 CL   UNL     1       4.105  -1.249   7.415  0.00  0.00    -0.080 Cl
ATOM     31 CL   UNL     1       6.912  -4.919   4.615  0.00  0.00    -0.083 Cl
ENDBRANCH  19  20
ENDBRANCH   1  19
TORSDOF 9
