REMARK  Name = ZINC01718924
REMARK  9 active torsions:
REMARK  status: ('A' for Active; 'I' for Inactive)
REMARK    1  A    between atoms: C_1  and  N_2
REMARK    2  A    between atoms: C_5  and  C_6
REMARK    3  A    between atoms: C_9  and  N_12
REMARK    4  A    between atoms: C_13  and  C_15
REMARK    5  A    between atoms: C_18  and  C_24
REMARK    6  A    between atoms: C_19  and  N_21
REMARK    7  A    between atoms: N_26  and  C_27
REMARK    8  A    between atoms: C_30  and  C_33
REMARK    9  A    between atoms: N_36  and  C_37
REMARK                            x       y       z     vdW  Elec       q    Type
REMARK                         _______ _______ _______ _____ _____    ______ ____
ROOT
ATOM      1  C   UNL     1      -5.017   4.717  -0.919  0.00  0.00    +0.039 A 
ATOM      2  C   UNL     1      -3.973   5.639  -1.010  0.00  0.00    +0.014 A 
ATOM      3  C   UNL     1      -2.668   5.218  -0.881  0.00  0.00    +0.016 A 
ATOM      4  C   UNL     1      -2.389   3.868  -0.659  0.00  0.00    +0.067 A 
ATOM      5  C   UNL     1      -3.432   2.945  -0.573  0.00  0.00    +0.139 A 
ATOM      6  C   UNL     1      -4.738   3.368  -0.697  0.00  0.00    +0.046 A 
ENDROOT
BRANCH   1   8
ATOM      7  N   UNL     1      -6.688   6.473  -1.274  0.00  0.00    -0.282 N 
ATOM      8  C   UNL     1      -6.419   5.170  -1.059  0.00  0.00    +0.248 C 
ATOM      9  O   UNL     1      -7.327   4.367  -0.979  0.00  0.00    -0.270 OA
ATOM     10  H   UNL     1      -5.962   7.104  -1.396  0.00  0.00    +0.155 HD
BRANCH   7  14
ATOM     11  C   UNL     1     -10.638   7.789  -1.415  0.00  0.00    +0.013 A 
ATOM     12  C   UNL     1      -9.631   8.645  -0.966  0.00  0.00    +0.013 A 
ATOM     13  C   UNL     1      -8.326   8.207  -0.920  0.00  0.00    +0.024 A 
ATOM     14  C   UNL     1      -8.010   6.913  -1.321  0.00  0.00    +0.034 A 
ATOM     15  C   UNL     1      -9.011   6.060  -1.774  0.00  0.00    +0.024 A 
ATOM     16  C   UNL     1     -10.318   6.490  -1.816  0.00  0.00    +0.013 A 
BRANCH  11  21
ATOM     17  C   UNL     1     -13.032   6.028  -0.808  0.00  0.00    +0.130 C 
ATOM     18  N   UNL     1     -13.107   7.441  -1.187  0.00  0.00    -0.318 N 
ATOM     19  C   UNL     1     -14.342   8.229  -1.333  0.00  0.00    +0.127 C 
ATOM     20  C   UNL     1     -13.826   9.624  -1.738  0.00  0.00    +0.133 C 
ATOM     21  C   UNL     1     -12.040   8.256  -1.465  0.00  0.00    +0.102 C 
ATOM     22  N   UNL     1     -12.363   9.473  -1.771  0.00  0.00    -0.371 N 
ATOM     23  H   UNL     1     -11.697  10.219  -2.002  0.00  0.00    +0.161 HD
ENDBRANCH  11  21
ENDBRANCH   7  14
ENDBRANCH   1   8
BRANCH   4  24
ATOM     24  C   UNL     1      -0.987   3.415  -0.521  0.00  0.00    +0.250 C 
ATOM     25  O   UNL     1      -0.635   2.825   0.482  0.00  0.00    -0.270 OA
ATOM     26  N   UNL     1      -0.102   3.651  -1.510  0.00  0.00    -0.281 N 
ATOM     27  H   UNL     1      -0.398   4.060  -2.338  0.00  0.00    +0.155 HD
BRANCH  26  28
ATOM     28  C   UNL     1       1.240   3.308  -1.341  0.00  0.00    +0.034 A 
ATOM     29  C   UNL     1       1.797   3.290  -0.067  0.00  0.00    +0.024 A 
ATOM     30  C   UNL     1       3.120   2.946   0.102  0.00  0.00    +0.013 A 
ATOM     31  C   UNL     1       3.904   2.626  -1.008  0.00  0.00    +0.013 A 
ATOM     32  C   UNL     1       3.344   2.650  -2.286  0.00  0.00    +0.013 A 
ATOM     33  C   UNL     1       2.018   2.989  -2.449  0.00  0.00    +0.024 A 
BRANCH  31  34
ATOM     34  C   UNL     1       5.327   2.263  -0.830  0.00  0.00    +0.102 C 
ATOM     35  C   UNL     1       7.558   2.119  -1.207  0.00  0.00    +0.133 C 
ATOM     36  C   UNL     1       7.233   1.339   0.082  0.00  0.00    +0.127 C 
ATOM     37  N   UNL     1       5.776   1.503   0.220  0.00  0.00    -0.318 N 
ATOM     38  C   UNL     1       4.948   0.949   1.294  0.00  0.00    +0.130 C 
ATOM     39  N   UNL     1       6.253   2.632  -1.657  0.00  0.00    -0.371 N 
ATOM     40  H   UNL     1       6.101   3.198  -2.499  0.00  0.00    +0.161 HD
ENDBRANCH  31  34
ENDBRANCH  26  28
ENDBRANCH   4  24
BRANCH   5  41
ATOM     41  N   UNL     1      -3.137   1.513  -0.343  0.00  0.00    +0.057 N 
ATOM     42  O   UNL     1      -4.042   0.699  -0.329  0.00  0.00    -0.126 OA
ATOM     43  O   UNL     1      -1.988   1.149  -0.168  0.00  0.00    -0.126 OA
ENDBRANCH   5  41
TORSDOF 7
