REMARK  Name = ZINC65968311
REMARK  5 active torsions:
REMARK  status: ('A' for Active; 'I' for Inactive)
REMARK    1  A    between atoms: C_3  and  N_11
REMARK    2  A    between atoms: C_5  and  S_7
REMARK    3  A    between atoms: S_7  and  N_10
REMARK    4  A    between atoms: C_12  and  C_14
REMARK    5  A    between atoms: C_14  and  N_15
REMARK                            x       y       z     vdW  Elec       q    Type
REMARK                         _______ _______ _______ _____ _____    ______ ____
ROOT
ATOM      1  N   UNL     1       3.584   2.123  -0.021  0.00  0.00    -0.287 N 
ATOM      2  C   UNL     1       3.569   3.468  -0.116  0.00  0.00    +0.201 C 
ATOM      3  O   UNL     1       2.513   4.065  -0.103  0.00  0.00    -0.278 OA
ATOM      4  H   UNL     1       4.429   1.651   0.036  0.00  0.00    +0.155 HD
ENDROOT
BRANCH   1   7
ATOM      5  C   UNL     1       1.114  -0.539  -0.595  0.00  0.00    +0.004 A 
ATOM      6  C   UNL     1       2.303   0.163  -0.613  0.00  0.00    +0.023 A 
ATOM      7  C   UNL     1       2.381   1.409  -0.005  0.00  0.00    +0.035 A 
ATOM      8  C   UNL     1       1.262   1.946   0.619  0.00  0.00    +0.051 A 
ATOM      9  C   UNL     1       0.076   1.238   0.633  0.00  0.00    +0.107 A 
ATOM     10  C   UNL     1       0.002  -0.003   0.027  0.00  0.00    +0.028 A 
BRANCH   9  11
ATOM     11  S   UNL     1      -1.345   1.917   1.425  0.00  0.00    +0.056 S 
ATOM     12  O   UNL     1      -2.179   0.821   1.773  0.00  0.00    -0.153 OA
ATOM     13  O   UNL     1      -0.867   2.847   2.388  0.00  0.00    -0.153 OA
BRANCH  11  14
ATOM     14  N   UNL     1      -2.167   2.795   0.286  0.00  0.00    -0.204 NA
ATOM     15  H   UNL     1      -1.828   2.851  -0.621  0.00  0.00    +0.144 HD
ATOM     16  H   UNL     1      -2.987   3.253   0.527  0.00  0.00    +0.144 HD
ENDBRANCH  11  14
ENDBRANCH   9  11
ENDBRANCH   1   7
BRANCH   2  17
ATOM     17  C   UNL     1       4.863   4.229  -0.238  0.00  0.00    +0.019 C 
BRANCH  17  18
ATOM     18  N   UNL     1       4.579   5.668  -0.326  0.00  0.00    +0.387 N 
ATOM     19  C   UNL     1       3.743   5.892  -1.470  0.00  0.00    -0.074 C 
ATOM     20  C   UNL     1       3.754   7.282  -2.037  0.00  0.00    -0.027 C 
ATOM     21  C   UNL     1       4.792   7.390  -3.152  0.00  0.00    +0.005 C 
ATOM     22  C   UNL     1       6.178   7.564  -2.542  0.00  0.00    -0.012 C 
ATOM     23  C   UNL     1       6.217   8.885  -1.770  0.00  0.00    +0.007 C 
ATOM     24  C   UNL     1       5.250   8.772  -0.590  0.00  0.00    -0.012 C 
ATOM     25  C   UNL     1       3.854   8.404  -1.045  0.00  0.00    +0.005 C 
ATOM     26  C   UNL     1       5.790   7.715   0.377  0.00  0.00    -0.012 C 
ATOM     27  C   UNL     1       5.828   6.374  -0.323  0.00  0.00    -0.067 C 
ATOM     28  C   UNL     1       6.561   6.401  -1.643  0.00  0.00    -0.012 C 
ATOM     29  H   UNL     1       4.061   5.937   0.498  0.00  0.00    -0.081 HD
ENDBRANCH  17  18
ENDBRANCH   2  17
TORSDOF 5
