REMARK  Name = ZINC63818502
REMARK  9 active torsions:
REMARK  status: ('A' for Active; 'I' for Inactive)
REMARK    1  A    between atoms: C_7  and  C_10
REMARK    2  A    between atoms: C_10  and  C_11
REMARK    3  A    between atoms: C_11  and  N_12
REMARK    4  A    between atoms: C_13  and  C_15
REMARK    5  A    between atoms: C_18  and  C_21
REMARK    6  A    between atoms: C_21  and  O_22
REMARK    7  A    between atoms: O_22  and  C_23
REMARK    8  A    between atoms: C_26  and  C_29
REMARK    9  A    between atoms: C_29  and  C_30
REMARK                            x       y       z     vdW  Elec       q    Type
REMARK                         _______ _______ _______ _____ _____    ______ ____
ROOT
ATOM      1  C   UNL     1      -1.752  -6.557  -2.622  0.00  0.00    +0.329 C 
ATOM      2  N   UNL     1      -1.100  -7.729  -2.024  0.00  0.00    -0.336 N 
ATOM      3  C   UNL     1      -1.766  -8.088  -0.982  0.00  0.00    +0.141 C 
ATOM      4  N   UNL     1      -2.845  -7.280  -0.769  0.00  0.00    -0.248 N 
ATOM      5  O   UNL     1      -2.887  -6.287  -1.784  0.00  0.00    -0.239 OA
ATOM      6  H   UNL     1      -3.481  -7.370  -0.042  0.00  0.00    +0.196 HD
ATOM      7  H   UNL     1      -0.299  -8.163  -2.359  0.00  0.00    +0.164 HD
ENDROOT
BRANCH   1   9
ATOM      8  N   UNL     1      -0.458  -4.798  -1.460  0.00  0.00    -0.311 N 
ATOM      9  C   UNL     1      -0.811  -5.380  -2.623  0.00  0.00    +0.265 C 
ATOM     10  O   UNL     1      -0.371  -4.957  -3.671  0.00  0.00    -0.271 OA
ATOM     11  H   UNL     1      -0.810  -5.136  -0.622  0.00  0.00    +0.149 HD
BRANCH   8  12
ATOM     12  C   UNL     1       0.457  -3.653  -1.462  0.00  0.00    +0.108 C 
BRANCH  12  13
ATOM     13  C   UNL     1       0.691  -3.186  -0.024  0.00  0.00    +0.052 C 
BRANCH  13  20
ATOM     14  C   UNL     1      -0.016   1.348   0.009  0.00  0.00    +0.001 A 
ATOM     15  C   UNL     1       1.166   2.101   0.002  0.00  0.00    +0.002 A 
ATOM     16  C   UNL     1       2.391   1.535  -0.013  0.00  0.00    +0.026 A 
ATOM     17  C   UNL     1       2.529   0.120  -0.022  0.00  0.00    +0.043 A 
ATOM     18  N   UNL     1       3.587  -0.654  -0.037  0.00  0.00    -0.380 N 
ATOM     19  C   UNL     1       3.143  -2.053  -0.041  0.00  0.00    +0.144 C 
ATOM     20  C   UNL     1       1.631  -2.008  -0.025  0.00  0.00    -0.040 C 
ATOM     21  C   UNL     1       1.295  -0.698  -0.014  0.00  0.00    -0.001 A 
ATOM     22  C   UNL     1       0.002  -0.004   0.002  0.00  0.00    +0.010 A 
ATOM     23  H   UNL     1       4.509  -0.353  -0.045  0.00  0.00    +0.160 HD
ENDBRANCH  13  20
ENDBRANCH  12  13
ENDBRANCH   8  12
ENDBRANCH   1   9
BRANCH   3  24
ATOM     24  C   UNL     1      -1.399  -9.257  -0.105  0.00  0.00    +0.302 C 
BRANCH  24  25
ATOM     25  O   UNL     1      -2.348  -9.371   0.958  0.00  0.00    -0.484 OA
BRANCH  25  26
ATOM     26  C   UNL     1      -2.160 -10.383   1.846  0.00  0.00    +0.121 A 
ATOM     27  C   UNL     1      -1.082 -11.244   1.701  0.00  0.00    +0.046 A 
ATOM     28  C   UNL     1      -0.894 -12.271   2.605  0.00  0.00    +0.007 A 
ATOM     29  C   UNL     1      -1.778 -12.441   3.654  0.00  0.00    -0.038 A 
ATOM     30  C   UNL     1      -2.854 -11.584   3.800  0.00  0.00    +0.007 A 
ATOM     31  C   UNL     1      -3.043 -10.552   2.902  0.00  0.00    +0.046 A 
BRANCH  29  32
ATOM     32  C   UNL     1      -1.571 -13.563   4.639  0.00  0.00    +0.130 C 
BRANCH  32  33
ATOM     33  C   UNL     1      -0.707 -13.080   5.776  0.00  0.00    +0.215 C 
ATOM     34  O   UNL     1      -0.301 -11.937   5.785  0.00  0.00    -0.276 OA
ATOM     35  N   UNL     1      -0.387 -13.917   6.782  0.00  0.00    -0.329 N 
ATOM     36  H   UNL     1      -0.712 -14.831   6.774  0.00  0.00    +0.145 HD
ATOM     37  H   UNL     1       0.169 -13.606   7.513  0.00  0.00    +0.145 HD
ENDBRANCH  32  33
ENDBRANCH  29  32
ENDBRANCH  25  26
ENDBRANCH  24  25
ENDBRANCH   3  24
TORSDOF 9
