REMARK  Name = ZINC32117004
REMARK  11 active torsions:
REMARK  status: ('A' for Active; 'I' for Inactive)
REMARK    1  A    between atoms: C_1  and  O_2
REMARK    2  A    between atoms: O_2  and  C_3
REMARK    3  A    between atoms: C_6  and  C_9
REMARK    4  A    between atoms: C_11  and  C_33
REMARK    5  A    between atoms: C_20  and  C_22
REMARK    6  A    between atoms: N_24  and  C_25
REMARK    7  A    between atoms: C_25  and  C_26
REMARK    8  A    between atoms: C_26  and  C_27
REMARK    9  A    between atoms: C_33  and  C_35
REMARK   10  A    between atoms: C_38  and  O_41
REMARK   11  A    between atoms: O_41  and  C_42
REMARK                            x       y       z     vdW  Elec       q    Type
REMARK                         _______ _______ _______ _____ _____    ______ ____
ROOT
ATOM      1  C   UNL     1      -1.338   7.072   1.728  0.00  0.00    +0.059 C 
ATOM      2  C   UNL     1      -1.760   7.877   0.467  0.00  0.00    +0.092 C 
ATOM      3  C   UNL     1      -1.093   9.241   0.718  0.00  0.00    +0.090 C 
ATOM      4  C   UNL     1      -0.636   9.870  -0.575  0.00  0.00    -0.006 C 
ATOM      5  C   UNL     1       0.497  10.576  -0.581  0.00  0.00    -0.001 C 
ATOM      6  C   UNL     1       1.298  10.755   0.636  0.00  0.00    +0.013 C 
ATOM      7  C   UNL     1       1.110   9.924   1.687  0.00  0.00    +0.053 C 
ATOM      8  N   UNL     1       0.124   8.967   1.511  0.00  0.00    -0.384 NA
ATOM      9  C   UNL     1       0.110   7.575   1.959  0.00  0.00    +0.151 C 
ATOM     10  H   UNL     1       0.920   9.491   2.059  0.00  0.00    +0.127 HD
ENDROOT
BRANCH   1  14
ATOM     11  C   UNL     1      -1.390   2.871   0.947  0.00  0.00    +0.120 A 
ATOM     12  C   UNL     1      -2.124   3.391   2.004  0.00  0.00    +0.046 A 
ATOM     13  C   UNL     1      -2.101   4.748   2.257  0.00  0.00    +0.007 A 
ATOM     14  C   UNL     1      -1.356   5.591   1.453  0.00  0.00    -0.041 A 
ATOM     15  C   UNL     1      -0.629   5.076   0.396  0.00  0.00    +0.007 A 
ATOM     16  C   UNL     1      -0.644   3.719   0.141  0.00  0.00    +0.046 A 
BRANCH  11  18
ATOM     17  C   UNL     1      -2.197   0.723   1.570  0.00  0.00    +0.277 C 
ATOM     18  O   UNL     1      -1.407   1.535   0.699  0.00  0.00    -0.495 OA
ENDBRANCH  11  18
ENDBRANCH   1  14
BRANCH   9  19
ATOM     19  C   UNL     1       1.080   6.757   1.147  0.00  0.00    +0.233 C 
ATOM     20  O   UNL     1       1.545   7.209   0.122  0.00  0.00    -0.274 OA
ATOM     21  N   UNL     1       1.431   5.522   1.559  0.00  0.00    -0.313 N 
ATOM     22  H   UNL     1       1.009   5.112   2.488  0.00  0.00    +0.149 HD
BRANCH  21  23
ATOM     23  C   UNL     1       2.374   4.727   0.769  0.00  0.00    +0.109 C 
BRANCH  23  24
ATOM     24  C   UNL     1       2.600   3.377   1.452  0.00  0.00    +0.054 C 
BRANCH  24  25
ATOM     25  C   UNL     1       3.571   2.559   0.639  0.00  0.00    -0.046 A 
ATOM     26  C   UNL     1       3.103   1.713  -0.349  0.00  0.00    +0.004 A 
ATOM     27  C   UNL     1       3.994   0.967  -1.098  0.00  0.00    +0.000 A 
ATOM     28  C   UNL     1       5.351   1.058  -0.851  0.00  0.00    +0.000 A 
ATOM     29  C   UNL     1       5.818   1.900   0.141  0.00  0.00    +0.000 A 
ATOM     30  C   UNL     1       4.928   2.650   0.886  0.00  0.00    +0.004 A 
ENDBRANCH  24  25
ENDBRANCH  23  24
ENDBRANCH  21  23
ENDBRANCH   9  19
BRANCH   2  31
ATOM     31  C   UNL     1      -1.219   7.237  -0.786  0.00  0.00    +0.169 C 
ATOM     32  O   UNL     1      -0.127   7.556  -1.207  0.00  0.00    -0.292 OA
BRANCH  31  33
ATOM     33  C   UNL     1      -2.014   6.226  -1.496  0.00  0.00    +0.018 A 
ATOM     34  C   UNL     1      -3.272   5.852  -1.008  0.00  0.00    +0.015 A 
ATOM     35  C   UNL     1      -4.012   4.912  -1.677  0.00  0.00    +0.046 A 
ATOM     36  C   UNL     1      -3.511   4.322  -2.833  0.00  0.00    +0.120 A 
ATOM     37  C   UNL     1      -2.260   4.686  -3.318  0.00  0.00    +0.046 A 
ATOM     38  C   UNL     1      -1.514   5.630  -2.660  0.00  0.00    +0.015 A 
BRANCH  36  39
ATOM     39  O   UNL     1      -4.245   3.389  -3.489  0.00  0.00    -0.495 OA
ATOM     40  C   UNL     1      -5.522   3.062  -2.935  0.00  0.00    +0.277 C 
ENDBRANCH  36  39
ENDBRANCH  31  33
ENDBRANCH   2  31
TORSDOF 9
