REMARK  Name = ZINC09219513
REMARK  5 active torsions:
REMARK  status: ('A' for Active; 'I' for Inactive)
REMARK    1  A    between atoms: C_1  and  C_2
REMARK    2  A    between atoms: C_2  and  N_20
REMARK    3  A    between atoms: C_3  and  C_4
REMARK    4  A    between atoms: C_3  and  C_6
REMARK    5  A    between atoms: N_11  and  C_12
REMARK                            x       y       z     vdW  Elec       q    Type
REMARK                         _______ _______ _______ _____ _____    ______ ____
ROOT
ATOM      1  C   UNL     1       1.260   0.064   2.120  0.00  0.00    +0.092 A 
ATOM      2  C   UNL     1       1.603  -0.604   3.261  0.00  0.00    +0.077 A 
ATOM      3  S   UNL     1       2.053   0.763   4.322  0.00  0.00    -0.060 S 
ATOM      4  C   UNL     1       1.739   2.072   3.146  0.00  0.00    +0.163 A 
ATOM      5  N   UNL     1       1.341   1.386   2.089  0.00  0.00    -0.224 NA
ATOM      6  N   UNL     1       1.880   3.442   3.300  0.00  0.00    -0.294 N 
ATOM      7  H   UNL     1       1.589   4.042   2.595  0.00  0.00    +0.154 HD
ENDROOT
BRANCH   6   8
ATOM      8  C   UNL     1       2.441   3.960   4.472  0.00  0.00    +0.034 A 
ATOM      9  C   UNL     1       3.509   3.310   5.078  0.00  0.00    +0.026 A 
ATOM     10  C   UNL     1       4.062   3.823   6.235  0.00  0.00    +0.041 A 
ATOM     11  C   UNL     1       3.554   4.985   6.791  0.00  0.00    +0.142 A 
ATOM     12  C   UNL     1       2.489   5.635   6.189  0.00  0.00    +0.078 A 
ATOM     13  C   UNL     1       1.936   5.128   5.028  0.00  0.00    +0.046 A 
ATOM     14 CL   UNL     1       1.854   7.091   6.888  0.00  0.00    -0.081 Cl
ATOM     15  F   UNL     1       4.097   5.485   7.923  0.00  0.00    -0.204 F 
ENDBRANCH   6   8
BRANCH   1  18
ATOM     16  C   UNL     1       0.559   1.487  -0.252  0.00  0.00    +0.061 C 
ATOM     17  C   UNL     1       0.470  -0.017  -0.211  0.00  0.00    +0.018 C 
ATOM     18  C   UNL     1       0.805  -0.686   0.922  0.00  0.00    +0.094 C 
BRANCH  17  19
ATOM     19  N   UNL     1       0.050  -0.709  -1.317  0.00  0.00    -0.360 N 
ATOM     20  H   UNL     1      -0.190  -0.231  -2.126  0.00  0.00    +0.142 HD
ATOM     21  H   UNL     1      -0.008  -1.677  -1.290  0.00  0.00    +0.142 HD
ENDBRANCH  17  19
BRANCH  18  22
ATOM     22  C   UNL     1       0.720  -2.115   0.962  0.00  0.00    +0.103 C 
ATOM     23  N   UNL     1       0.653  -3.248   0.993  0.00  0.00    -0.191 NA
ENDBRANCH  18  22
ENDBRANCH   1  18
TORSDOF 4
