REMARK  Name = ZINC20573297
REMARK  7 active torsions:
REMARK  status: ('A' for Active; 'I' for Inactive)
REMARK    1  A    between atoms: C_1  and  O_2
REMARK    2  A    between atoms: O_2  and  C_3
REMARK    3  A    between atoms: C_6  and  C_9
REMARK    4  A    between atoms: C_9  and  C_10
REMARK    5  A    between atoms: C_10  and  C_11
REMARK    6  A    between atoms: N_13  and  C_14
REMARK    7  A    between atoms: C_14  and  C_15
REMARK                            x       y       z     vdW  Elec       q    Type
REMARK                         _______ _______ _______ _____ _____    ______ ____
ROOT
ATOM      1  C   UNL     1       8.079  -4.551  -6.017  0.00  0.00    +0.233 C 
ATOM      2  O   UNL     1       8.531  -4.197  -4.949  0.00  0.00    -0.274 OA
ATOM      3  N   UNL     1       8.882  -5.138  -6.927  0.00  0.00    -0.300 N 
ATOM      4  C   UNL     1       8.351  -5.567  -8.228  0.00  0.00    +0.110 C 
ATOM      5  C   UNL     1       9.207  -4.948  -9.338  0.00  0.00    +0.047 C 
ATOM      6  C   UNL     1      10.675  -5.306  -9.106  0.00  0.00    +0.064 C 
ATOM      7  C   UNL     1      11.140  -4.744  -7.763  0.00  0.00    +0.047 C 
ATOM      8  C   UNL     1      10.306  -5.355  -6.639  0.00  0.00    +0.110 C 
ATOM      9  C   UNL     1      11.518  -4.732 -10.216  0.00  0.00    +0.057 A 
ATOM     10  C   UNL     1      12.504  -5.424 -10.832  0.00  0.00    +0.039 A 
ATOM     11  N   UNL     1      13.042  -4.604 -11.772  0.00  0.00    -0.349 N 
ATOM     12  H   UNL     1      13.769  -4.819 -12.377  0.00  0.00    +0.166 HD
ATOM     13  C   UNL     1      12.371  -3.430 -11.703  0.00  0.00    +0.171 A 
ATOM     14  N   UNL     1      11.461  -3.519 -10.768  0.00  0.00    -0.348 N 
ATOM     15  C   UNL     1      12.872  -6.841 -10.475  0.00  0.00    +0.070 C 
ATOM     16  C   UNL     1      12.249  -7.160  -9.109  0.00  0.00    +0.088 C 
ATOM     17  N   UNL     1      10.832  -6.769  -9.110  0.00  0.00    -0.305 NA
ATOM     18  H   UNL     1      10.341  -7.187  -8.334  0.00  0.00    +0.123 HD
ATOM     19  H   UNL     1      10.844  -2.815 -10.515  0.00  0.00    +0.166 HD
ENDROOT
BRANCH   1  20
ATOM     20  C   UNL     1       6.620  -4.335  -6.328  0.00  0.00    +0.200 C 
BRANCH  20  23
ATOM     21  C   UNL     1       4.655  -3.391  -5.239  0.00  0.00    +0.214 C 
ATOM     22  O   UNL     1       4.011  -3.666  -6.230  0.00  0.00    -0.276 OA
ATOM     23  N   UNL     1       5.970  -3.685  -5.188  0.00  0.00    -0.307 N 
ATOM     24  H   UNL     1       6.485  -3.466  -4.395  0.00  0.00    +0.149 HD
BRANCH  21  25
ATOM     25  C   UNL     1       3.986  -2.723  -4.066  0.00  0.00    +0.100 C 
BRANCH  25  26
ATOM     26  C   UNL     1       2.505  -2.503  -4.381  0.00  0.00    +0.044 C 
BRANCH  26  30
ATOM     27  C   UNL     1       0.606  -0.607  -1.056  0.00  0.00    +0.120 A 
ATOM     28  C   UNL     1       1.173   0.161  -2.062  0.00  0.00    +0.046 A 
ATOM     29  C   UNL     1       1.786  -0.455  -3.136  0.00  0.00    +0.007 A 
ATOM     30  C   UNL     1       1.835  -1.835  -3.209  0.00  0.00    -0.047 A 
ATOM     31  C   UNL     1       1.270  -2.602  -2.207  0.00  0.00    +0.007 A 
ATOM     32  C   UNL     1       0.661  -1.992  -1.128  0.00  0.00    +0.046 A 
BRANCH  27  34
ATOM     33  C   UNL     1      -0.017   1.425   0.010  0.00  0.00    +0.277 C 
ATOM     34  O   UNL     1       0.002  -0.004   0.002  0.00  0.00    -0.495 OA
ENDBRANCH  27  34
ENDBRANCH  26  30
ENDBRANCH  25  26
ENDBRANCH  21  25
ENDBRANCH  20  23
ENDBRANCH   1  20
TORSDOF 6
