REMARK  Name = ZINC09057655
REMARK  10 active torsions:
REMARK  status: ('A' for Active; 'I' for Inactive)
REMARK    1  A    between atoms: C_1  and  C_2
REMARK    2  A    between atoms: C_7  and  N_8
REMARK    3  A    between atoms: C_9  and  C_11
REMARK    4  A    between atoms: C_12  and  C_37
REMARK    5  A    between atoms: C_14  and  S_25
REMARK    6  A    between atoms: C_15  and  C_23
REMARK    7  A    between atoms: C_16  and  C_18
REMARK    8  A    between atoms: S_25  and  C_26
REMARK    9  A    between atoms: C_26  and  C_27
REMARK   10  A    between atoms: N_29  and  C_30
REMARK                            x       y       z     vdW  Elec       q    Type
REMARK                         _______ _______ _______ _____ _____    ______ ____
ROOT
ATOM      1  C   UNL     1       0.379  -0.280  -2.179  0.00  0.00    +0.047 C 
ATOM      2  C   UNL     1       1.623  -0.776  -2.257  0.00  0.00    +0.015 C 
ATOM      3  N   UNL     1       2.411  -0.881  -1.143  0.00  0.00    -0.312 N 
ATOM      4  C   UNL     1       1.847  -0.828   0.111  0.00  0.00    +0.080 C 
ATOM      5  C   UNL     1       0.594  -0.327   0.284  0.00  0.00    +0.072 C 
ATOM      6  C   UNL     1      -0.205   0.190  -0.878  0.00  0.00    +0.134 C 
ATOM      7  C   UNL     1       2.161  -1.226  -3.591  0.00  0.00    +0.061 C 
ATOM      8  H   UNL     1       3.499  -1.008  -1.249  0.00  0.00    +0.152 HD
ENDROOT
BRANCH   6   9
ATOM      9  C   UNL     1      -0.203   1.697  -0.850  0.00  0.00    +0.118 A 
ATOM     10  C   UNL     1      -1.289   2.484  -0.746  0.00  0.00    +0.045 A 
ATOM     11  C   UNL     1      -0.829   3.821  -0.756  0.00  0.00    +0.041 A 
ATOM     12  C   UNL     1       0.510   3.771  -0.874  0.00  0.00    +0.195 A 
ATOM     13  O   UNL     1       0.884   2.482  -0.931  0.00  0.00    -0.467 OA
ENDBRANCH   6   9
BRANCH   1  15
ATOM     14  N   UNL     1      -1.656   0.296  -3.299  0.00  0.00    -0.281 N 
ATOM     15  C   UNL     1      -0.404  -0.199  -3.356  0.00  0.00    +0.247 C 
ATOM     16  O   UNL     1       0.054  -0.576  -4.419  0.00  0.00    -0.270 OA
ATOM     17  H   UNL     1      -2.043   0.706  -2.354  0.00  0.00    +0.155 HD
BRANCH  14  24
ATOM     18  C   UNL     1      -4.449  -0.136  -2.967  0.00  0.00    +0.045 C 
ATOM     19  C   UNL     1      -3.831   0.082  -4.325  0.00  0.00    -0.029 A 
ATOM     20  C   UNL     1      -4.627   0.081  -5.454  0.00  0.00    +0.005 A 
ATOM     21  C   UNL     1      -4.060   0.275  -6.700  0.00  0.00    +0.000 A 
ATOM     22  C   UNL     1      -2.697   0.476  -6.820  0.00  0.00    +0.002 A 
ATOM     23  C   UNL     1      -1.897   0.484  -5.694  0.00  0.00    +0.023 A 
ATOM     24  C   UNL     1      -2.463   0.289  -4.441  0.00  0.00    +0.037 A 
ENDBRANCH  14  24
ENDBRANCH   1  15
BRANCH   5  25
ATOM     25  C   UNL     1       0.027  -0.291   1.598  0.00  0.00    +0.098 C 
ATOM     26  N   UNL     1      -0.423  -0.263   2.641  0.00  0.00    -0.191 NA
ENDBRANCH   5  25
BRANCH   4  27
ATOM     27  S   UNL     1       2.753  -1.416   1.504  0.00  0.00    -0.100 S 
BRANCH  27  28
ATOM     28  C   UNL     1       4.281  -1.938   0.686  0.00  0.00    +0.171 C 
BRANCH  28  29
ATOM     29  C   UNL     1       5.236  -2.492   1.712  0.00  0.00    +0.227 C 
ATOM     30  O   UNL     1       4.915  -2.529   2.881  0.00  0.00    -0.275 OA
ATOM     31  N   UNL     1       6.447  -2.945   1.331  0.00  0.00    -0.285 N 
ATOM     32  H   UNL     1       6.709  -2.981   0.264  0.00  0.00    +0.155 HD
BRANCH  31  33
ATOM     33  C   UNL     1       7.369  -3.370   2.293  0.00  0.00    +0.035 A 
ATOM     34  C   UNL     1       8.727  -3.154   2.098  0.00  0.00    +0.023 A 
ATOM     35  C   UNL     1       9.636  -3.570   3.051  0.00  0.00    +0.003 A 
ATOM     36  C   UNL     1       9.196  -4.211   4.195  0.00  0.00    +0.020 A 
ATOM     37  C   UNL     1       7.844  -4.432   4.391  0.00  0.00    +0.043 A 
ATOM     38  C   UNL     1       6.929  -4.013   3.442  0.00  0.00    +0.043 A 
ATOM     39 CL   UNL     1       7.296  -5.237   5.828  0.00  0.00    -0.083 Cl
ENDBRANCH  31  33
ENDBRANCH  28  29
ENDBRANCH  27  28
ENDBRANCH   4  27
TORSDOF 8
