REMARK  Name = ZINC06601276
REMARK  15 active torsions:
REMARK  status: ('A' for Active; 'I' for Inactive)
REMARK    1  A    between atoms: C_1  and  C_2
REMARK    2  A    between atoms: C_2  and  O_3
REMARK    3  A    between atoms: O_3  and  C_4
REMARK    4  A    between atoms: C_7  and  C_10
REMARK    5  A    between atoms: C_10  and  C_12
REMARK    6  A    between atoms: C_10  and  N_19
REMARK    7  A    between atoms: N_14  and  C_15
REMARK    8  A    between atoms: C_15  and  C_16
REMARK    9  A    between atoms: C_15  and  C_17
REMARK   10  A    between atoms: C_15  and  C_18
REMARK   11  A    between atoms: N_19  and  C_20
REMARK   12  A    between atoms: C_25  and  C_26
REMARK   13  A    between atoms: C_27  and  C_29
REMARK   14  A    between atoms: C_30  and  N_37
REMARK   15  A    between atoms: C_31  and  C_34
REMARK                            x       y       z     vdW  Elec       q    Type
REMARK                         _______ _______ _______ _____ _____    ______ ____
ROOT
ATOM      1  N   UNL     1      -5.903   2.284   0.192  0.00  0.00    -0.251 N 
ATOM      2  C   UNL     1      -5.244   1.810  -0.884  0.00  0.00    +0.262 C 
ATOM      3  O   UNL     1      -5.865   1.421  -1.856  0.00  0.00    -0.269 OA
ENDROOT
BRANCH   1   4
ATOM      4  C   UNL     1      -5.189   2.731   1.308  0.00  0.00    +0.041 A 
ATOM      5  C   UNL     1      -4.790   4.059   1.393  0.00  0.00    +0.024 A 
ATOM      6  C   UNL     1      -4.085   4.497   2.497  0.00  0.00    +0.002 A 
ATOM      7  C   UNL     1      -3.778   3.616   3.518  0.00  0.00    +0.000 A 
ATOM      8  C   UNL     1      -4.175   2.294   3.437  0.00  0.00    +0.005 A 
ATOM      9  C   UNL     1      -4.884   1.850   2.337  0.00  0.00    -0.029 A 
ATOM     10  C   UNL     1      -5.321   0.410   2.253  0.00  0.00    +0.045 C 
ENDBRANCH   1   4
BRANCH   2  11
ATOM     11  C   UNL     1      -3.781   1.764  -0.884  0.00  0.00    +0.116 A 
ATOM     12  C   UNL     1      -2.909   1.323  -1.882  0.00  0.00    +0.076 A 
ATOM     13  C   UNL     1      -1.570   1.433  -1.508  0.00  0.00    +0.155 A 
ATOM     14  N   UNL     1      -1.270   1.922  -0.325  0.00  0.00    -0.203 NA
ATOM     15  S   UNL     1      -2.635   2.263   0.385  0.00  0.00    +0.019 S 
BRANCH  13  16
ATOM     16  C   UNL     1      -0.501   1.012  -2.432  0.00  0.00    +0.262 C 
ATOM     17  O   UNL     1      -0.786   0.561  -3.525  0.00  0.00    -0.269 OA
ATOM     18  N   UNL     1       0.791   1.131  -2.068  0.00  0.00    -0.324 N 
ATOM     19  H   UNL     1       1.494   0.858  -2.678  0.00  0.00    +0.145 HD
ATOM     20  H   UNL     1       1.018   1.491  -1.196  0.00  0.00    +0.145 HD
ENDBRANCH  13  16
BRANCH  12  21
ATOM     21  N   UNL     1      -3.329   0.826  -3.108  0.00  0.00    -0.355 N 
ATOM     22  H   UNL     1      -2.676   0.531  -3.762  0.00  0.00    +0.142 HD
ATOM     23  H   UNL     1      -4.276   0.774  -3.312  0.00  0.00    +0.142 HD
ENDBRANCH  12  21
ENDBRANCH   2  11
BRANCH   1  24
ATOM     24  C   UNL     1      -7.367   2.330   0.192  0.00  0.00    +0.197 C 
BRANCH  24  28
ATOM     25  C   UNL     1      -8.754   3.537   4.050  0.00  0.00    +0.121 A 
ATOM     26  C   UNL     1      -9.024   2.258   3.583  0.00  0.00    +0.046 A 
ATOM     27  C   UNL     1      -8.575   1.871   2.336  0.00  0.00    +0.009 A 
ATOM     28  C   UNL     1      -7.856   2.756   1.553  0.00  0.00    -0.018 A 
ATOM     29  C   UNL     1      -7.581   4.028   2.018  0.00  0.00    +0.009 A 
ATOM     30  C   UNL     1      -8.033   4.423   3.262  0.00  0.00    +0.046 A 
BRANCH  25  31
ATOM     31  O   UNL     1      -9.194   3.920   5.277  0.00  0.00    -0.492 OA
BRANCH  31  33
ATOM     32  C   UNL     1      -9.453   5.498   7.090  0.00  0.00    +0.048 C 
ATOM     33  C   UNL     1      -8.879   5.251   5.693  0.00  0.00    +0.225 C 
ENDBRANCH  31  33
ENDBRANCH  25  31
ENDBRANCH  24  28
BRANCH  24  34
ATOM     34  C   UNL     1      -7.839   3.318  -0.843  0.00  0.00    +0.239 C 
ATOM     35  O   UNL     1      -7.031   3.925  -1.515  0.00  0.00    -0.273 OA
ATOM     36  N   UNL     1      -9.158   3.529  -1.022  0.00  0.00    -0.309 N 
ATOM     37  H   UNL     1      -9.804   3.044  -0.485  0.00  0.00    +0.149 HD
BRANCH  36  38
ATOM     38  C   UNL     1      -9.616   4.490  -2.029  0.00  0.00    +0.026 C 
ATOM     39  C   UNL     1      -9.120   4.058  -3.410  0.00  0.00    +0.031 C 
ATOM     40  C   UNL     1     -11.146   4.538  -2.028  0.00  0.00    +0.031 C 
ATOM     41  C   UNL     1      -9.062   5.877  -1.698  0.00  0.00    +0.031 C 
ENDBRANCH  36  38
ENDBRANCH  24  34
ENDBRANCH   1  24
TORSDOF 10
