REMARK  Name = ZINC06086991
REMARK  12 active torsions:
REMARK  status: ('A' for Active; 'I' for Inactive)
REMARK    1  A    between atoms: C_1  and  C_2
REMARK    2  A    between atoms: C_2  and  C_3
REMARK    3  A    between atoms: C_3  and  C_5
REMARK    4  A    between atoms: C_3  and  N_63
REMARK    5  A    between atoms: C_15  and  C_16
REMARK    6  A    between atoms: C_15  and  N_63
REMARK    7  A    between atoms: C_16  and  C_18
REMARK    8  A    between atoms: C_16  and  O_30
REMARK    9  A    between atoms: C_18  and  O_19
REMARK   10  A    between atoms: O_19  and  C_20
REMARK   11  A    between atoms: C_20  and  C_22
REMARK   12  A    between atoms: C_20  and  C_23
REMARK                            x       y       z     vdW  Elec       q    Type
REMARK                         _______ _______ _______ _____ _____    ______ ____
ROOT
ATOM      1  N   UNL     1       4.172   0.096  -2.567  0.00  0.00    +0.383 N 
ATOM      2  H   UNL     1       4.843  -0.537  -2.115  0.00  0.00    -0.085 HD
ATOM      3  H   UNL     1       4.156   0.992  -2.066  0.00  0.00    -0.085 HD
ENDROOT
BRANCH   1   4
ATOM      4  C   UNL     1       2.828  -0.510  -2.524  0.00  0.00    -0.066 C 
BRANCH   4   5
ATOM      5  C   UNL     1       1.983   0.212  -1.472  0.00  0.00    -0.041 C 
ATOM      6  C   UNL     1       0.589  -0.416  -1.418  0.00  0.00    +0.009 C 
ATOM      7  C   UNL     1      -0.256   0.305  -0.366  0.00  0.00    -0.010 C 
ATOM      8  C   UNL     1      -0.377   1.785  -0.737  0.00  0.00    +0.007 C 
ATOM      9  C   UNL     1       1.017   2.413  -0.790  0.00  0.00    -0.010 C 
ATOM     10  C   UNL     1       1.862   1.691  -1.842  0.00  0.00    +0.009 C 
ATOM     11  C   UNL     1       1.688   2.283   0.579  0.00  0.00    +0.007 C 
ATOM     12  C   UNL     1       1.809   0.804   0.949  0.00  0.00    -0.010 C 
ATOM     13  C   UNL     1       0.415   0.176   1.003  0.00  0.00    +0.007 C 
ATOM     14  C   UNL     1       2.654   0.082  -0.103  0.00  0.00    +0.009 C 
ENDBRANCH   4   5
BRANCH   4  16
ATOM     15  C   UNL     1       3.674  -2.738  -3.273  0.00  0.00    +0.002 C 
ATOM     16  C   UNL     1       2.949  -1.989  -2.153  0.00  0.00    -0.019 C 
ENDBRANCH   4  16
ENDBRANCH   1   4
BRANCH   1  17
ATOM     17  C   UNL     1       4.586   0.326  -3.963  0.00  0.00    -0.048 C 
BRANCH  17  18
ATOM     18  C   UNL     1       5.925   1.067  -3.974  0.00  0.00    +0.123 C 
BRANCH  18  19
ATOM     19  O   UNL     1       5.781   2.320  -3.303  0.00  0.00    -0.391 OA
ATOM     20  H   UNL     1       5.127   2.908  -3.704  0.00  0.00    +0.210 HD
ENDBRANCH  18  19
BRANCH  18  21
ATOM     21  C   UNL     1       6.362   1.309  -5.420  0.00  0.00    +0.190 C 
BRANCH  21  22
ATOM     22  O   UNL     1       7.665   1.895  -5.432  0.00  0.00    -0.370 OA
BRANCH  22  23
ATOM     23  C   UNL     1       8.169   2.164  -6.742  0.00  0.00    +0.145 C 
ATOM     24  C   UNL     1       7.758   3.575  -7.167  0.00  0.00    +0.043 C 
BRANCH  23  25
ATOM     25  C   UNL     1       9.673   2.061  -6.732  0.00  0.00    -0.019 A 
ATOM     26  C   UNL     1      10.386   2.467  -5.619  0.00  0.00    +0.007 A 
ATOM     27  C   UNL     1      11.764   2.367  -5.607  0.00  0.00    +0.020 A 
ATOM     28  C   UNL     1      12.431   1.871  -6.713  0.00  0.00    +0.041 A 
ATOM     29  C   UNL     1      11.717   1.470  -7.829  0.00  0.00    +0.020 A 
ATOM     30  C   UNL     1      10.339   1.565  -7.837  0.00  0.00    +0.007 A 
ATOM     31 CL   UNL     1      14.163   1.751  -6.702  0.00  0.00    -0.084 Cl
ENDBRANCH  23  25
ENDBRANCH  22  23
ENDBRANCH  21  22
ENDBRANCH  18  21
ENDBRANCH  17  18
ENDBRANCH   1  17
TORSDOF 10
