REMARK  Name = ZINC36919965
REMARK  8 active torsions:
REMARK  status: ('A' for Active; 'I' for Inactive)
REMARK    1  A    between atoms: C_1  and  C_2
REMARK    2  A    between atoms: C_2  and  C_3
REMARK    3  A    between atoms: C_3  and  C_5
REMARK    4  A    between atoms: C_3  and  N_13
REMARK    5  A    between atoms: C_10  and  O_11
REMARK    6  A    between atoms: N_13  and  C_14
REMARK    7  A    between atoms: C_14  and  C_16
REMARK    8  A    between atoms: C_14  and  C_17
REMARK                            x       y       z     vdW  Elec       q    Type
REMARK                         _______ _______ _______ _____ _____    ______ ____
ROOT
ATOM      1  C   UNL     1       0.820  -0.241  -1.062  0.00  0.00    -0.037 C 
ENDROOT
BRANCH   1   2
ATOM      2  C   UNL     1       0.541  -1.722  -1.070  0.00  0.00    -0.019 A 
ATOM      3  C   UNL     1       1.551  -2.617  -0.776  0.00  0.00    +0.020 A 
ATOM      4  C   UNL     1       1.295  -3.976  -0.783  0.00  0.00    +0.018 A 
ATOM      5  C   UNL     1       0.028  -4.442  -1.085  0.00  0.00    +0.019 A 
ATOM      6  C   UNL     1      -0.985  -3.551  -1.379  0.00  0.00    +0.047 A 
ATOM      7  C   UNL     1      -0.732  -2.186  -1.367  0.00  0.00    +0.119 A 
ATOM      8 BR   UNL     1       2.680  -5.200  -0.381  0.00  0.00    -0.050 Br
BRANCH   7   9
ATOM      9  O   UNL     1      -1.729  -1.307  -1.651  0.00  0.00    -0.507 OA
ATOM     10  H   UNL     1      -1.804  -1.088  -2.590  0.00  0.00    +0.292 HD
ENDBRANCH   7   9
ENDBRANCH   1   2
BRANCH   1  11
ATOM     11  N   UNL     1       2.247  -0.010  -1.320  0.00  0.00    +0.388 N 
ATOM     12  H   UNL     1       2.451   0.974  -1.225  0.00  0.00    -0.084 HD
ATOM     13  H   UNL     1       2.798  -0.533  -0.656  0.00  0.00    -0.084 HD
BRANCH  11  14
ATOM     14  C   UNL     1       2.575  -0.449  -2.683  0.00  0.00    -0.043 C 
ATOM     15  C   UNL     1       1.849   0.442  -3.694  0.00  0.00    -0.009 C 
BRANCH  14  16
ATOM     16  C   UNL     1       4.063  -0.346  -2.900  0.00  0.00    -0.061 A 
ATOM     17  C   UNL     1       4.762   0.733  -2.392  0.00  0.00    +0.002 A 
ATOM     18  C   UNL     1       6.127   0.829  -2.590  0.00  0.00    +0.001 A 
ATOM     19  C   UNL     1       6.793  -0.155  -3.297  0.00  0.00    +0.015 A 
ATOM     20  C   UNL     1       6.094  -1.235  -3.805  0.00  0.00    +0.018 A 
ATOM     21  C   UNL     1       4.729  -1.332  -3.602  0.00  0.00    +0.017 A 
ATOM     22 BR   UNL     1       7.004  -2.580  -4.773  0.00  0.00    -0.050 Br
ENDBRANCH  14  16
ENDBRANCH  11  14
ENDBRANCH   1  11
BRANCH   1  24
ATOM     23  C   UNL     1       0.645   1.858   0.283  0.00  0.00    +0.002 C 
ATOM     24  C   UNL     1       0.448   0.341   0.304  0.00  0.00    -0.014 C 
ENDBRANCH   1  24
TORSDOF 6
