REMARK  Name = ZINC08253707
REMARK  12 active torsions:
REMARK  status: ('A' for Active; 'I' for Inactive)
REMARK    1  A    between atoms: C_1  and  C_2
REMARK    2  A    between atoms: C_2  and  O_3
REMARK    3  A    between atoms: O_3  and  C_4
REMARK    4  A    between atoms: C_6  and  C_16
REMARK    5  A    between atoms: C_9  and  O_10
REMARK    6  A    between atoms: O_10  and  C_11
REMARK    7  A    between atoms: C_11  and  C_12
REMARK    8  A    between atoms: C_16  and  N_43
REMARK    9  A    between atoms: C_17  and  C_18
REMARK   10  A    between atoms: C_17  and  C_19
REMARK   11  A    between atoms: C_17  and  C_20
REMARK   12  A    between atoms: C_17  and  N_43
REMARK                            x       y       z     vdW  Elec       q    Type
REMARK                         _______ _______ _______ _____ _____    ______ ____
ROOT
ATOM      1  C   UNL     1      -0.327  -4.126   1.689  0.00  0.00    +0.163 A 
ATOM      2  C   UNL     1      -0.323  -2.741   1.732  0.00  0.00    +0.051 A 
ATOM      3  C   UNL     1       0.706  -2.034   1.137  0.00  0.00    -0.060 A 
ATOM      4  C   UNL     1       1.738  -2.706   0.509  0.00  0.00    +0.021 A 
ATOM      5  C   UNL     1       1.743  -4.088   0.467  0.00  0.00    +0.063 A 
ATOM      6  C   UNL     1       0.711  -4.803   1.057  0.00  0.00    +0.176 A 
ATOM      7 BR   UNL     1       3.156  -5.004  -0.393  0.00  0.00    -0.046 Br
ENDROOT
BRANCH   1   8
ATOM      8  O   UNL     1      -1.341  -4.822   2.269  0.00  0.00    -0.489 OA
BRANCH   8  10
ATOM      9  C   UNL     1      -3.418  -5.010   3.490  0.00  0.00    +0.048 C 
ATOM     10  C   UNL     1      -2.373  -4.061   2.900  0.00  0.00    +0.226 C 
ENDBRANCH   8  10
ENDBRANCH   1   8
BRANCH   6  11
ATOM     11  O   UNL     1       0.713  -6.162   1.016  0.00  0.00    -0.478 OA
BRANCH  11  12
ATOM     12  C   UNL     1       1.362  -6.842   2.093  0.00  0.00    +0.324 C 
BRANCH  12  13
ATOM     13  C   UNL     1       1.265  -8.331   1.879  0.00  0.00    +0.248 C 
ATOM     14  O   UNL     1       0.695  -8.766   0.901  0.00  0.00    -0.272 OA
ATOM     15  N   UNL     1       1.810  -9.177   2.775  0.00  0.00    -0.327 N 
ATOM     16  H   UNL     1       2.265  -8.829   3.557  0.00  0.00    +0.145 HD
ATOM     17  H   UNL     1       1.747 -10.136   2.637  0.00  0.00    +0.145 HD
ENDBRANCH  12  13
ENDBRANCH  11  12
ENDBRANCH   6  11
BRANCH   3  18
ATOM     18  C   UNL     1       0.706  -0.527   1.180  0.00  0.00    -0.046 C 
BRANCH  18  19
ATOM     19  N   UNL     1      -0.002  -0.010  -0.006  0.00  0.00    +0.385 N 
ATOM     20  H   UNL     1      -0.968  -0.359  -0.002  0.00  0.00    -0.085 HD
ATOM     21  H   UNL     1       0.476  -0.335  -0.854  0.00  0.00    -0.085 HD
BRANCH  19  22
ATOM     22  C   UNL     1      -0.018   1.465   0.010  0.00  0.00    -0.077 C 
ATOM     23  C   UNL     1       1.417   1.994  -0.001  0.00  0.00    -0.011 C 
ATOM     24  C   UNL     1      -0.758   1.972  -1.229  0.00  0.00    -0.011 C 
ATOM     25  C   UNL     1      -0.734   1.958   1.269  0.00  0.00    -0.011 C 
ENDBRANCH  19  22
ENDBRANCH  18  19
ENDBRANCH   3  18
TORSDOF 8
