REMARK  Name = ZINC48026438
REMARK  8 active torsions:
REMARK  status: ('A' for Active; 'I' for Inactive)
REMARK    1  A    between atoms: C_4  and  O_8
REMARK    2  A    between atoms: O_8  and  C_9
REMARK    3  A    between atoms: C_9  and  C_10
REMARK    4  A    between atoms: C_10  and  C_12
REMARK    5  A    between atoms: C_10  and  O_23
REMARK    6  A    between atoms: C_12  and  N_13
REMARK    7  A    between atoms: C_16  and  C_19
REMARK    8  A    between atoms: C_19  and  C_20
REMARK                            x       y       z     vdW  Elec       q    Type
REMARK                         _______ _______ _______ _____ _____    ______ ____
ROOT
ATOM      1  C   UNL     1       4.897  -4.148  -0.195  0.00  0.00    -0.044 C 
ENDROOT
BRANCH   1   2
ATOM      2  N   UNL     1       6.263  -4.690  -0.212  0.00  0.00    +0.381 N 
ATOM      3  C   UNL     1       6.962  -4.212  -1.411  0.00  0.00    -0.078 C 
ATOM      4  C   UNL     1       8.410  -4.707  -1.393  0.00  0.00    -0.015 C 
ATOM      5  C   UNL     1       8.420  -6.239  -1.370  0.00  0.00    -0.006 C 
ATOM      6  C   UNL     1       7.625  -6.726  -0.155  0.00  0.00    -0.015 C 
ATOM      7  C   UNL     1       6.206  -6.156  -0.220  0.00  0.00    -0.078 C 
ATOM      8  H   UNL     1       6.758  -4.377   0.610  0.00  0.00    -0.082 HD
BRANCH   5   9
ATOM      9  C   UNL     1       9.862  -6.739  -1.271  0.00  0.00    +0.099 C 
BRANCH   9  10
ATOM     10  C   UNL     1       9.880  -8.243  -1.372  0.00  0.00    +0.211 C 
ATOM     11  O   UNL     1       8.841  -8.854  -1.509  0.00  0.00    -0.276 OA
ATOM     12  N   UNL     1      11.050  -8.909  -1.310  0.00  0.00    -0.329 N 
ATOM     13  H   UNL     1      11.881  -8.420  -1.200  0.00  0.00    +0.145 HD
ATOM     14  H   UNL     1      11.062  -9.876  -1.375  0.00  0.00    +0.145 HD
ENDBRANCH   9  10
ENDBRANCH   5   9
ENDBRANCH   1   2
BRANCH   1  15
ATOM     15  C   UNL     1       4.955  -2.625  -0.062  0.00  0.00    +0.135 C 
BRANCH  15  16
ATOM     16  O   UNL     1       5.620  -2.278   1.154  0.00  0.00    -0.390 OA
ATOM     17  H   UNL     1       5.188  -2.618   1.950  0.00  0.00    +0.210 HD
ENDBRANCH  15  16
BRANCH  15  18
ATOM     18  C   UNL     1       3.532  -2.061  -0.044  0.00  0.00    +0.258 C 
BRANCH  18  19
ATOM     19  O   UNL     1       3.586  -0.633  -0.037  0.00  0.00    -0.488 OA
BRANCH  19  23
ATOM     20  C   UNL     1      -0.017   1.379   0.010  0.00  0.00    +0.021 A 
ATOM     21  C   UNL     1       1.170   2.089   0.002  0.00  0.00    +0.025 A 
ATOM     22  C   UNL     1       2.378   1.418  -0.013  0.00  0.00    +0.083 A 
ATOM     23  C   UNL     1       2.400   0.029  -0.021  0.00  0.00    +0.140 A 
ATOM     24  C   UNL     1       1.208  -0.680  -0.013  0.00  0.00    +0.067 A 
ATOM     25  C   UNL     1       0.002  -0.004   0.002  0.00  0.00    +0.045 A 
ATOM     26 CL   UNL     1      -1.490  -0.892   0.012  0.00  0.00    -0.083 Cl
ATOM     27 CL   UNL     1       3.867   2.310  -0.024  0.00  0.00    -0.080 Cl
ENDBRANCH  19  23
ENDBRANCH  18  19
ENDBRANCH  15  18
ENDBRANCH   1  15
TORSDOF 8
