REMARK  Name = ZINC30825759
REMARK  9 active torsions:
REMARK  status: ('A' for Active; 'I' for Inactive)
REMARK    1  A    between atoms: C_1  and  C_2
REMARK    2  A    between atoms: N_5  and  C_8
REMARK    3  A    between atoms: C_11  and  C_17
REMARK    4  A    between atoms: C_13  and  N_14
REMARK    5  A    between atoms: N_19  and  C_20
REMARK    6  A    between atoms: C_20  and  N_22
REMARK    7  A    between atoms: N_22  and  C_23
REMARK    8  A    between atoms: C_28  and  N_29
REMARK    9  A    between atoms: N_32  and  C_35
REMARK                            x       y       z     vdW  Elec       q    Type
REMARK                         _______ _______ _______ _____ _____    ______ ____
ROOT
ATOM      1  C   UNL     1       4.761  -4.144   0.268  0.00  0.00    +0.250 C 
ATOM      2  O   UNL     1       3.751  -4.814   0.368  0.00  0.00    -0.270 OA
ATOM      3  N   UNL     1       4.670  -2.812   0.083  0.00  0.00    -0.264 N 
ATOM      4  H   UNL     1       5.583  -2.205  -0.007  0.00  0.00    +0.157 HD
ENDROOT
BRANCH   1   8
ATOM      5  C   UNL     1       8.571  -5.991   0.502  0.00  0.00    +0.060 A 
ATOM      6  C   UNL     1       8.472  -4.616   0.311  0.00  0.00    +0.026 A 
ATOM      7  C   UNL     1       7.246  -4.019   0.230  0.00  0.00    +0.015 A 
ATOM      8  C   UNL     1       6.084  -4.788   0.350  0.00  0.00    +0.039 A 
ATOM      9  C   UNL     1       6.180  -6.170   0.542  0.00  0.00    +0.047 A 
ATOM     10  C   UNL     1       7.419  -6.766   0.617  0.00  0.00    +0.148 A 
BRANCH   5  15
ATOM     11  C   UNL     1      13.986  -7.546   0.725  0.00  0.00    +0.007 C 
ATOM     12  C   UNL     1      12.706  -6.713   0.624  0.00  0.00    -0.011 C 
ATOM     13  C   UNL     1      11.867  -6.909   1.889  0.00  0.00    +0.022 C 
ATOM     14  C   UNL     1      10.561  -6.122   1.756  0.00  0.00    +0.105 C 
ATOM     15  N   UNL     1       9.822  -6.593   0.579  0.00  0.00    -0.328 N 
ATOM     16  C   UNL     1      10.588  -6.372  -0.654  0.00  0.00    +0.105 C 
ATOM     17  C   UNL     1      11.895  -7.167  -0.593  0.00  0.00    +0.022 C 
ENDBRANCH   5  15
BRANCH  10  18
ATOM     18  N   UNL     1       7.527  -8.228   0.821  0.00  0.00    +0.058 N 
ATOM     19  O   UNL     1       6.523  -8.918   0.823  0.00  0.00    -0.126 OA
ATOM     20  O   UNL     1       8.619  -8.741   0.985  0.00  0.00    -0.126 OA
ENDBRANCH  10  18
ENDBRANCH   1   8
BRANCH   3  21
ATOM     21  C   UNL     1       3.460  -2.223   0.009  0.00  0.00    +0.141 C 
ATOM     22  S   UNL     1       2.038  -3.167   0.149  0.00  0.00    -0.018 S 
BRANCH  21  23
ATOM     23  N   UNL     1       3.369  -0.891  -0.177  0.00  0.00    -0.295 N 
ATOM     24  H   UNL     1       4.279  -0.295  -0.342  0.00  0.00    +0.154 HD
BRANCH  23  25
ATOM     25  C   UNL     1       2.115  -0.265  -0.158  0.00  0.00    +0.055 A 
ATOM     26  C   UNL     1       1.058  -0.805  -0.875  0.00  0.00    +0.025 A 
ATOM     27  C   UNL     1      -0.178  -0.187  -0.856  0.00  0.00    +0.003 A 
ATOM     28  C   UNL     1      -0.366   0.971  -0.123  0.00  0.00    +0.022 A 
ATOM     29  C   UNL     1       0.683   1.518   0.594  0.00  0.00    +0.064 A 
ATOM     30  C   UNL     1       1.927   0.902   0.580  0.00  0.00    +0.070 A 
ATOM     31 CL   UNL     1       0.444   2.972   1.511  0.00  0.00    -0.082 Cl
BRANCH  30  32
ATOM     32  N   UNL     1       2.991   1.453   1.306  0.00  0.00    -0.331 N 
ATOM     33  C   UNL     1       2.708   1.437   2.748  0.00  0.00    +0.086 C 
ATOM     34  C   UNL     1       3.923   1.971   3.509  0.00  0.00    -0.060 C 
ATOM     35  N   UNL     1       4.225   3.334   3.050  0.00  0.00    +0.380 N 
ATOM     36  C   UNL     1       4.508   3.350   1.608  0.00  0.00    -0.060 C 
ATOM     37  C   UNL     1       3.293   2.816   0.847  0.00  0.00    +0.086 C 
ATOM     38  C   UNL     1       5.341   3.911   3.812  0.00  0.00    -0.096 C 
ATOM     39  H   UNL     1       3.337   3.957   3.229  0.00  0.00    -0.082 HD
ENDBRANCH  30  32
ENDBRANCH  23  25
ENDBRANCH  21  23
ENDBRANCH   3  21
TORSDOF 7
