REMARK  Name = ZINC35375032
REMARK  8 active torsions:
REMARK  status: ('A' for Active; 'I' for Inactive)
REMARK    1  A    between atoms: C_1  and  C_2
REMARK    2  A    between atoms: C_2  and  C_3
REMARK    3  A    between atoms: C_3  and  C_5
REMARK    4  A    between atoms: C_3  and  N_6
REMARK    5  A    between atoms: C_7  and  C_9
REMARK    6  A    between atoms: N_22  and  C_23
REMARK    7  A    between atoms: C_26  and  O_29
REMARK    8  A    between atoms: O_29  and  C_30
REMARK                            x       y       z     vdW  Elec       q    Type
REMARK                         _______ _______ _______ _____ _____    ______ ____
ROOT
ATOM      1  C   UNL     1      -0.004  -0.125  -4.868  0.00  0.00    +0.028 C 
ATOM      2  C   UNL     1      -1.225   0.836  -4.978  0.00  0.00    +0.061 C 
ATOM      3  S   UNL     1      -1.419   0.821  -6.818  0.00  0.00    -0.174 S 
ATOM      4  C   UNL     1       0.353   0.563  -7.232  0.00  0.00    -0.016 C 
ATOM      5  N   UNL     1       0.943   0.110  -5.963  0.00  0.00    +0.397 N 
ATOM      6  C   UNL     1       0.475  -0.505  -8.309  0.00  0.00    +0.017 C 
ATOM      7  C   UNL     1       1.955  -0.732  -8.639  0.00  0.00    +0.109 C 
ATOM      8  N   UNL     1       2.568   0.562  -8.969  0.00  0.00    -0.285 N 
ATOM      9  C   UNL     1       2.451   1.668  -8.008  0.00  0.00    +0.109 C 
ATOM     10  C   UNL     1       0.968   1.881  -7.682  0.00  0.00    +0.017 C 
ATOM     11  C   UNL     1       3.225   0.733 -10.133  0.00  0.00    +0.306 C 
ATOM     12  O   UNL     1       3.393  -0.212 -10.881  0.00  0.00    -0.252 OA
ATOM     13  N   UNL     1       3.697   1.950 -10.469  0.00  0.00    -0.269 N 
ATOM     14  H   UNL     1       1.610   0.804  -5.659  0.00  0.00    -0.083 HD
ATOM     15  H   UNL     1       3.656   2.679  -9.831  0.00  0.00    +0.156 HD
ATOM     16  H   UNL     1       1.442  -0.749  -6.138  0.00  0.00    -0.083 HD
ENDROOT
BRANCH  13  17
ATOM     17  C   UNL     1       4.247   2.162 -11.741  0.00  0.00    +0.035 A 
ATOM     18  C   UNL     1       3.741   1.479 -12.838  0.00  0.00    +0.027 A 
ATOM     19  C   UNL     1       4.283   1.688 -14.091  0.00  0.00    +0.047 A 
ATOM     20  C   UNL     1       5.332   2.581 -14.253  0.00  0.00    +0.120 A 
ATOM     21  C   UNL     1       5.838   3.264 -13.156  0.00  0.00    +0.047 A 
ATOM     22  C   UNL     1       5.294   3.059 -11.904  0.00  0.00    +0.027 A 
BRANCH  20  23
ATOM     23  O   UNL     1       5.865   2.787 -15.487  0.00  0.00    -0.495 OA
ATOM     24  C   UNL     1       6.944   3.720 -15.580  0.00  0.00    +0.277 C 
ENDBRANCH  20  23
ENDBRANCH  13  17
BRANCH   1  26
ATOM     25  N   UNL     1       0.024  -0.077  -2.395  0.00  0.00    -0.314 N 
ATOM     26  C   UNL     1       0.692   0.106  -3.551  0.00  0.00    +0.200 C 
ATOM     27  O   UNL     1       1.852   0.458  -3.533  0.00  0.00    -0.278 OA
ATOM     28  H   UNL     1      -0.904  -0.358  -2.410  0.00  0.00    +0.149 HD
BRANCH  25  29
ATOM     29  C   UNL     1       0.701   0.148  -1.115  0.00  0.00    +0.070 C 
ATOM     30  C   UNL     1       1.458  -1.118  -0.709  0.00  0.00    +0.028 C 
BRANCH  29  32
ATOM     31  C   UNL     1      -1.006   1.820  -0.386  0.00  0.00    +0.005 C 
ATOM     32  C   UNL     1      -0.336   0.488  -0.043  0.00  0.00    +0.018 C 
ENDBRANCH  29  32
ENDBRANCH  25  29
ENDBRANCH   1  26
TORSDOF 5
