REMARK  Name = ZINC14755311
REMARK  11 active torsions:
REMARK  status: ('A' for Active; 'I' for Inactive)
REMARK    1  A    between atoms: C_1  and  C_2
REMARK    2  A    between atoms: C_2  and  C_3
REMARK    3  A    between atoms: C_5  and  C_34
REMARK    4  A    between atoms: C_7  and  C_9
REMARK    5  A    between atoms: C_9  and  N_10
REMARK    6  A    between atoms: N_10  and  C_11
REMARK    7  A    between atoms: C_13  and  C_22
REMARK    8  A    between atoms: C_15  and  S_17
REMARK    9  A    between atoms: S_17  and  N_20
REMARK   10  A    between atoms: N_20  and  C_21
REMARK   11  A    between atoms: N_24  and  C_25
REMARK                            x       y       z     vdW  Elec       q    Type
REMARK                         _______ _______ _______ _____ _____    ______ ____
ROOT
ATOM      1  C   UNL     1      -6.677  -0.737  -2.326  0.00  0.00    +0.030 A 
ATOM      2  C   UNL     1      -6.924  -1.934  -2.981  0.00  0.00    +0.036 A 
ATOM      3  C   UNL     1      -8.100  -2.094  -3.713  0.00  0.00    +0.041 A 
ATOM      4  C   UNL     1      -9.021  -1.046  -3.782  0.00  0.00    +0.041 A 
ATOM      5  C   UNL     1      -8.766   0.141  -3.127  0.00  0.00    +0.108 A 
ATOM      6  C   UNL     1      -7.603   0.297  -2.397  0.00  0.00    +0.051 A 
ENDROOT
BRANCH   3   7
ATOM      7  C   UNL     1      -8.370  -3.366  -4.415  0.00  0.00    +0.248 C 
ATOM      8  O   UNL     1      -9.396  -3.503  -5.052  0.00  0.00    -0.270 OA
ATOM      9  N   UNL     1      -7.480  -4.375  -4.347  0.00  0.00    -0.281 N 
ATOM     10  H   UNL     1      -6.631  -4.244  -3.896  0.00  0.00    +0.155 HD
BRANCH   9  11
ATOM     11  C   UNL     1      -7.778  -5.612  -4.928  0.00  0.00    +0.034 A 
ATOM     12  C   UNL     1      -8.511  -5.669  -6.107  0.00  0.00    +0.023 A 
ATOM     13  C   UNL     1      -8.802  -6.892  -6.676  0.00  0.00    +0.006 A 
ATOM     14  C   UNL     1      -8.367  -8.063  -6.077  0.00  0.00    -0.044 A 
ATOM     15  C   UNL     1      -7.638  -8.010  -4.904  0.00  0.00    -0.042 A 
ATOM     16  C   UNL     1      -7.339  -6.785  -4.332  0.00  0.00    +0.027 A 
ATOM     17  C   UNL     1      -7.285  -9.412  -4.456  0.00  0.00    +0.036 C 
ATOM     18  C   UNL     1      -8.243 -10.338  -5.235  0.00  0.00    +0.009 C 
ATOM     19  C   UNL     1      -8.554  -9.506  -6.497  0.00  0.00    +0.036 C 
ENDBRANCH   9  11
ENDBRANCH   3   7
BRANCH   5  20
ATOM     20  S   UNL     1      -9.930   1.461  -3.217  0.00  0.00    +0.058 S 
ATOM     21  O   UNL     1      -9.206   2.658  -2.969  0.00  0.00    -0.153 OA
ATOM     22  O   UNL     1     -10.683   1.258  -4.405  0.00  0.00    -0.153 OA
BRANCH  20  23
ATOM     23  N   UNL     1     -10.982   1.273  -1.952  0.00  0.00    -0.193 NA
ATOM     24  C   UNL     1     -10.500   1.397  -0.575  0.00  0.00    +0.127 C 
ATOM     25  H   UNL     1     -11.917   1.081  -2.124  0.00  0.00    +0.148 HD
ENDBRANCH  20  23
ENDBRANCH   5  20
BRANCH   1  26
ATOM     26  N   UNL     1      -5.500  -0.572  -1.592  0.00  0.00    -0.338 N 
ATOM     27  H   UNL     1      -5.329   0.264  -1.130  0.00  0.00    +0.146 HD
BRANCH  26  28
ATOM     28  C   UNL     1      -4.524  -1.662  -1.518  0.00  0.00    +0.156 C 
BRANCH  28  33
ATOM     29  C   UNL     1      -1.389  -0.509  -0.035  0.00  0.00    +0.084 A 
ATOM     30  N   UNL     1      -2.088  -0.768   1.036  0.00  0.00    -0.347 N 
ATOM     31  C   UNL     1      -3.300  -1.215   0.675  0.00  0.00    +0.035 A 
ATOM     32  H   UNL     1      -1.877  -0.675  -2.048  0.00  0.00    +0.167 HD
ATOM     33  C   UNL     1      -3.354  -1.232  -0.671  0.00  0.00    +0.054 A 
ATOM     34  N   UNL     1      -2.143  -0.779  -1.121  0.00  0.00    -0.346 N 
ATOM     35  C   UNL     1      -4.408  -1.625   1.611  0.00  0.00    +0.065 C 
ATOM     36  H   UNL     1      -1.780  -0.656   1.949  0.00  0.00    +0.167 HD
BRANCH  29  38
ATOM     37  C   UNL     1       0.004   1.543  -0.052  0.00  0.00    +0.012 C 
ATOM     38  C   UNL     1       0.025   0.013  -0.055  0.00  0.00    +0.069 C 
ENDBRANCH  29  38
ENDBRANCH  28  33
ENDBRANCH  26  28
ENDBRANCH   1  26
TORSDOF 8
