REMARK  Name = ZINC67267161
REMARK  5 active torsions:
REMARK  status: ('A' for Active; 'I' for Inactive)
REMARK    1  A    between atoms: C_1  and  C_2
REMARK    2  A    between atoms: C_5  and  C_8
REMARK    3  A    between atoms: C_8  and  C_10
REMARK    4  A    between atoms: C_8  and  N_11
REMARK    5  A    between atoms: C_12  and  C_14
REMARK                            x       y       z     vdW  Elec       q    Type
REMARK                         _______ _______ _______ _____ _____    ______ ____
ROOT
ATOM      1  C   UNL     1      -2.261  -6.529   2.025  0.00  0.00    +0.075 C 
ATOM      2  C   UNL     1      -1.488  -6.577   3.345  0.00  0.00    +0.015 C 
ATOM      3  C   UNL     1      -2.408  -7.094   4.455  0.00  0.00    +0.036 C 
ATOM      4  C   UNL     1      -2.914  -8.486   4.092  0.00  0.00    +0.112 C 
ATOM      5  C   UNL     1      -3.666  -8.459   2.765  0.00  0.00    +0.036 C 
ATOM      6  C   UNL     1      -2.741  -7.936   1.663  0.00  0.00    +0.015 C 
ATOM      7  C   UNL     1      -1.766  -9.466   4.029  0.00  0.00    +0.244 C 
ATOM      8  O   UNL     1      -0.809  -9.428   3.285  0.00  0.00    -0.273 OA
ATOM      9  N   UNL     1      -2.030 -10.392   4.973  0.00  0.00    -0.238 N 
ATOM     10  C   UNL     1      -3.175 -10.130   5.614  0.00  0.00    +0.307 C 
ATOM     11  O   UNL     1      -3.624 -10.822   6.507  0.00  0.00    -0.252 OA
ATOM     12  N   UNL     1      -3.775  -9.013   5.159  0.00  0.00    -0.285 N 
ATOM     13  H   UNL     1      -1.460 -11.154   5.164  0.00  0.00    +0.159 HD
ATOM     14  H   UNL     1      -4.610  -8.633   5.473  0.00  0.00    +0.151 HD
ENDROOT
BRANCH   1  16
ATOM     15  N   UNL     1      -0.816  -4.781   1.039  0.00  0.00    -0.309 N 
ATOM     16  C   UNL     1      -1.361  -6.009   0.935  0.00  0.00    +0.217 C 
ATOM     17  O   UNL     1      -1.125  -6.696  -0.037  0.00  0.00    -0.275 OA
ATOM     18  H   UNL     1      -1.004  -4.231   1.816  0.00  0.00    +0.149 HD
BRANCH  15  19
ATOM     19  C   UNL     1       0.059  -4.275  -0.021  0.00  0.00    +0.100 C 
ATOM     20  C   UNL     1       1.488  -4.768   0.218  0.00  0.00    +0.033 C 
BRANCH  19  25
ATOM     21  C   UNL     1      -0.018   1.503   0.010  0.00  0.00    +0.044 C 
ATOM     22  C   UNL     1       0.002  -0.004   0.002  0.00  0.00    -0.050 A 
ATOM     23  C   UNL     1       0.006  -0.689  -1.199  0.00  0.00    +0.004 A 
ATOM     24  C   UNL     1       0.025  -2.071  -1.206  0.00  0.00    +0.006 A 
ATOM     25  C   UNL     1       0.040  -2.768  -0.013  0.00  0.00    -0.027 A 
ATOM     26  C   UNL     1       0.037  -2.084   1.188  0.00  0.00    +0.006 A 
ATOM     27  C   UNL     1       0.023  -0.702   1.195  0.00  0.00    +0.004 A 
ENDBRANCH  19  25
ENDBRANCH  15  19
ENDBRANCH   1  16
TORSDOF 3
