REMARK  Name = ZINC37627625
REMARK  9 active torsions:
REMARK  status: ('A' for Active; 'I' for Inactive)
REMARK    1  A    between atoms: C_1  and  C_2
REMARK    2  A    between atoms: C_2  and  O_3
REMARK    3  A    between atoms: O_3  and  C_4
REMARK    4  A    between atoms: C_4  and  C_6
REMARK    5  A    between atoms: C_9  and  N_13
REMARK    6  A    between atoms: C_14  and  C_16
REMARK    7  A    between atoms: C_16  and  N_17
REMARK    8  A    between atoms: C_18  and  C_20
REMARK    9  A    between atoms: C_20  and  N_21
REMARK                            x       y       z     vdW  Elec       q    Type
REMARK                         _______ _______ _______ _____ _____    ______ ____
ROOT
ATOM      1  N   UNL     1      -6.680  -4.062   0.045  0.00  0.00    -0.283 N 
ATOM      2  C   UNL     1      -7.721  -3.355  -0.440  0.00  0.00    +0.234 C 
ATOM      3  O   UNL     1      -7.530  -2.279  -0.966  0.00  0.00    -0.274 OA
ATOM      4  H   UNL     1      -6.822  -4.956   0.393  0.00  0.00    +0.155 HD
ENDROOT
BRANCH   1   8
ATOM      5  C   UNL     1      -2.857  -2.406   0.046  0.00  0.00    +0.060 A 
ATOM      6  C   UNL     1      -3.981  -1.575   0.054  0.00  0.00    +0.017 A 
ATOM      7  C   UNL     1      -5.243  -2.126   0.053  0.00  0.00    +0.025 A 
ATOM      8  C   UNL     1      -5.401  -3.508   0.045  0.00  0.00    +0.048 A 
ATOM      9  C   UNL     1      -4.284  -4.339   0.037  0.00  0.00    +0.040 A 
ATOM     10  C   UNL     1      -3.019  -3.795   0.032  0.00  0.00    +0.032 A 
ATOM     11 BR   UNL     1      -4.505  -6.217   0.026  0.00  0.00    -0.048 Br
BRANCH   5  12
ATOM     12  C   UNL     1      -1.504  -1.820   0.047  0.00  0.00    +0.339 C 
ATOM     13  O   UNL     1      -0.528  -2.544   0.035  0.00  0.00    -0.245 OA
BRANCH  12  14
ATOM     14  O   UNL     1      -1.350  -0.481   0.060  0.00  0.00    -0.461 OA
BRANCH  14  16
ATOM     15  C   UNL     1      -0.037   1.548   0.077  0.00  0.00    +0.048 C 
ATOM     16  C   UNL     1      -0.011   0.018   0.060  0.00  0.00    +0.229 C 
ENDBRANCH  14  16
ENDBRANCH  12  14
ENDBRANCH   5  12
ENDBRANCH   1   8
BRANCH   2  17
ATOM     17  C   UNL     1      -9.121  -3.901  -0.327  0.00  0.00    +0.200 C 
BRANCH  17  18
ATOM     18  N   UNL     1     -10.065  -2.953  -0.923  0.00  0.00    -0.308 N 
ATOM     19  C   UNL     1     -11.383  -3.232  -0.936  0.00  0.00    +0.196 C 
ATOM     20  O   UNL     1     -11.788  -4.269  -0.455  0.00  0.00    -0.278 OA
ATOM     21  H   UNL     1      -9.741  -2.123  -1.308  0.00  0.00    +0.149 HD
BRANCH  19  22
ATOM     22  C   UNL     1     -12.354  -2.257  -1.550  0.00  0.00    +0.011 C 
BRANCH  22  23
ATOM     23  N   UNL     1     -13.719  -2.789  -1.440  0.00  0.00    +0.384 N 
ATOM     24  H   UNL     1     -14.369  -2.136  -1.850  0.00  0.00    -0.089 HD
ATOM     25  H   UNL     1     -13.775  -3.671  -1.927  0.00  0.00    -0.089 HD
ATOM     26  H   UNL     1     -13.949  -2.926  -0.467  0.00  0.00    -0.089 HD
ENDBRANCH  22  23
ENDBRANCH  19  22
ENDBRANCH  17  18
ENDBRANCH   2  17
TORSDOF 8
