REMARK  Name = ZINC08845571
REMARK  12 active torsions:
REMARK  status: ('A' for Active; 'I' for Inactive)
REMARK    1  A    between atoms: C_1  and  C_2
REMARK    2  A    between atoms: C_2  and  O_3
REMARK    3  A    between atoms: O_3  and  C_4
REMARK    4  A    between atoms: C_4  and  C_6
REMARK    5  A    between atoms: C_7  and  C_29
REMARK    6  A    between atoms: C_10  and  N_11
REMARK    7  A    between atoms: C_12  and  C_14
REMARK    8  A    between atoms: C_16  and  C_20
REMARK    9  A    between atoms: C_22  and  C_28
REMARK   10  A    between atoms: C_24  and  C_27
REMARK   11  A    between atoms: C_25  and  O_26
REMARK   12  A    between atoms: C_32  and  C_35
REMARK                            x       y       z     vdW  Elec       q    Type
REMARK                         _______ _______ _______ _____ _____    ______ ____
ROOT
ATOM      1  N   UNL     1       7.284  -3.625  -0.086  0.00  0.00    -0.274 N 
ATOM      2  C   UNL     1       5.936  -3.589  -0.073  0.00  0.00    +0.266 C 
ATOM      3  O   UNL     1       5.300  -4.625  -0.072  0.00  0.00    -0.268 OA
ATOM      4  H   UNL     1       7.791  -2.798  -0.086  0.00  0.00    +0.156 HD
ENDROOT
BRANCH   2   5
ATOM      5  C   UNL     1       5.236  -2.295  -0.059  0.00  0.00    +0.121 A 
ATOM      6  C   UNL     1       3.868  -2.095  -0.039  0.00  0.00    +0.062 A 
ATOM      7  C   UNL     1       3.697  -0.699  -0.036  0.00  0.00    +0.097 A 
ATOM      8  N   UNL     1       4.895  -0.152  -0.044  0.00  0.00    -0.173 NA
ATOM      9  N   UNL     1       5.808  -1.054  -0.058  0.00  0.00    -0.272 N 
ATOM     10  H   UNL     1       6.792  -0.875  -0.066  0.00  0.00    +0.189 HD
BRANCH   7  11
ATOM     11  C   UNL     1       2.402   0.026  -0.021  0.00  0.00    +0.044 A 
ATOM     12  C   UNL     1       1.204  -0.683  -0.013  0.00  0.00    +0.017 A 
ATOM     13  C   UNL     1       0.002  -0.004   0.002  0.00  0.00    -0.049 A 
ATOM     14  C   UNL     1      -0.017   1.379   0.010  0.00  0.00    +0.010 A 
ATOM     15  C   UNL     1       1.167   2.093   0.002  0.00  0.00    -0.008 A 
ATOM     16  C   UNL     1       2.380   1.424  -0.013  0.00  0.00    +0.129 A 
ATOM     17  C   UNL     1       1.138   3.599   0.011  0.00  0.00    +0.047 C 
ATOM     18  C   UNL     1      -1.294  -0.773   0.010  0.00  0.00    +0.044 C 
BRANCH  16  19
ATOM     19  O   UNL     1       3.545   2.124  -0.020  0.00  0.00    -0.506 OA
ATOM     20  H   UNL     1       3.874   2.331  -0.905  0.00  0.00    +0.292 HD
ENDBRANCH  16  19
ENDBRANCH   7  11
ENDBRANCH   2   5
BRANCH   1  25
ATOM     21  C   UNL     1       9.312  -5.079  -0.118  0.00  0.00    +0.095 A 
ATOM     22  C   UNL     1       9.733  -6.467  -0.124  0.00  0.00    +0.005 A 
ATOM     23  C   UNL     1       8.751  -7.403  -0.120  0.00  0.00    +0.056 A 
ATOM     24  S   UNL     1       7.259  -6.432  -0.101  0.00  0.00    -0.080 S 
ATOM     25  C   UNL     1       7.943  -4.842  -0.098  0.00  0.00    +0.087 A 
BRANCH  22  26
ATOM     26  C   UNL     1      11.167  -6.844  -0.139  0.00  0.00    -0.017 A 
ATOM     27  C   UNL     1      12.031  -6.271  -1.072  0.00  0.00    +0.009 A 
ATOM     28  C   UNL     1      13.366  -6.622  -1.077  0.00  0.00    +0.004 A 
ATOM     29  C   UNL     1      13.844  -7.548  -0.168  0.00  0.00    -0.050 A 
ATOM     30  C   UNL     1      12.990  -8.124   0.756  0.00  0.00    +0.004 A 
ATOM     31  C   UNL     1      11.655  -7.777   0.775  0.00  0.00    +0.009 A 
ATOM     32  C   UNL     1      15.302  -7.931  -0.183  0.00  0.00    +0.044 C 
ENDBRANCH  22  26
BRANCH  21  33
ATOM     33  C   UNL     1      10.280  -3.982  -0.128  0.00  0.00    +0.342 C 
ATOM     34  O   UNL     1      10.698  -3.530   0.921  0.00  0.00    -0.245 OA
BRANCH  33  35
ATOM     35  O   UNL     1      10.710  -3.473  -1.301  0.00  0.00    -0.461 OA
BRANCH  35  37
ATOM     36  C   UNL     1      12.037  -1.943  -2.653  0.00  0.00    +0.048 C 
ATOM     37  C   UNL     1      11.671  -2.386  -1.235  0.00  0.00    +0.229 C 
ENDBRANCH  35  37
ENDBRANCH  33  35
ENDBRANCH  21  33
ENDBRANCH   1  25
TORSDOF 8
