REMARK  Name = ZINC35681946
REMARK  14 active torsions:
REMARK  status: ('A' for Active; 'I' for Inactive)
REMARK    1  A    between atoms: C_1  and  C_2
REMARK    2  A    between atoms: C_2  and  O_3
REMARK    3  A    between atoms: O_3  and  C_4
REMARK    4  A    between atoms: C_7  and  N_10
REMARK    5  A    between atoms: C_12  and  N_33
REMARK    6  A    between atoms: C_13  and  N_32
REMARK    7  A    between atoms: N_17  and  C_18
REMARK    8  A    between atoms: C_18  and  C_19
REMARK    9  A    between atoms: C_19  and  C_21
REMARK   10  A    between atoms: C_19  and  N_29
REMARK   11  A    between atoms: C_26  and  O_27
REMARK   12  A    between atoms: O_27  and  C_28
REMARK   13  A    between atoms: N_29  and  C_30
REMARK   14  A    between atoms: N_29  and  C_31
REMARK                            x       y       z     vdW  Elec       q    Type
REMARK                         _______ _______ _______ _____ _____    ______ ____
ROOT
ATOM      1  N   UNL     1       0.886  -6.021  -2.017  0.00  0.00    -0.297 N 
ATOM      2  C   UNL     1       1.518  -6.524  -3.144  0.00  0.00    +0.160 A 
ATOM      3  C   UNL     1       1.612  -7.898  -3.346  0.00  0.00    +0.205 A 
ATOM      4  C   UNL     1       2.255  -8.357  -4.492  0.00  0.00    +0.154 A 
ATOM      5  N   UNL     1       2.756  -7.472  -5.352  0.00  0.00    -0.198 NA
ATOM      6  C   UNL     1       2.648  -6.172  -5.127  0.00  0.00    +0.219 A 
ATOM      7  N   UNL     1       2.039  -5.699  -4.050  0.00  0.00    -0.197 NA
ATOM      8  N   UNL     1       3.182  -5.283  -6.043  0.00  0.00    -0.315 N 
ATOM      9  H   UNL     1       0.573  -6.626  -1.326  0.00  0.00    +0.154 HD
ATOM     10  H   UNL     1       3.111  -4.328  -5.891  0.00  0.00    +0.149 HD
ENDROOT
BRANCH   1  14
ATOM     11  C   UNL     1       0.328  -1.911  -1.598  0.00  0.00    +0.121 A 
ATOM     12  C   UNL     1       0.300  -2.489  -2.859  0.00  0.00    +0.047 A 
ATOM     13  C   UNL     1       0.485  -3.851  -2.998  0.00  0.00    +0.027 A 
ATOM     14  C   UNL     1       0.699  -4.641  -1.877  0.00  0.00    +0.033 A 
ATOM     15  C   UNL     1       0.727  -4.061  -0.615  0.00  0.00    +0.027 A 
ATOM     16  C   UNL     1       0.547  -2.698  -0.478  0.00  0.00    +0.047 A 
BRANCH  11  17
ATOM     17  O   UNL     1       0.146  -0.570  -1.462  0.00  0.00    -0.492 OA
BRANCH  17  19
ATOM     18  C   UNL     1      -0.257   1.658  -2.307  0.00  0.00    +0.048 C 
ATOM     19  C   UNL     1      -0.075   0.180  -2.658  0.00  0.00    +0.225 C 
ENDBRANCH  17  19
ENDBRANCH  11  17
ENDBRANCH   1  14
BRANCH   4  20
ATOM     20  N   UNL     1       2.373  -9.716  -4.735  0.00  0.00    -0.341 N 
ATOM     21  H   UNL     1       2.005 -10.355  -4.104  0.00  0.00    +0.144 HD
ATOM     22  H   UNL     1       2.822 -10.029  -5.535  0.00  0.00    +0.144 HD
ENDBRANCH   4  20
BRANCH   3  23
ATOM     23  N   UNL     1       1.042  -8.849  -2.366  0.00  0.00    +0.063 N 
ATOM     24  O   UNL     1      -0.102  -9.223  -2.481  0.00  0.00    -0.126 OA
ATOM     25  O   UNL     1       1.719  -9.251  -1.449  0.00  0.00    -0.126 OA
ENDBRANCH   3  23
BRANCH   8  26
ATOM     26  C   UNL     1       3.856  -5.785  -7.244  0.00  0.00    +0.094 C 
BRANCH  26  27
ATOM     27  C   UNL     1       4.454  -4.611  -8.022  0.00  0.00    -0.017 C 
BRANCH  27  28
ATOM     28  C   UNL     1       5.531  -3.957  -7.196  0.00  0.00    -0.018 A 
ATOM     29  C   UNL     1       5.231  -2.861  -6.409  0.00  0.00    +0.005 A 
ATOM     30  C   UNL     1       6.219  -2.261  -5.652  0.00  0.00    +0.000 A 
ATOM     31  C   UNL     1       7.510  -2.755  -5.678  0.00  0.00    +0.004 A 
ATOM     32  C   UNL     1       7.816  -3.850  -6.462  0.00  0.00    +0.046 A 
ATOM     33  C   UNL     1       6.824  -4.458  -7.220  0.00  0.00    +0.122 A 
BRANCH  33  34
ATOM     34  O   UNL     1       7.121  -5.539  -7.988  0.00  0.00    -0.495 OA
ATOM     35  C   UNL     1       8.474  -6.001  -7.963  0.00  0.00    +0.277 C 
ENDBRANCH  33  34
ENDBRANCH  27  28
BRANCH  27  36
ATOM     36  N   UNL     1       3.400  -3.631  -8.315  0.00  0.00    +0.382 N 
ATOM     37  C   UNL     1       3.947  -2.561  -9.161  0.00  0.00    -0.096 C 
ATOM     38  C   UNL     1       2.296  -4.296  -9.020  0.00  0.00    -0.096 C 
ATOM     39  H   UNL     1       3.058  -3.236  -7.452  0.00  0.00    -0.082 HD
ENDBRANCH  27  36
ENDBRANCH  26  27
ENDBRANCH   8  26
TORSDOF 10
