REMARK  Name = ZINC42346539
REMARK  11 active torsions:
REMARK  status: ('A' for Active; 'I' for Inactive)
REMARK    1  A    between atoms: C_1  and  C_2
REMARK    2  A    between atoms: C_2  and  N_3
REMARK    3  A    between atoms: N_3  and  C_4
REMARK    4  A    between atoms: N_3  and  C_6
REMARK    5  A    between atoms: C_4  and  C_5
REMARK    6  A    between atoms: C_6  and  C_8
REMARK    7  A    between atoms: C_6  and  C_25
REMARK    8  A    between atoms: C_8  and  N_9
REMARK    9  A    between atoms: N_12  and  C_13
REMARK   10  A    between atoms: C_13  and  C_14
REMARK   11  A    between atoms: N_16  and  C_17
REMARK                            x       y       z     vdW  Elec       q    Type
REMARK                         _______ _______ _______ _____ _____    ______ ____
ROOT
ATOM      1  N   UNL     1      -1.504  -1.692  -0.439  0.00  0.00    -0.301 N 
ATOM      2  C   UNL     1      -2.734  -2.240  -0.376  0.00  0.00    +0.300 C 
ATOM      3  O   UNL     1      -3.111  -2.988  -1.257  0.00  0.00    -0.253 OA
ATOM      4  N   UNL     1      -3.545  -1.958   0.663  0.00  0.00    -0.291 N 
ATOM      5  H   UNL     1      -1.202  -1.095   0.264  0.00  0.00    +0.150 HD
ATOM      6  H   UNL     1      -3.243  -1.361   1.365  0.00  0.00    +0.151 HD
ENDROOT
BRANCH   1   7
ATOM      7  C   UNL     1      -0.622  -1.999  -1.568  0.00  0.00    +0.095 C 
BRANCH   7   8
ATOM      8  C   UNL     1       0.669  -1.187  -1.442  0.00  0.00    -0.020 C 
BRANCH   8   9
ATOM      9  C   UNL     1       1.664  -1.664  -2.469  0.00  0.00    -0.052 A 
ATOM     10  C   UNL     1       2.678  -2.533  -2.112  0.00  0.00    +0.009 A 
ATOM     11  C   UNL     1       3.556  -2.942  -3.059  0.00  0.00    +0.045 A 
ATOM     12  S   UNL     1       2.958  -2.091  -4.510  0.00  0.00    -0.105 S 
ATOM     13  C   UNL     1       1.575  -1.251  -3.757  0.00  0.00    +0.047 A 
ENDBRANCH   8   9
BRANCH   8  14
ATOM     14  N   UNL     1       0.377   0.235  -1.667  0.00  0.00    +0.385 N 
ATOM     15  H   UNL     1      -0.143   0.340  -2.525  0.00  0.00    -0.081 HD
BRANCH  14  17
ATOM     16  C   UNL     1       0.410   0.692   0.739  0.00  0.00    -0.017 C 
ATOM     17  C   UNL     1      -0.418   0.755  -0.546  0.00  0.00    -0.081 C 
ENDBRANCH  14  17
BRANCH  14  18
ATOM     18  C   UNL     1       1.637   0.984  -1.763  0.00  0.00    -0.081 C 
ATOM     19  C   UNL     1       1.338   2.440  -2.126  0.00  0.00    -0.017 C 
ENDBRANCH  14  18
ENDBRANCH   8  14
ENDBRANCH   7   8
ENDBRANCH   1   7
BRANCH   4  20
ATOM     20  C   UNL     1      -4.881  -2.553   0.731  0.00  0.00    +0.202 C 
BRANCH  20  21
ATOM     21  C   UNL     1      -5.578  -2.081   1.981  0.00  0.00    +0.234 C 
ATOM     22  O   UNL     1      -5.014  -1.322   2.740  0.00  0.00    -0.274 OA
ATOM     23  N   UNL     1      -6.829  -2.502   2.255  0.00  0.00    -0.284 N 
ATOM     24  H   UNL     1      -7.256  -3.160   1.684  0.00  0.00    +0.155 HD
BRANCH  23  25
ATOM     25  C   UNL     1      -7.512  -1.991   3.365  0.00  0.00    +0.036 A 
ATOM     26  C   UNL     1      -8.389  -2.800   4.075  0.00  0.00    +0.026 A 
ATOM     27  C   UNL     1      -9.063  -2.295   5.170  0.00  0.00    +0.043 A 
ATOM     28  C   UNL     1      -8.865  -0.982   5.561  0.00  0.00    +0.159 A 
ATOM     29  C   UNL     1      -7.990  -0.171   4.854  0.00  0.00    +0.160 A 
ATOM     30  C   UNL     1      -7.310  -0.676   3.760  0.00  0.00    +0.064 A 
ATOM     31  F   UNL     1      -7.798   1.111   5.236  0.00  0.00    -0.202 F 
ATOM     32  F   UNL     1      -9.525  -0.490   6.632  0.00  0.00    -0.202 F 
ENDBRANCH  23  25
ENDBRANCH  20  21
ENDBRANCH   4  20
TORSDOF 9
