REMARK  Name = ZINC03340771
REMARK  7 active torsions:
REMARK  status: ('A' for Active; 'I' for Inactive)
REMARK    1  A    between atoms: C_3  and  S_28
REMARK    2  A    between atoms: C_6  and  C_7
REMARK    3  A    between atoms: C_8  and  C_9
REMARK    4  A    between atoms: C_9  and  O_11
REMARK    5  A    between atoms: O_11  and  C_12
REMARK    6  A    between atoms: C_12  and  C_13
REMARK    7  A    between atoms: S_28  and  N_31
REMARK                            x       y       z     vdW  Elec       q    Type
REMARK                         _______ _______ _______ _____ _____    ______ ____
ROOT
ATOM      1  C   UNL     1       4.382   6.630  -0.004  0.00  0.00    +0.332 C 
ATOM      2  O   UNL     1       5.597   6.695  -0.016  0.00  0.00    -0.246 OA
ENDROOT
BRANCH   1   4
ATOM      3  C   UNL     1       4.197   9.059   0.011  0.00  0.00    +0.015 C 
ATOM      4  C   UNL     1       3.585   7.856   0.011  0.00  0.00    +0.092 C 
BRANCH   3  10
ATOM      5  C   UNL     1       1.998  10.222   0.034  0.00  0.00    +0.010 A 
ATOM      6  C   UNL     1       1.253  11.383   0.054  0.00  0.00    +0.029 A 
ATOM      7  C   UNL     1       1.884  12.614   0.054  0.00  0.00    +0.106 A 
ATOM      8  C   UNL     1       3.266  12.692   0.041  0.00  0.00    +0.029 A 
ATOM      9  C   UNL     1       4.025  11.541   0.027  0.00  0.00    +0.010 A 
ATOM     10  C   UNL     1       3.394  10.292   0.026  0.00  0.00    -0.025 A 
BRANCH   7  11
ATOM     11  S   UNL     1       0.923  14.091   0.072  0.00  0.00    +0.061 S 
ATOM     12  O   UNL     1      -0.336  13.750   0.634  0.00  0.00    -0.153 OA
ATOM     13  O   UNL     1       1.752  15.108   0.620  0.00  0.00    -0.153 OA
BRANCH  11  14
ATOM     14  N   UNL     1       0.641  14.510  -1.505  0.00  0.00    -0.177 NA
ATOM     15  C   UNL     1       1.583  15.382  -2.171  0.00  0.00    +0.109 C 
ATOM     16  C   UNL     1       1.180  16.855  -1.952  0.00  0.00    +0.017 C 
ATOM     17  C   UNL     1      -0.032  17.173  -2.723  0.00  0.00    +0.001 C 
ATOM     18  C   UNL     1      -1.266  16.377  -2.309  0.00  0.00    +0.001 C 
ATOM     19  C   UNL     1      -1.270  15.051  -3.029  0.00  0.00    +0.017 C 
ATOM     20  C   UNL     1      -0.566  13.983  -2.172  0.00  0.00    +0.109 C 
ENDBRANCH  11  14
ENDBRANCH   7  11
ENDBRANCH   3  10
ENDBRANCH   1   4
BRANCH   1  21
ATOM     21  O   UNL     1       3.771   5.428  -0.005  0.00  0.00    -0.454 OA
BRANCH  21  22
ATOM     22  C   UNL     1       4.611   4.272  -0.020  0.00  0.00    +0.306 C 
BRANCH  22  23
ATOM     23  C   UNL     1       3.758   3.030  -0.018  0.00  0.00    +0.149 A 
ATOM     24  N   UNL     1       4.373   1.823  -0.031  0.00  0.00    -0.308 N 
ATOM     25  H   UNL     1       5.373   1.798  -0.042  0.00  0.00    +0.170 HD
ATOM     26  C   UNL     1       3.698   0.650  -0.030  0.00  0.00    +0.260 A 
ATOM     27  O   UNL     1       4.269  -0.427  -0.041  0.00  0.00    -0.267 OA
ATOM     28  C   UNL     1       2.266   0.755  -0.015  0.00  0.00    +0.075 A 
ATOM     29  C   UNL     1       1.313  -0.341  -0.012  0.00  0.00    -0.023 A 
ATOM     30  C   UNL     1       0.002  -0.004   0.002  0.00  0.00    -0.004 A 
ATOM     31  S   UNL     1      -0.022   1.771   0.012  0.00  0.00    -0.073 S 
ATOM     32  C   UNL     1       1.719   2.057  -0.003  0.00  0.00    +0.116 A 
ATOM     33  N   UNL     1       2.450   3.167  -0.004  0.00  0.00    -0.223 NA
ATOM     34  C   UNL     1      -1.173  -0.933   0.007  0.00  0.00    +0.043 C 
ATOM     35  C   UNL     1      -0.685  -2.336  -0.379  0.00  0.00    +0.005 C 
ATOM     36  C   UNL     1       0.563  -2.666   0.447  0.00  0.00    +0.005 C 
ATOM     37  C   UNL     1       1.737  -1.807  -0.023  0.00  0.00    +0.037 C 
ENDBRANCH  22  23
ENDBRANCH  21  22
ENDBRANCH   1  21
TORSDOF 7
