REMARK  Name = ZINC12321162
REMARK  2 active torsions:
REMARK  status: ('A' for Active; 'I' for Inactive)
REMARK    1  A    between atoms: C_1  and  C_2
REMARK    2  A    between atoms: C_8  and  C_14
REMARK                            x       y       z     vdW  Elec       q    Type
REMARK                         _______ _______ _______ _____ _____    ______ ____
ROOT
ATOM      1  C   UNL     1      -1.558   1.442  -3.266  0.00  0.00    +0.090 C 
ATOM      2  C   UNL     1      -2.903   2.111  -3.154  0.00  0.00    +0.149 A 
ATOM      3  N   UNL     1      -3.539   2.723  -4.112  0.00  0.00    -0.132 NA
ATOM      4  N   UNL     1      -4.660   3.180  -3.674  0.00  0.00    -0.120 NA
ATOM      5  C   UNL     1      -4.785   2.877  -2.417  0.00  0.00    +0.215 A 
ATOM      6  N   UNL     1      -3.684   2.186  -2.018  0.00  0.00    -0.217 N 
ATOM      7  N   UNL     1      -3.602   1.750  -0.673  0.00  0.00    -0.212 N 
ATOM      8  C   UNL     1      -2.514   0.979   0.019  0.00  0.00    +0.189 C 
ATOM      9  S   UNL     1      -3.194   0.838   1.715  0.00  0.00    -0.101 S 
ATOM     10  C   UNL     1      -4.719   1.713   1.445  0.00  0.00    +0.075 C 
ATOM     11  C   UNL     1      -4.675   2.069   0.151  0.00  0.00    +0.098 C 
ATOM     12  S   UNL     1      -5.775   2.964  -0.950  0.00  0.00    -0.031 S 
ENDROOT
BRANCH   8  13
ATOM     13  C   UNL     1      -1.219   1.750   0.017  0.00  0.00    -0.015 A 
ATOM     14  C   UNL     1      -0.013   1.076   0.008  0.00  0.00    +0.008 A 
ATOM     15  C   UNL     1       1.175   1.783   0.000  0.00  0.00    +0.020 A 
ATOM     16  C   UNL     1       1.156   3.166   0.008  0.00  0.00    +0.041 A 
ATOM     17  C   UNL     1      -0.052   3.841   0.023  0.00  0.00    +0.020 A 
ATOM     18  C   UNL     1      -1.239   3.133   0.031  0.00  0.00    +0.008 A 
ATOM     19 CL   UNL     1       2.647   4.055  -0.002  0.00  0.00    -0.084 Cl
ENDBRANCH   8  13
TORSDOF 1
