REMARK  Name = ZINC50813412
REMARK  5 active torsions:
REMARK  status: ('A' for Active; 'I' for Inactive)
REMARK    1  A    between atoms: C_1  and  N_2
REMARK    2  A    between atoms: N_2  and  C_3
REMARK    3  A    between atoms: N_2  and  C_14
REMARK    4  A    between atoms: C_3  and  C_4
REMARK    5  A    between atoms: C_14  and  C_15
REMARK                            x       y       z     vdW  Elec       q    Type
REMARK                         _______ _______ _______ _____ _____    ______ ____
ROOT
ATOM      1  C   UNL     1       2.137  -0.060  -1.158  0.00  0.00    +0.116 A 
ATOM      2  N   UNL     1       2.490   1.106  -1.669  0.00  0.00    -0.219 NA
ATOM      3  C   UNL     1       3.743   1.530  -1.657  0.00  0.00    +0.128 A 
ATOM      4  C   UNL     1       4.748   0.708  -1.076  0.00  0.00    +0.047 A 
ATOM      5  C   UNL     1       6.175   0.941  -0.940  0.00  0.00    +0.021 A 
ATOM      6  C   UNL     1       6.937   0.010  -0.347  0.00  0.00    +0.048 A 
ATOM      7  S   UNL     1       5.773  -1.272   0.079  0.00  0.00    -0.077 S 
ATOM      8  C   UNL     1       4.294  -0.522  -0.551  0.00  0.00    +0.113 A 
ATOM      9  N   UNL     1       3.022  -0.863  -0.601  0.00  0.00    -0.227 NA
ATOM     10  N   UNL     1       4.072   2.757  -2.204  0.00  0.00    -0.343 N 
ATOM     11  H   UNL     1       3.383   3.313  -2.599  0.00  0.00    +0.144 HD
ATOM     12  H   UNL     1       4.993   3.062  -2.192  0.00  0.00    +0.144 HD
ENDROOT
BRANCH   1  13
ATOM     13  C   UNL     1       0.690  -0.478  -1.207  0.00  0.00    -0.001 C 
BRANCH  13  15
ATOM     14  C   UNL     1      -0.018   1.465   0.010  0.00  0.00    -0.095 C 
ATOM     15  N   UNL     1       0.002  -0.004   0.002  0.00  0.00    +0.388 N 
ATOM     16  H   UNL     1       0.490  -0.338   0.820  0.00  0.00    -0.081 HD
BRANCH  15  17
ATOM     17  C   UNL     1      -1.376  -0.512   0.012  0.00  0.00    +0.019 C 
BRANCH  17  18
ATOM     18  C   UNL     1      -2.043  -0.130   1.309  0.00  0.00    +0.194 C 
ATOM     19  O   UNL     1      -1.430   0.504   2.142  0.00  0.00    -0.278 OA
ATOM     20  N   UNL     1      -3.320  -0.492   1.542  0.00  0.00    -0.331 N 
ATOM     21  H   UNL     1      -3.810  -0.999   0.876  0.00  0.00    +0.145 HD
ATOM     22  H   UNL     1      -3.749  -0.246   2.376  0.00  0.00    +0.145 HD
ENDBRANCH  17  18
ENDBRANCH  15  17
ENDBRANCH  13  15
ENDBRANCH   1  13
TORSDOF 4
