REMARK  Name = ZINC39325335
REMARK  13 active torsions:
REMARK  status: ('A' for Active; 'I' for Inactive)
REMARK    1  A    between atoms: C_1  and  C_2
REMARK    2  A    between atoms: C_2  and  O_3
REMARK    3  A    between atoms: O_3  and  C_4
REMARK    4  A    between atoms: C_11  and  C_16
REMARK    5  A    between atoms: C_16  and  N_17
REMARK    6  A    between atoms: N_17  and  C_18
REMARK    7  A    between atoms: N_17  and  S_27
REMARK    8  A    between atoms: C_18  and  C_19
REMARK    9  A    between atoms: C_19  and  C_20
REMARK   10  A    between atoms: C_24  and  C_26
REMARK   11  A    between atoms: S_27  and  C_30
REMARK   12  A    between atoms: C_33  and  O_36
REMARK   13  A    between atoms: O_36  and  C_37
REMARK                            x       y       z     vdW  Elec       q    Type
REMARK                         _______ _______ _______ _____ _____    ______ ____
ROOT
ATOM      1  N   UNL     1       1.870  -7.760   5.170  0.00  0.00    -0.175 NA
ENDROOT
BRANCH   1   2
ATOM      2  S   UNL     1       0.759  -8.810   4.534  0.00  0.00    +0.061 S 
ATOM      3  O   UNL     1       0.797  -9.979   5.340  0.00  0.00    -0.153 OA
ATOM      4  O   UNL     1      -0.433  -8.064   4.328  0.00  0.00    -0.153 OA
BRANCH   2   5
ATOM      5  C   UNL     1       1.340  -9.279   2.938  0.00  0.00    +0.106 A 
ATOM      6  C   UNL     1       0.867  -8.630   1.813  0.00  0.00    +0.032 A 
ATOM      7  C   UNL     1       1.321  -8.997   0.560  0.00  0.00    +0.047 A 
ATOM      8  C   UNL     1       2.253 -10.017   0.433  0.00  0.00    +0.120 A 
ATOM      9  C   UNL     1       2.727 -10.666   1.564  0.00  0.00    +0.047 A 
ATOM     10  C   UNL     1       2.273 -10.292   2.814  0.00  0.00    +0.032 A 
BRANCH   8  11
ATOM     11  O   UNL     1       2.701 -10.379  -0.798  0.00  0.00    -0.495 OA
ATOM     12  C   UNL     1       3.660 -11.437  -0.854  0.00  0.00    +0.277 C 
ENDBRANCH   8  11
ENDBRANCH   2   5
ENDBRANCH   1   2
BRANCH   1  13
ATOM     13  C   UNL     1       1.659  -6.314   5.061  0.00  0.00    +0.126 C 
BRANCH  13  21
ATOM     14  C   UNL     1       2.288  -1.453   1.889  0.00  0.00    +0.121 A 
ATOM     15  C   UNL     1       2.340  -2.183   0.696  0.00  0.00    +0.047 A 
ATOM     16  C   UNL     1       2.490  -3.532   0.670  0.00  0.00    +0.027 A 
ATOM     17  C   UNL     1       2.599  -4.263   1.867  0.00  0.00    +0.041 A 
ATOM     18  N   UNL     1       2.745  -5.588   1.827  0.00  0.00    -0.284 N 
ATOM     19  C   UNL     1       2.854  -6.336   2.912  0.00  0.00    +0.225 C 
ATOM     20  O   UNL     1       2.986  -7.541   2.812  0.00  0.00    -0.275 OA
ATOM     21  C   UNL     1       2.814  -5.688   4.277  0.00  0.00    +0.114 C 
ATOM     22  C   UNL     1       2.648  -4.182   4.329  0.00  0.00    -0.003 C 
ATOM     23  C   UNL     1       2.547  -3.523   3.140  0.00  0.00    -0.004 A 
ATOM     24  C   UNL     1       2.391  -2.069   3.100  0.00  0.00    +0.055 A 
ATOM     25  H   UNL     1       2.773  -6.023   0.961  0.00  0.00    +0.155 HD
BRANCH  14  26
ATOM     26  O   UNL     1       2.136  -0.103   1.839  0.00  0.00    -0.492 OA
BRANCH  26  28
ATOM     27  C   UNL     1       1.869   2.005   0.687  0.00  0.00    +0.048 C 
ATOM     28  C   UNL     1       2.033   0.490   0.543  0.00  0.00    +0.225 C 
ENDBRANCH  26  28
ENDBRANCH  14  26
ENDBRANCH  13  21
ENDBRANCH   1  13
BRANCH   1  29
ATOM     29  C   UNL     1       3.064  -8.276   5.844  0.00  0.00    +0.114 C 
BRANCH  29  30
ATOM     30  C   UNL     1       2.810  -8.347   7.351  0.00  0.00    +0.052 C 
BRANCH  30  31
ATOM     31  C   UNL     1       4.038  -8.878   8.043  0.00  0.00    -0.046 A 
ATOM     32  C   UNL     1       4.190 -10.239   8.233  0.00  0.00    +0.004 A 
ATOM     33  C   UNL     1       5.317 -10.727   8.868  0.00  0.00    +0.001 A 
ATOM     34  C   UNL     1       6.292  -9.853   9.313  0.00  0.00    +0.003 A 
ATOM     35  C   UNL     1       6.141  -8.493   9.122  0.00  0.00    -0.050 A 
ATOM     36  C   UNL     1       5.016  -8.005   8.483  0.00  0.00    +0.007 A 
ATOM     37  C   UNL     1       7.203  -7.541   9.607  0.00  0.00    +0.044 C 
ENDBRANCH  30  31
ENDBRANCH  29  30
ENDBRANCH   1  29
TORSDOF 10
