REMARK  Name = ZINC26486703
REMARK  11 active torsions:
REMARK  status: ('A' for Active; 'I' for Inactive)
REMARK    1  A    between atoms: C_1  and  C_2
REMARK    2  A    between atoms: C_2  and  C_4
REMARK    3  A    between atoms: C_2  and  N_14
REMARK    4  A    between atoms: N_9  and  C_10
REMARK    5  A    between atoms: C_10  and  C_11
REMARK    6  A    between atoms: C_10  and  C_12
REMARK    7  A    between atoms: C_10  and  C_13
REMARK    8  A    between atoms: N_14  and  C_15
REMARK    9  A    between atoms: N_14  and  C_16
REMARK   10  A    between atoms: C_16  and  C_17
REMARK   11  A    between atoms: N_19  and  C_20
REMARK                            x       y       z     vdW  Elec       q    Type
REMARK                         _______ _______ _______ _____ _____    ______ ____
ROOT
ATOM      1  N   UNL     1      -2.518   0.942   0.367  0.00  0.00    +0.391 N 
ATOM      2  C   UNL     1      -2.688   0.305   1.680  0.00  0.00    -0.094 C 
ATOM      3  H   UNL     1      -2.301   0.151  -0.366  0.00  0.00    -0.080 HD
ENDROOT
BRANCH   1   5
ATOM      4  C   UNL     1      -1.553   2.874   1.521  0.00  0.00    -0.004 C 
ATOM      5  C   UNL     1      -1.383   1.874   0.376  0.00  0.00    +0.017 C 
BRANCH   5   6
ATOM      6  C   UNL     1      -0.102   1.103   0.569  0.00  0.00    +0.207 C 
ATOM      7  O   UNL     1      -0.132  -0.103   0.687  0.00  0.00    -0.277 OA
ATOM      8  N   UNL     1       1.077   1.754   0.604  0.00  0.00    -0.242 N 
ATOM      9  C   UNL     1       2.223   1.065   0.771  0.00  0.00    +0.306 C 
ATOM     10  O   UNL     1       2.193  -0.145   0.889  0.00  0.00    -0.252 OA
ATOM     11  N   UNL     1       3.403   1.716   0.806  0.00  0.00    -0.294 N 
ATOM     12  H   UNL     1       1.105   2.849   0.497  0.00  0.00    +0.159 HD
ATOM     13  H   UNL     1       3.430   2.810   0.700  0.00  0.00    +0.151 HD
BRANCH  11  14
ATOM     14  C   UNL     1       4.648   0.966   0.988  0.00  0.00    +0.028 C 
ATOM     15  C   UNL     1       4.813  -0.035  -0.158  0.00  0.00    +0.031 C 
ATOM     16  C   UNL     1       5.832   1.936   0.992  0.00  0.00    +0.031 C 
ATOM     17  C   UNL     1       4.601   0.213   2.319  0.00  0.00    +0.031 C 
ENDBRANCH  11  14
ENDBRANCH   5   6
ENDBRANCH   1   5
BRANCH   1  18
ATOM     18  C   UNL     1      -3.752   1.620  -0.052  0.00  0.00    +0.020 C 
BRANCH  18  19
ATOM     19  C   UNL     1      -4.833   0.596  -0.287  0.00  0.00    +0.201 C 
ATOM     20  O   UNL     1      -4.598  -0.582  -0.121  0.00  0.00    -0.278 OA
ATOM     21  N   UNL     1      -6.060   0.990  -0.681  0.00  0.00    -0.287 N 
ATOM     22  H   UNL     1      -6.298   2.062  -0.748  0.00  0.00    +0.155 HD
BRANCH  21  23
ATOM     23  C   UNL     1      -7.031   0.035  -1.005  0.00  0.00    +0.035 A 
ATOM     24  C   UNL     1      -6.656  -1.166  -1.592  0.00  0.00    +0.025 A 
ATOM     25  C   UNL     1      -7.615  -2.110  -1.905  0.00  0.00    +0.023 A 
ATOM     26  C   UNL     1      -8.950  -1.854  -1.647  0.00  0.00    +0.059 A 
ATOM     27  C   UNL     1      -9.328  -0.654  -1.067  0.00  0.00    +0.061 A 
ATOM     28  C   UNL     1      -8.371   0.290  -0.746  0.00  0.00    +0.044 A 
ATOM     29 CL   UNL     1     -11.003  -0.337  -0.744  0.00  0.00    -0.082 Cl
ATOM     30 CL   UNL     1     -10.153  -3.039  -2.049  0.00  0.00    -0.082 Cl
ENDBRANCH  21  23
ENDBRANCH  18  19
ENDBRANCH   1  18
TORSDOF 6
