REMARK  Name = ZINC54200453
REMARK  6 active torsions:
REMARK  status: ('A' for Active; 'I' for Inactive)
REMARK    1  A    between atoms: C_1  and  C_2
REMARK    2  A    between atoms: C_7  and  N_8
REMARK    3  A    between atoms: N_8  and  C_9
REMARK    4  A    between atoms: C_9  and  C_11
REMARK    5  A    between atoms: C_9  and  C_17
REMARK    6  A    between atoms: C_26  and  O_27
REMARK                            x       y       z     vdW  Elec       q    Type
REMARK                         _______ _______ _______ _____ _____    ______ ____
ROOT
ATOM      1  C   UNL     1       0.047  -0.773   3.669  0.00  0.00    +0.154 C 
ENDROOT
BRANCH   1   2
ATOM      2  C   UNL     1       0.757   0.043   4.719  0.00  0.00    +0.024 A 
ATOM      3  C   UNL     1       0.711   1.433   4.655  0.00  0.00    +0.030 A 
ATOM      4  C   UNL     1       1.341   2.199   5.589  0.00  0.00    +0.051 A 
ATOM      5  C   UNL     1       2.049   1.580   6.634  0.00  0.00    +0.022 A 
ATOM      6  C   UNL     1       2.712   2.337   7.618  0.00  0.00    +0.013 A 
ATOM      7  C   UNL     1       3.380   1.668   8.604  0.00  0.00    +0.020 A 
ATOM      8  C   UNL     1       3.390   0.275   8.615  0.00  0.00    +0.111 A 
ATOM      9  N   UNL     1       2.771  -0.426   7.697  0.00  0.00    -0.251 NA
ATOM     10  C   UNL     1       2.099   0.167   6.705  0.00  0.00    +0.114 A 
ATOM     11  C   UNL     1       1.430  -0.593   5.723  0.00  0.00    +0.148 A 
ATOM     12 CL   UNL     1       1.271   3.930   5.489  0.00  0.00    -0.083 Cl
BRANCH  11  13
ATOM     13  O   UNL     1       1.460  -1.951   5.772  0.00  0.00    -0.504 OA
ATOM     14  H   UNL     1       2.201  -2.345   5.293  0.00  0.00    +0.292 HD
ENDBRANCH  11  13
ENDBRANCH   1   2
BRANCH   1  15
ATOM     15  C   UNL     1      -1.346  -1.098   4.142  0.00  0.00    +0.066 A 
ATOM     16  C   UNL     1      -2.430  -0.766   3.352  0.00  0.00    +0.025 A 
ATOM     17  C   UNL     1      -3.708  -1.070   3.796  0.00  0.00    +0.003 A 
ATOM     18  C   UNL     1      -3.848  -1.698   5.024  0.00  0.00    +0.020 A 
ATOM     19  C   UNL     1      -2.717  -1.999   5.759  0.00  0.00    +0.111 A 
ATOM     20  N   UNL     1      -1.516  -1.700   5.303  0.00  0.00    -0.258 NA
ENDBRANCH   1  15
BRANCH   1  21
ATOM     21  N   UNL     1      -0.026  -0.006   2.423  0.00  0.00    -0.318 N 
ATOM     22  H   UNL     1      -0.037   0.963   2.450  0.00  0.00    +0.148 HD
BRANCH  21  29
ATOM     23  C   UNL     1      -0.168   1.572   0.060  0.00  0.00    +0.047 C 
ATOM     24  C   UNL     1      -0.151   0.065   0.022  0.00  0.00    -0.013 A 
ATOM     25  C   UNL     1      -0.199  -0.606  -1.186  0.00  0.00    +0.008 A 
ATOM     26  C   UNL     1      -0.181  -1.994  -1.174  0.00  0.00    +0.018 A 
ATOM     27  C   UNL     1      -0.117  -2.659   0.035  0.00  0.00    +0.084 A 
ATOM     28  N   UNL     1      -0.072  -1.992   1.172  0.00  0.00    -0.350 N 
ATOM     29  C   UNL     1      -0.081  -0.668   1.202  0.00  0.00    +0.100 A 
ATOM     30  H   UNL     1      -0.028  -2.484   2.007  0.00  0.00    +0.167 HD
ENDBRANCH  21  29
ENDBRANCH   1  21
TORSDOF 5
