REMARK  Name = ZINC67120806
REMARK  12 active torsions:
REMARK  status: ('A' for Active; 'I' for Inactive)
REMARK    1  A    between atoms: C_1  and  C_2
REMARK    2  A    between atoms: C_5  and  C_28
REMARK    3  A    between atoms: N_8  and  C_10
REMARK    4  A    between atoms: C_10  and  C_11
REMARK    5  A    between atoms: C_11  and  N_12
REMARK    6  A    between atoms: N_12  and  C_13
REMARK    7  A    between atoms: C_13  and  C_14
REMARK    8  A    between atoms: C_16  and  O_26
REMARK    9  A    between atoms: C_17  and  O_21
REMARK   10  A    between atoms: O_21  and  C_22
REMARK   11  A    between atoms: C_22  and  C_23
REMARK   12  A    between atoms: O_26  and  C_27
REMARK                            x       y       z     vdW  Elec       q    Type
REMARK                         _______ _______ _______ _____ _____    ______ ____
ROOT
ATOM      1  C   UNL     1       2.930  -0.056   7.319  0.00  0.00    -0.029 A 
ATOM      2  C   UNL     1       2.523  -1.204   7.973  0.00  0.00    +0.054 A 
ATOM      3  C   UNL     1       3.191  -1.627   9.111  0.00  0.00    +0.163 A 
ATOM      4  C   UNL     1       4.271  -0.895   9.594  0.00  0.00    +0.181 A 
ATOM      5  C   UNL     1       4.675   0.256   8.934  0.00  0.00    +0.086 A 
ATOM      6  C   UNL     1       4.006   0.669   7.795  0.00  0.00    +0.028 A 
ATOM      7 CL   UNL     1       6.021   1.173   9.532  0.00  0.00    -0.080 Cl
ENDROOT
BRANCH   3   8
ATOM      8  O   UNL     1       2.791  -2.756   9.756  0.00  0.00    -0.491 OA
ATOM      9  C   UNL     1       1.674  -3.457   9.204  0.00  0.00    +0.277 C 
ENDBRANCH   3   8
BRANCH   1  10
ATOM     10  C   UNL     1       2.202   0.403   6.082  0.00  0.00    +0.116 C 
BRANCH  10  11
ATOM     11  N   UNL     1       2.821  -0.205   4.896  0.00  0.00    -0.314 NA
ATOM     12  H   UNL     1       2.837  -1.211   4.972  0.00  0.00    +0.122 HD
BRANCH  11  13
ATOM     13  C   UNL     1       2.136   0.221   3.668  0.00  0.00    +0.062 C 
BRANCH  13  14
ATOM     14  C   UNL     1       2.808  -0.431   2.458  0.00  0.00    -0.063 C 
BRANCH  14  20
ATOM     15  C   UNL     1      -0.019   1.526   0.010  0.00  0.00    +0.005 C 
ATOM     16  C   UNL     1       0.002  -0.004   0.002  0.00  0.00    -0.031 C 
ATOM     17  C   UNL     1       0.721  -0.499  -1.257  0.00  0.00    +0.003 C 
ATOM     18  C   UNL     1       2.177  -0.027  -1.220  0.00  0.00    -0.031 C 
ATOM     19  C   UNL     1       2.839  -0.534   0.063  0.00  0.00    -0.076 C 
ATOM     20  N   UNL     1       2.123  -0.005   1.230  0.00  0.00    +0.381 N 
ATOM     21  C   UNL     1       0.744  -0.512   1.240  0.00  0.00    -0.076 C 
ATOM     22  C   UNL     1       2.924  -0.581  -2.434  0.00  0.00    +0.005 C 
ATOM     23  H   UNL     1       2.109   1.003   1.187  0.00  0.00    -0.082 HD
ENDBRANCH  14  20
ENDBRANCH  13  14
ENDBRANCH  11  13
ENDBRANCH  10  11
ENDBRANCH   1  10
BRANCH   4  24
ATOM     24  O   UNL     1       4.929  -1.306  10.711  0.00  0.00    -0.478 OA
BRANCH  24  25
ATOM     25  C   UNL     1       6.033  -2.193  10.524  0.00  0.00    +0.324 C 
BRANCH  25  26
ATOM     26  C   UNL     1       6.634  -2.538  11.862  0.00  0.00    +0.248 C 
ATOM     27  O   UNL     1       6.162  -2.070  12.877  0.00  0.00    -0.272 OA
ATOM     28  N   UNL     1       7.694  -3.366  11.932  0.00  0.00    -0.327 N 
ATOM     29  H   UNL     1       8.072  -3.741  11.120  0.00  0.00    +0.145 HD
ATOM     30  H   UNL     1       8.081  -3.588  12.793  0.00  0.00    +0.145 HD
ENDBRANCH  25  26
ENDBRANCH  24  25
ENDBRANCH   4  24
TORSDOF 9
