REMARK  Name = ZINC63663812
REMARK  10 active torsions:
REMARK  status: ('A' for Active; 'I' for Inactive)
REMARK    1  A    between atoms: C_1  and  C_2
REMARK    2  A    between atoms: C_2  and  C_4
REMARK    3  A    between atoms: C_2  and  N_23
REMARK    4  A    between atoms: C_4  and  C_6
REMARK    5  A    between atoms: C_4  and  N_11
REMARK    6  A    between atoms: N_14  and  C_17
REMARK    7  A    between atoms: C_24  and  C_26
REMARK    8  A    between atoms: N_28  and  C_29
REMARK    9  A    between atoms: C_29  and  C_30
REMARK   10  A    between atoms: C_30  and  C_31
REMARK                            x       y       z     vdW  Elec       q    Type
REMARK                         _______ _______ _______ _____ _____    ______ ____
ROOT
ATOM      1  C   UNL     1      -0.372   1.443  -0.280  0.00  0.00    +0.030 C 
ATOM      2  C   UNL     1      -0.214  -0.079  -0.243  0.00  0.00    +0.092 C 
ENDROOT
BRANCH   2   3
ATOM      3  N   UNL     1       0.467  -0.469   0.994  0.00  0.00    -0.303 N 
ATOM      4  C   UNL     1      -0.242  -0.644   2.127  0.00  0.00    +0.299 C 
ATOM      5  O   UNL     1      -1.444  -0.479   2.122  0.00  0.00    -0.265 OA
ATOM      6  H   UNL     1       1.428  -0.601   0.998  0.00  0.00    +0.149 HD
BRANCH   4   7
ATOM      7  C   UNL     1       0.453  -1.042   3.389  0.00  0.00    +0.299 C 
ATOM      8  O   UNL     1       1.655  -1.207   3.394  0.00  0.00    -0.265 OA
ATOM      9  N   UNL     1      -0.256  -1.218   4.522  0.00  0.00    -0.307 N 
ATOM     10  H   UNL     1      -1.217  -1.086   4.518  0.00  0.00    +0.149 HD
BRANCH   9  11
ATOM     11  C   UNL     1       0.425  -1.608   5.759  0.00  0.00    +0.109 C 
BRANCH  11  12
ATOM     12  C   UNL     1      -0.601  -1.739   6.886  0.00  0.00    +0.052 C 
BRANCH  12  13
ATOM     13  C   UNL     1       0.099  -2.140   8.159  0.00  0.00    -0.040 C 
ATOM     14  C   UNL     1       0.531  -1.319   9.143  0.00  0.00    -0.001 A 
ATOM     15  C   UNL     1       0.482   0.138   9.316  0.00  0.00    +0.010 A 
ATOM     16  C   UNL     1       1.011   0.684  10.434  0.00  0.00    +0.001 A 
ATOM     17  C   UNL     1       1.605  -0.104  11.430  0.00  0.00    +0.002 A 
ATOM     18  C   UNL     1       1.688  -1.449  11.342  0.00  0.00    +0.026 A 
ATOM     19  C   UNL     1       1.163  -2.129  10.209  0.00  0.00    +0.043 A 
ATOM     20  N   UNL     1       1.123  -3.401   9.896  0.00  0.00    -0.380 N 
ATOM     21  C   UNL     1       0.455  -3.543   8.597  0.00  0.00    +0.144 C 
ATOM     22  H   UNL     1       1.473  -4.128  10.435  0.00  0.00    +0.160 HD
ENDBRANCH  12  13
ENDBRANCH  11  12
ENDBRANCH   9  11
ENDBRANCH   4   7
ENDBRANCH   2   3
BRANCH   2  23
ATOM     23  C   UNL     1       0.614  -0.535  -1.446  0.00  0.00    +0.114 C 
BRANCH  23  24
ATOM     24  N   UNL     1      -0.069  -0.143  -2.687  0.00  0.00    -0.290 NA
ATOM     25  C   UNL     1      -1.461  -0.613  -2.692  0.00  0.00    +0.104 C 
ATOM     26  C   UNL     1      -2.187  -0.034  -3.911  0.00  0.00    +0.120 C 
ATOM     27  N   UNL     1      -1.414  -0.366  -5.117  0.00  0.00    -0.327 N 
ATOM     28  C   UNL     1       0.022  -0.050  -5.132  0.00  0.00    +0.120 C 
ATOM     29  C   UNL     1       0.661  -0.628  -3.865  0.00  0.00    +0.104 C 
BRANCH  27  30
ATOM     30  C   UNL     1      -2.027  -0.967  -6.219  0.00  0.00    +0.030 A 
ATOM     31  C   UNL     1      -3.404  -1.149  -6.236  0.00  0.00    +0.023 A 
ATOM     32  C   UNL     1      -4.008  -1.743  -7.327  0.00  0.00    +0.002 A 
ATOM     33  C   UNL     1      -3.242  -2.157  -8.402  0.00  0.00    +0.000 A 
ATOM     34  C   UNL     1      -1.871  -1.978  -8.388  0.00  0.00    +0.002 A 
ATOM     35  C   UNL     1      -1.262  -1.379  -7.303  0.00  0.00    +0.023 A 
ENDBRANCH  27  30
ENDBRANCH  23  24
BRANCH  23  36
ATOM     36  C   UNL     1       0.769  -2.033  -1.410  0.00  0.00    +0.009 A 
ATOM     37  C   UNL     1       1.872  -2.770  -1.131  0.00  0.00    +0.013 A 
ATOM     38  C   UNL     1       1.781  -4.149  -1.156  0.00  0.00    +0.008 A 
ATOM     39  C   UNL     1       0.591  -4.724  -1.459  0.00  0.00    +0.045 A 
ATOM     40  S   UNL     1      -0.453  -3.298  -1.714  0.00  0.00    -0.100 S 
ENDBRANCH  23  36
ENDBRANCH   2  23
TORSDOF 9
