REMARK  Name = ZINC36629409
REMARK  7 active torsions:
REMARK  status: ('A' for Active; 'I' for Inactive)
REMARK    1  A    between atoms: C_1  and  C_2
REMARK    2  A    between atoms: C_7  and  O_8
REMARK    3  A    between atoms: O_8  and  C_9
REMARK    4  A    between atoms: C_9  and  C_10
REMARK    5  A    between atoms: N_12  and  C_13
REMARK    6  A    between atoms: C_14  and  C_23
REMARK    7  A    between atoms: N_19  and  C_22
REMARK                            x       y       z     vdW  Elec       q    Type
REMARK                         _______ _______ _______ _____ _____    ______ ____
ROOT
ATOM      1  C   UNL     1       0.066   0.404   7.122  0.00  0.00    +0.084 A 
ATOM      2  C   UNL     1       0.089   0.046   8.462  0.00  0.00    +0.068 A 
ATOM      3  C   UNL     1       0.083   1.122   9.433  0.00  0.00    -0.027 A 
ATOM      4  C   UNL     1       0.053   2.361   8.890  0.00  0.00    -0.021 A 
ATOM      5  S   UNL     1       0.044   2.083   7.145  0.00  0.00    -0.079 S 
ATOM      6  C   UNL     1       0.036   3.654   9.643  0.00  0.00    -0.036 C 
ATOM      7  N   UNL     1      -0.327   3.370  11.043  0.00  0.00    +0.381 N 
ATOM      8  C   UNL     1       0.521   2.291  11.564  0.00  0.00    -0.074 C 
ATOM      9  C   UNL     1       0.110   0.950  10.945  0.00  0.00    +0.018 C 
ATOM     10  C   UNL     1      -0.132   4.580  11.854  0.00  0.00    -0.096 C 
ATOM     11  H   UNL     1      -1.295   3.089  11.089  0.00  0.00    -0.082 HD
ENDROOT
BRANCH   2  12
ATOM     12  C   UNL     1       0.118  -1.359   8.879  0.00  0.00    +0.244 C 
ATOM     13  O   UNL     1       1.184  -1.925   9.038  0.00  0.00    -0.270 OA
ATOM     14  N   UNL     1      -1.036  -2.025   9.085  0.00  0.00    -0.325 N 
ATOM     15  H   UNL     1      -1.885  -1.575   8.957  0.00  0.00    +0.145 HD
ATOM     16  H   UNL     1      -1.016  -2.955   9.360  0.00  0.00    +0.145 HD
ENDBRANCH   2  12
BRANCH   1  19
ATOM     17  C   UNL     1       0.047   0.090   4.775  0.00  0.00    +0.255 C 
ATOM     18  O   UNL     1       0.030   1.294   4.625  0.00  0.00    -0.272 OA
ATOM     19  N   UNL     1       0.066  -0.433   6.017  0.00  0.00    -0.277 N 
ATOM     20  H   UNL     1       0.080  -1.396   6.137  0.00  0.00    +0.155 HD
BRANCH  17  21
ATOM     21  C   UNL     1       0.048  -0.820   3.574  0.00  0.00    +0.324 C 
BRANCH  21  22
ATOM     22  O   UNL     1       0.025  -0.033   2.381  0.00  0.00    -0.483 OA
BRANCH  22  29
ATOM     23  C   UNL     1      -0.018   1.503   0.010  0.00  0.00    +0.047 C 
ATOM     24  C   UNL     1       0.002  -0.004   0.002  0.00  0.00    -0.009 A 
ATOM     25  C   UNL     1       0.006  -0.689  -1.198  0.00  0.00    +0.007 A 
ATOM     26  C   UNL     1       0.024  -2.071  -1.206  0.00  0.00    +0.000 A 
ATOM     27  C   UNL     1       0.039  -2.772  -0.014  0.00  0.00    +0.004 A 
ATOM     28  C   UNL     1       0.036  -2.092   1.188  0.00  0.00    +0.046 A 
ATOM     29  C   UNL     1       0.023  -0.705   1.199  0.00  0.00    +0.124 A 
ENDBRANCH  22  29
ENDBRANCH  21  22
ENDBRANCH  17  21
ENDBRANCH   1  19
TORSDOF 5
