REMARK  Name = ZINC67063768
REMARK  8 active torsions:
REMARK  status: ('A' for Active; 'I' for Inactive)
REMARK    1  A    between atoms: C_1  and  C_2
REMARK    2  A    between atoms: C_2  and  C_4
REMARK    3  A    between atoms: C_2  and  N_10
REMARK    4  A    between atoms: C_4  and  N_5
REMARK    5  A    between atoms: N_13  and  C_14
REMARK    6  A    between atoms: C_14  and  C_15
REMARK    7  A    between atoms: C_15  and  C_18
REMARK    8  A    between atoms: C_22  and  C_24
REMARK                            x       y       z     vdW  Elec       q    Type
REMARK                         _______ _______ _______ _____ _____    ______ ____
ROOT
ATOM      1  N   UNL     1       0.319  -0.344  -2.023  0.00  0.00    -0.295 N 
ATOM      2  C   UNL     1       1.639  -0.460  -1.781  0.00  0.00    +0.300 C 
ATOM      3  O   UNL     1       2.098  -0.086  -0.719  0.00  0.00    -0.253 OA
ATOM      4  N   UNL     1       2.451  -0.991  -2.717  0.00  0.00    -0.299 N 
ATOM      5  H   UNL     1      -0.048  -0.642  -2.870  0.00  0.00    +0.151 HD
ATOM      6  H   UNL     1       2.085  -1.289  -3.564  0.00  0.00    +0.150 HD
ENDROOT
BRANCH   1   8
ATOM      7  C   UNL     1      -0.556   1.758  -1.130  0.00  0.00    +0.029 C 
ATOM      8  C   UNL     1      -0.564   0.233  -1.006  0.00  0.00    +0.091 C 
BRANCH   8   9
ATOM      9  C   UNL     1      -1.988  -0.288  -1.212  0.00  0.00    +0.144 C 
BRANCH   9  10
ATOM     10  N   UNL     1      -2.018  -1.734  -0.976  0.00  0.00    -0.337 N 
ATOM     11  C   UNL     1      -1.809  -2.713  -1.909  0.00  0.00    +0.104 A 
ATOM     12  C   UNL     1      -1.927  -3.892  -1.268  0.00  0.00    +0.101 A 
ATOM     13  N   UNL     1      -2.199  -3.639   0.020  0.00  0.00    -0.352 N 
ATOM     14  C   UNL     1      -2.250  -2.348   0.204  0.00  0.00    +0.173 A 
ATOM     15  H   UNL     1      -2.333  -4.310   0.708  0.00  0.00    +0.166 HD
ENDBRANCH   9  10
ENDBRANCH   8   9
ENDBRANCH   1   8
BRANCH   4  16
ATOM     16  C   UNL     1       3.887  -1.117  -2.454  0.00  0.00    +0.117 C 
BRANCH  16  17
ATOM     17  C   UNL     1       4.571  -1.769  -3.658  0.00  0.00    +0.011 C 
ATOM     18  C   UNL     1       5.865  -1.132  -4.165  0.00  0.00    +0.014 C 
ATOM     19  C   UNL     1       4.575  -0.990  -4.975  0.00  0.00    +0.014 C 
BRANCH  17  20
ATOM     20  C   UNL     1       4.455  -3.270  -3.737  0.00  0.00    -0.039 A 
ATOM     21  C   UNL     1       5.061  -4.061  -2.779  0.00  0.00    +0.004 A 
ATOM     22  C   UNL     1       4.955  -5.437  -2.851  0.00  0.00    +0.001 A 
ATOM     23  C   UNL     1       4.244  -6.022  -3.882  0.00  0.00    +0.012 A 
ATOM     24  C   UNL     1       3.638  -5.231  -4.840  0.00  0.00    +0.055 A 
ATOM     25  C   UNL     1       3.740  -3.854  -4.765  0.00  0.00    +0.016 A 
BRANCH  24  26
ATOM     26  C   UNL     1       2.862  -5.869  -5.964  0.00  0.00    +0.417 C 
ATOM     27  F   UNL     1       2.899  -7.261  -5.824  0.00  0.00    -0.166 F 
ATOM     28  F   UNL     1       1.535  -5.431  -5.922  0.00  0.00    -0.166 F 
ATOM     29  F   UNL     1       3.434  -5.508  -7.189  0.00  0.00    -0.166 F 
ENDBRANCH  24  26
ENDBRANCH  17  20
ENDBRANCH  16  17
ENDBRANCH   4  16
TORSDOF 7
