REMARK  Name = ZINC23259274
REMARK  8 active torsions:
REMARK  status: ('A' for Active; 'I' for Inactive)
REMARK    1  A    between atoms: C_1  and  C_2
REMARK    2  A    between atoms: C_2  and  C_4
REMARK    3  A    between atoms: C_2  and  N_11
REMARK    4  A    between atoms: N_11  and  C_12
REMARK    5  A    between atoms: C_12  and  C_13
REMARK    6  A    between atoms: N_15  and  C_16
REMARK    7  A    between atoms: N_15  and  C_22
REMARK    8  A    between atoms: C_16  and  C_17
REMARK                            x       y       z     vdW  Elec       q    Type
REMARK                         _______ _______ _______ _____ _____    ______ ____
ROOT
ATOM      1  C   UNL     1       4.778   0.020  -0.156  0.00  0.00    +0.203 C 
ATOM      2  O   UNL     1       4.769   1.233  -0.149  0.00  0.00    -0.277 OA
ATOM      3  N   UNL     1       3.621  -0.663  -0.044  0.00  0.00    -0.268 N 
ENDROOT
BRANCH   3   4
ATOM      4  C   UNL     1       2.401   0.025  -0.020  0.00  0.00    +0.040 A 
ATOM      5  C   UNL     1       1.643   0.054   1.143  0.00  0.00    +0.027 A 
ATOM      6  C   UNL     1       0.440   0.732   1.167  0.00  0.00    +0.051 A 
ATOM      7  C   UNL     1      -0.015   1.385   0.031  0.00  0.00    +0.162 A 
ATOM      8  C   UNL     1       0.743   1.360  -1.134  0.00  0.00    +0.164 A 
ATOM      9  C   UNL     1       1.950   0.679  -1.158  0.00  0.00    +0.073 A 
ATOM     10  O   UNL     1       0.318   2.003  -2.256  0.00  0.00    -0.485 OA
ATOM     11  C   UNL     1      -1.068   2.359  -2.307  0.00  0.00    +0.270 C 
ATOM     12  C   UNL     1      -1.450   2.999  -0.966  0.00  0.00    +0.270 C 
ATOM     13  O   UNL     1      -1.208   2.042   0.071  0.00  0.00    -0.485 OA
ENDBRANCH   3   4
BRANCH   1  14
ATOM     14  C   UNL     1       6.082  -0.724  -0.289  0.00  0.00    +0.016 C 
BRANCH  14  15
ATOM     15  N   UNL     1       7.186   0.239  -0.394  0.00  0.00    +0.389 N 
ATOM     16  H   UNL     1       7.196   0.865   0.511  0.00  0.00    -0.084 HD
ATOM     17  H   UNL     1       7.018   0.874  -1.276  0.00  0.00    -0.084 HD
BRANCH  15  19
ATOM     18  C   UNL     1       8.723  -0.794  -1.996  0.00  0.00    -0.009 C 
ATOM     19  C   UNL     1       8.476  -0.451  -0.525  0.00  0.00    -0.042 C 
BRANCH  19  20
ATOM     20  C   UNL     1       9.579   0.447  -0.027  0.00  0.00    -0.043 A 
ATOM     21  C   UNL     1       9.375   1.811   0.058  0.00  0.00    +0.003 A 
ATOM     22  C   UNL     1      10.386   2.634   0.519  0.00  0.00    +0.000 A 
ATOM     23  C   UNL     1      11.604   2.094   0.887  0.00  0.00    +0.001 A 
ATOM     24  C   UNL     1      11.811   0.731   0.797  0.00  0.00    +0.020 A 
ATOM     25  C   UNL     1      10.799  -0.094   0.340  0.00  0.00    +0.043 A 
ATOM     26 CL   UNL     1      11.058  -1.807   0.227  0.00  0.00    -0.083 Cl
ENDBRANCH  19  20
ENDBRANCH  15  19
ENDBRANCH  14  15
ENDBRANCH   1  14
BRANCH   3  27
ATOM     27  C   UNL     1       3.640  -2.125   0.052  0.00  0.00    +0.156 C 
BRANCH  27  28
ATOM     28  C   UNL     1       3.565  -2.720  -1.331  0.00  0.00    +0.007 A 
ATOM     29  C   UNL     1       4.574  -3.047  -2.175  0.00  0.00    +0.013 A 
ATOM     30  C   UNL     1       4.267  -3.588  -3.409  0.00  0.00    +0.008 A 
ATOM     31  C   UNL     1       2.965  -3.774  -3.740  0.00  0.00    +0.045 A 
ATOM     32  S   UNL     1       2.126  -3.183  -2.279  0.00  0.00    -0.100 S 
ENDBRANCH  27  28
ENDBRANCH   3  27
TORSDOF 7
