REMARK  Name = ZINC02360710
REMARK  8 active torsions:
REMARK  status: ('A' for Active; 'I' for Inactive)
REMARK    1  A    between atoms: C_1  and  C_2
REMARK    2  A    between atoms: C_9  and  N_30
REMARK    3  A    between atoms: C_10  and  C_13
REMARK    4  A    between atoms: N_17  and  C_21
REMARK    5  A    between atoms: C_21  and  C_22
REMARK    6  A    between atoms: C_25  and  O_28
REMARK    7  A    between atoms: O_28  and  C_29
REMARK    8  A    between atoms: N_33  and  C_36
REMARK                            x       y       z     vdW  Elec       q    Type
REMARK                         _______ _______ _______ _____ _____    ______ ____
ROOT
ATOM      1  C   UNL     1       2.535   7.377   2.012  0.00  0.00    +0.047 C 
ATOM      2  C   UNL     1       1.771   8.157   0.972  0.00  0.00    -0.007 A 
ATOM      3  C   UNL     1       1.737   9.519   1.024  0.00  0.00    +0.008 A 
ATOM      4  C   UNL     1       1.023  10.229   0.049  0.00  0.00    +0.019 A 
ATOM      5  C   UNL     1       0.373   9.566  -0.933  0.00  0.00    +0.096 A 
ATOM      6  N   UNL     1       0.400   8.205  -0.993  0.00  0.00    -0.267 N 
ATOM      7  C   UNL     1       1.088   7.484  -0.057  0.00  0.00    +0.145 A 
ATOM      8  N   UNL     1       1.127   6.152  -0.099  0.00  0.00    -0.213 NA
ATOM      9  C   UNL     1       0.502   5.467  -1.046  0.00  0.00    +0.136 A 
ATOM     10  C   UNL     1      -0.222   6.160  -2.044  0.00  0.00    +0.081 A 
ATOM     11  C   UNL     1      -0.261   7.574  -1.987  0.00  0.00    +0.267 A 
ATOM     12  O   UNL     1      -0.876   8.211  -2.824  0.00  0.00    -0.267 OA
ENDROOT
BRANCH  10  13
ATOM     13  C   UNL     1      -0.894   5.457  -3.071  0.00  0.00    +0.037 C 
ATOM     14  C   UNL     1      -0.478   5.577  -4.365  0.00  0.00    +0.077 C 
ATOM     15  C   UNL     1       0.660   6.252  -4.892  0.00  0.00    +0.259 C 
ATOM     16  O   UNL     1       1.436   6.837  -4.159  0.00  0.00    -0.269 OA
ATOM     17  N   UNL     1       0.850   6.224  -6.200  0.00  0.00    -0.251 N 
ATOM     18  C   UNL     1      -0.011   5.574  -7.014  0.00  0.00    +0.121 C 
ATOM     19  S   UNL     1       0.038   5.409  -8.717  0.00  0.00    -0.027 S 
ATOM     20  S   UNL     1      -1.210   4.923  -5.860  0.00  0.00    -0.061 S 
BRANCH  17  21
ATOM     21  C   UNL     1       2.011   6.908  -6.775  0.00  0.00    +0.150 C 
BRANCH  21  22
ATOM     22  C   UNL     1       3.176   5.955  -6.836  0.00  0.00    -0.029 A 
ATOM     23  C   UNL     1       4.053   5.867  -5.770  0.00  0.00    +0.009 A 
ATOM     24  C   UNL     1       5.119   4.990  -5.821  0.00  0.00    +0.046 A 
ATOM     25  C   UNL     1       5.316   4.204  -6.948  0.00  0.00    +0.120 A 
ATOM     26  C   UNL     1       4.438   4.298  -8.018  0.00  0.00    +0.046 A 
ATOM     27  C   UNL     1       3.370   5.173  -7.960  0.00  0.00    +0.009 A 
BRANCH  25  28
ATOM     28  O   UNL     1       6.366   3.344  -7.002  0.00  0.00    -0.495 OA
ATOM     29  C   UNL     1       7.229   3.301  -5.864  0.00  0.00    +0.277 C 
ENDBRANCH  25  28
ENDBRANCH  21  22
ENDBRANCH  17  21
ENDBRANCH  10  13
BRANCH   9  30
ATOM     30  N   UNL     1       0.562   4.091  -1.061  0.00  0.00    -0.318 N 
ATOM     31  C   UNL     1       1.786   3.624  -1.727  0.00  0.00    +0.088 C 
ATOM     32  C   UNL     1       1.776   2.095  -1.794  0.00  0.00    -0.060 C 
ATOM     33  N   UNL     1       1.680   1.549  -0.433  0.00  0.00    +0.380 N 
ATOM     34  C   UNL     1       0.456   2.016   0.233  0.00  0.00    -0.060 C 
ATOM     35  C   UNL     1       0.466   3.545   0.300  0.00  0.00    +0.088 C 
ATOM     36  C   UNL     1       1.744   0.082  -0.449  0.00  0.00    -0.096 C 
ATOM     37  H   UNL     1       2.542   1.917   0.142  0.00  0.00    -0.082 HD
ENDBRANCH   9  30
TORSDOF 5
