REMARK  Name = ZINC43548298
REMARK  10 active torsions:
REMARK  status: ('A' for Active; 'I' for Inactive)
REMARK    1  A    between atoms: C_1  and  C_2
REMARK    2  A    between atoms: N_9  and  C_10
REMARK    3  A    between atoms: C_12  and  C_32
REMARK    4  A    between atoms: C_15  and  O_31
REMARK    5  A    between atoms: C_17  and  C_21
REMARK    6  A    between atoms: C_21  and  C_23
REMARK    7  A    between atoms: C_21  and  C_24
REMARK    8  A    between atoms: N_26  and  C_27
REMARK    9  A    between atoms: N_26  and  C_28
REMARK   10  A    between atoms: C_28  and  C_29
REMARK                            x       y       z     vdW  Elec       q    Type
REMARK                         _______ _______ _______ _____ _____    ______ ____
ROOT
ATOM      1  C   UNL     1       0.219   0.271   0.311  0.00  0.00    +0.014 C 
ATOM      2  C   UNL     1       0.223  -1.220   0.656  0.00  0.00    +0.039 C 
ATOM      3  C   UNL     1      -1.185  -1.658   1.026  0.00  0.00    +0.031 A 
ATOM      4  C   UNL     1      -1.393  -2.511   2.060  0.00  0.00    +0.013 A 
ATOM      5  S   UNL     1      -3.155  -2.694   2.064  0.00  0.00    -0.059 S 
ATOM      6  C   UNL     1      -3.483  -1.678   0.760  0.00  0.00    +0.136 A 
ATOM      7  N   UNL     1      -2.290  -1.263   0.396  0.00  0.00    -0.340 N 
ATOM      8  N   UNL     1      -4.713  -1.357   0.206  0.00  0.00    -0.328 N 
ATOM      9  C   UNL     1      -5.940  -1.931   0.765  0.00  0.00    +0.127 C 
ATOM     10  C   UNL     1      -0.369  -3.121   2.954  0.00  0.00    +0.051 C 
ATOM     11  C   UNL     1       1.015  -2.912   2.334  0.00  0.00    -0.022 C 
ATOM     12  C   UNL     1       1.160  -1.468   1.843  0.00  0.00    +0.033 C 
ATOM     13  C   UNL     1       2.606  -1.283   1.352  0.00  0.00    +0.123 C 
ATOM     14  C   UNL     1       2.849  -2.229   0.174  0.00  0.00    +0.029 C 
ATOM     15  C   UNL     1       2.651  -3.679   0.619  0.00  0.00    +0.007 C 
ATOM     16  C   UNL     1       1.230  -3.865   1.160  0.00  0.00    +0.008 C 
ATOM     17  C   UNL     1       2.086  -3.172   3.396  0.00  0.00    +0.012 C 
ATOM     18  H   UNL     1      -4.761  -0.753  -0.551  0.00  0.00    +0.148 HD
ATOM     19  H   UNL     1      -2.212  -0.652  -0.354  0.00  0.00    +0.167 HD
ENDROOT
BRANCH  14  20
ATOM     20  C   UNL     1       4.281  -2.049  -0.334  0.00  0.00    +0.078 C 
ATOM     21  C   UNL     1       4.481  -0.602  -0.791  0.00  0.00    +0.017 C 
BRANCH  20  22
ATOM     22  C   UNL     1       4.524  -2.980  -1.494  0.00  0.00    +0.219 C 
ATOM     23  O   UNL     1       3.585  -3.482  -2.075  0.00  0.00    -0.275 OA
ATOM     24  N   UNL     1       5.784  -3.255  -1.886  0.00  0.00    -0.301 N 
ATOM     25  C   UNL     1       6.914  -2.575  -1.247  0.00  0.00    +0.132 C 
BRANCH  24  26
ATOM     26  C   UNL     1       6.023  -4.233  -2.950  0.00  0.00    +0.134 C 
BRANCH  26  27
ATOM     27  C   UNL     1       6.030  -3.532  -4.284  0.00  0.00    -0.016 C 
ATOM     28  C   UNL     1       7.060  -3.656  -5.083  0.00  0.00    +0.005 C 
ENDBRANCH  26  27
ENDBRANCH  24  26
ENDBRANCH  20  22
ENDBRANCH  14  20
BRANCH  13  29
ATOM     29  O   UNL     1       3.514  -1.587   2.412  0.00  0.00    -0.391 OA
ATOM     30  H   UNL     1       4.446  -1.490   2.171  0.00  0.00    +0.210 HD
ENDBRANCH  13  29
TORSDOF 5
