REMARK  Name = ZINC09471284
REMARK  11 active torsions:
REMARK  status: ('A' for Active; 'I' for Inactive)
REMARK    1  A    between atoms: C_1  and  C_2
REMARK    2  A    between atoms: C_3  and  C_28
REMARK    3  A    between atoms: C_4  and  C_23
REMARK    4  A    between atoms: C_6  and  C_21
REMARK    5  A    between atoms: C_7  and  S_9
REMARK    6  A    between atoms: S_9  and  C_10
REMARK    7  A    between atoms: C_10  and  C_11
REMARK    8  A    between atoms: N_13  and  C_14
REMARK    9  A    between atoms: N_30  and  C_31
REMARK   10  A    between atoms: C_34  and  O_37
REMARK   11  A    between atoms: O_37  and  C_38
REMARK                            x       y       z     vdW  Elec       q    Type
REMARK                         _______ _______ _______ _____ _____    ______ ____
ROOT
ATOM      1  C   UNL     1       3.341   2.686   0.577  0.00  0.00    +0.061 C 
ATOM      2  C   UNL     1       3.450   1.342  -0.096  0.00  0.00    +0.015 C 
ATOM      3  C   UNL     1       2.332   0.692  -0.456  0.00  0.00    +0.047 C 
ATOM      4  C   UNL     1       2.381  -0.651  -1.127  0.00  0.00    +0.134 C 
ATOM      5  C   UNL     1       3.758  -0.934  -1.656  0.00  0.00    +0.072 C 
ATOM      6  C   UNL     1       4.835  -0.216  -1.241  0.00  0.00    +0.080 C 
ATOM      7  N   UNL     1       4.685   0.801  -0.324  0.00  0.00    -0.312 N 
ATOM      8  H   UNL     1       5.561   1.178   0.225  0.00  0.00    +0.152 HD
ENDROOT
BRANCH   4   9
ATOM      9  C   UNL     1       1.397  -0.672  -2.268  0.00  0.00    +0.118 A 
ATOM     10  C   UNL     1       0.397  -1.557  -2.428  0.00  0.00    +0.045 A 
ATOM     11  C   UNL     1      -0.272  -1.207  -3.624  0.00  0.00    +0.041 A 
ATOM     12  C   UNL     1       0.360  -0.130  -4.123  0.00  0.00    +0.195 A 
ATOM     13  O   UNL     1       1.366   0.194  -3.294  0.00  0.00    -0.467 OA
ENDBRANCH   4   9
BRANCH   3  14
ATOM     14  C   UNL     1       1.074   1.290  -0.203  0.00  0.00    +0.247 C 
ATOM     15  O   UNL     1       0.382   0.889   0.715  0.00  0.00    -0.270 OA
ATOM     16  N   UNL     1       0.642   2.304  -0.979  0.00  0.00    -0.282 N 
ATOM     17  H   UNL     1       1.316   2.753  -1.724  0.00  0.00    +0.155 HD
BRANCH  16  18
ATOM     18  C   UNL     1      -0.664   2.788  -0.836  0.00  0.00    +0.034 A 
ATOM     19  C   UNL     1      -1.343   2.613   0.363  0.00  0.00    +0.027 A 
ATOM     20  C   UNL     1      -2.629   3.094   0.505  0.00  0.00    +0.047 A 
ATOM     21  C   UNL     1      -3.248   3.743  -0.554  0.00  0.00    +0.120 A 
ATOM     22  C   UNL     1      -2.573   3.913  -1.754  0.00  0.00    +0.047 A 
ATOM     23  C   UNL     1      -1.285   3.437  -1.896  0.00  0.00    +0.027 A 
BRANCH  21  24
ATOM     24  O   UNL     1      -4.517   4.211  -0.416  0.00  0.00    -0.495 OA
ATOM     25  C   UNL     1      -5.152   4.001   0.847  0.00  0.00    +0.277 C 
ENDBRANCH  21  24
ENDBRANCH  16  18
ENDBRANCH   3  14
BRANCH   5  26
ATOM     26  C   UNL     1       3.940  -1.980  -2.617  0.00  0.00    +0.098 C 
ATOM     27  N   UNL     1       4.084  -2.810  -3.379  0.00  0.00    -0.191 NA
ENDBRANCH   5  26
BRANCH   6  28
ATOM     28  S   UNL     1       6.434  -0.589  -1.879  0.00  0.00    -0.100 S 
BRANCH  28  29
ATOM     29  C   UNL     1       7.421   0.645  -0.997  0.00  0.00    +0.171 C 
BRANCH  29  30
ATOM     30  C   UNL     1       8.868   0.511  -1.397  0.00  0.00    +0.227 C 
ATOM     31  O   UNL     1       9.199  -0.335  -2.200  0.00  0.00    -0.275 OA
ATOM     32  N   UNL     1       9.794   1.332  -0.862  0.00  0.00    -0.285 N 
ATOM     33  H   UNL     1       9.518   2.013  -0.043  0.00  0.00    +0.155 HD
BRANCH  32  34
ATOM     34  C   UNL     1      11.106   1.319  -1.350  0.00  0.00    +0.034 A 
ATOM     35  C   UNL     1      12.165   1.616  -0.502  0.00  0.00    +0.026 A 
ATOM     36  C   UNL     1      13.460   1.597  -0.984  0.00  0.00    +0.040 A 
ATOM     37  C   UNL     1      13.701   1.292  -2.313  0.00  0.00    +0.124 A 
ATOM     38  C   UNL     1      12.646   1.001  -3.161  0.00  0.00    +0.040 A 
ATOM     39  C   UNL     1      11.350   1.014  -2.682  0.00  0.00    +0.026 A 
ATOM     40  F   UNL     1      14.967   1.279  -2.783  0.00  0.00    -0.205 F 
ENDBRANCH  32  34
ENDBRANCH  29  30
ENDBRANCH  28  29
ENDBRANCH   6  28
TORSDOF 9
