REMARK  Name = ZINC37004918
REMARK  9 active torsions:
REMARK  status: ('A' for Active; 'I' for Inactive)
REMARK    1  A    between atoms: C_1  and  C_2
REMARK    2  A    between atoms: C_2  and  C_4
REMARK    3  A    between atoms: C_2  and  N_12
REMARK    4  A    between atoms: C_13  and  C_15
REMARK    5  A    between atoms: C_15  and  C_17
REMARK    6  A    between atoms: C_15  and  N_23
REMARK    7  A    between atoms: C_17  and  C_18
REMARK    8  A    between atoms: C_18  and  S_19
REMARK    9  A    between atoms: S_19  and  C_22
REMARK                            x       y       z     vdW  Elec       q    Type
REMARK                         _______ _______ _______ _____ _____    ______ ____
ROOT
ATOM      1  N   UNL     1       0.711  -0.489   1.189  0.00  0.00    -0.307 N 
ATOM      2  C   UNL     1       2.054  -0.600   1.174  0.00  0.00    +0.199 C 
ATOM      3  O   UNL     1       2.676  -0.297   0.177  0.00  0.00    -0.278 OA
ATOM      4  H   UNL     1       0.213  -0.731   1.986  0.00  0.00    +0.149 HD
ENDROOT
BRANCH   1   6
ATOM      5  C   UNL     1      -0.019   1.526   0.010  0.00  0.00    +0.036 C 
ATOM      6  C   UNL     1       0.002  -0.004   0.002  0.00  0.00    +0.138 C 
BRANCH   6   7
ATOM      7  C   UNL     1      -1.412  -0.526   0.013  0.00  0.00    +0.154 A 
ATOM      8  N   UNL     1      -2.224  -0.539   1.034  0.00  0.00    -0.132 NA
ATOM      9  N   UNL     1      -3.349  -1.055   0.686  0.00  0.00    -0.134 NA
ATOM     10  C   UNL     1      -3.303  -1.397  -0.575  0.00  0.00    +0.134 A 
ATOM     11  N   UNL     1      -2.078  -1.063  -1.039  0.00  0.00    -0.313 N 
ATOM     12  C   UNL     1      -1.941  -1.401  -2.461  0.00  0.00    +0.125 C 
ATOM     13  C   UNL     1      -3.086  -2.391  -2.764  0.00  0.00    +0.029 C 
ATOM     14  C   UNL     1      -4.123  -2.021  -1.683  0.00  0.00    +0.078 C 
ENDBRANCH   6   7
ENDBRANCH   1   6
BRANCH   2  15
ATOM     15  C   UNL     1       2.783  -1.099   2.395  0.00  0.00    +0.014 C 
BRANCH  15  16
ATOM     16  N   UNL     1       4.115  -1.580   2.007  0.00  0.00    +0.386 N 
ATOM     17  H   UNL     1       4.637  -0.824   1.589  0.00  0.00    -0.089 HD
ATOM     18  H   UNL     1       4.603  -1.914   2.824  0.00  0.00    -0.089 HD
ATOM     19  H   UNL     1       4.021  -2.332   1.341  0.00  0.00    -0.089 HD
ENDBRANCH  15  16
BRANCH  15  20
ATOM     20  C   UNL     1       2.926   0.041   3.405  0.00  0.00    +0.015 C 
BRANCH  20  21
ATOM     21  C   UNL     1       3.554  -0.495   4.693  0.00  0.00    +0.164 C 
BRANCH  21  22
ATOM     22  S   UNL     1       3.724   0.857   5.891  0.00  0.00    -0.034 S 
ATOM     23  O   UNL     1       4.655   1.799   5.376  0.00  0.00    -0.175 OA
ATOM     24  O   UNL     1       2.424   1.300   6.256  0.00  0.00    -0.175 OA
ATOM     25  C   UNL     1       4.473   0.032   7.322  0.00  0.00    +0.194 C 
ENDBRANCH  21  22
ENDBRANCH  20  21
ENDBRANCH  15  20
ENDBRANCH   2  15
TORSDOF 7
