REMARK  Name = ZINC09542542
REMARK  12 active torsions:
REMARK  status: ('A' for Active; 'I' for Inactive)
REMARK    1  A    between atoms: C_1  and  C_2
REMARK    2  A    between atoms: C_2  and  O_3
REMARK    3  A    between atoms: O_3  and  C_4
REMARK    4  A    between atoms: C_8  and  C_11
REMARK    5  A    between atoms: C_9  and  O_10
REMARK    6  A    between atoms: C_14  and  C_28
REMARK    7  A    between atoms: C_16  and  C_18
REMARK    8  A    between atoms: C_21  and  C_24
REMARK    9  A    between atoms: C_24  and  O_26
REMARK   10  A    between atoms: O_26  and  C_27
REMARK   11  A    between atoms: C_32  and  O_34
REMARK   12  A    between atoms: O_34  and  C_35
REMARK                            x       y       z     vdW  Elec       q    Type
REMARK                         _______ _______ _______ _____ _____    ______ ____
ROOT
ATOM      1  C   UNL     1       1.025   7.516   0.423  0.00  0.00    -0.028 C 
ATOM      2  C   UNL     1       1.250   6.055   0.028  0.00  0.00    +0.044 C 
ATOM      3  C   UNL     1      -0.064   5.325   0.030  0.00  0.00    +0.040 C 
ATOM      4  N   UNL     1      -1.196   5.922   0.044  0.00  0.00    -0.299 NA
ATOM      5  C   UNL     1      -1.356   7.371   0.064  0.00  0.00    +0.081 C 
ATOM      6  N   UNL     1      -0.115   8.039  -0.356  0.00  0.00    +0.401 N 
ATOM      7  H   UNL     1       0.046   7.862  -1.354  0.00  0.00    -0.081 HD
ATOM      8  H   UNL     1      -0.201   9.050  -0.196  0.00  0.00    -0.081 HD
ENDROOT
BRANCH   1  13
ATOM      9  C   UNL     1       4.470   9.060   0.707  0.00  0.00    +0.162 A 
ATOM     10  C   UNL     1       4.527   9.811  -0.456  0.00  0.00    +0.049 A 
ATOM     11  C   UNL     1       3.454   9.817  -1.328  0.00  0.00    +0.004 A 
ATOM     12  C   UNL     1       2.325   9.070  -1.046  0.00  0.00    +0.006 A 
ATOM     13  C   UNL     1       2.259   8.324   0.116  0.00  0.00    -0.016 A 
ATOM     14  C   UNL     1       3.331   8.313   0.994  0.00  0.00    +0.160 A 
BRANCH  14  15
ATOM     15  O   UNL     1       3.270   7.574   2.134  0.00  0.00    -0.503 OA
ATOM     16  H   UNL     1       3.598   6.670   2.034  0.00  0.00    +0.292 HD
ENDBRANCH  14  15
BRANCH   9  17
ATOM     17  O   UNL     1       5.524   9.053   1.566  0.00  0.00    -0.489 OA
BRANCH  17  19
ATOM     18  C   UNL     1       7.735   9.710   2.286  0.00  0.00    +0.048 C 
ATOM     19  C   UNL     1       6.659   9.843   1.207  0.00  0.00    +0.226 C 
ENDBRANCH  17  19
ENDBRANCH   9  17
ENDBRANCH   1  13
BRANCH   5  20
ATOM     20  C   UNL     1      -1.711   7.812   1.461  0.00  0.00    -0.040 A 
ATOM     21  C   UNL     1      -1.321   9.062   1.908  0.00  0.00    +0.004 A 
ATOM     22  C   UNL     1      -1.647   9.474   3.183  0.00  0.00    +0.015 A 
ATOM     23  C   UNL     1      -2.364   8.622   4.027  0.00  0.00    +0.059 A 
ATOM     24  C   UNL     1      -2.749   7.360   3.571  0.00  0.00    +0.015 A 
ATOM     25  C   UNL     1      -2.421   6.963   2.291  0.00  0.00    +0.004 A 
BRANCH  23  26
ATOM     26  C   UNL     1      -2.711   9.054   5.396  0.00  0.00    +0.339 C 
ATOM     27  O   UNL     1      -3.334   8.311   6.128  0.00  0.00    -0.245 OA
BRANCH  26  28
ATOM     28  O   UNL     1      -2.338  10.273   5.833  0.00  0.00    -0.464 OA
ATOM     29  C   UNL     1      -2.714  10.630   7.189  0.00  0.00    +0.280 C 
ENDBRANCH  26  28
ENDBRANCH  23  26
ENDBRANCH   5  20
BRANCH   3  30
ATOM     30  C   UNL     1      -0.049   3.849   0.022  0.00  0.00    -0.001 A 
ATOM     31  C   UNL     1       1.167   3.160   0.007  0.00  0.00    +0.010 A 
ATOM     32  C   UNL     1       1.177   1.781   0.000  0.00  0.00    +0.004 A 
ATOM     33  C   UNL     1      -0.013   1.076   0.008  0.00  0.00    +0.045 A 
ATOM     34  C   UNL     1      -1.226   1.751   0.017  0.00  0.00    +0.121 A 
ATOM     35  C   UNL     1      -1.248   3.135   0.030  0.00  0.00    +0.055 A 
BRANCH  34  36
ATOM     36  O   UNL     1      -2.392   1.052   0.019  0.00  0.00    -0.495 OA
ATOM     37  C   UNL     1      -2.294  -0.373   0.012  0.00  0.00    +0.277 C 
ENDBRANCH  34  36
ENDBRANCH   3  30
TORSDOF 9
