REMARK  Name = ZINC08738192
REMARK  8 active torsions:
REMARK  status: ('A' for Active; 'I' for Inactive)
REMARK    1  A    between atoms: C_1  and  C_2
REMARK    2  A    between atoms: C_2  and  C_3
REMARK    3  A    between atoms: C_2  and  C_4
REMARK    4  A    between atoms: C_4  and  C_5
REMARK    5  A    between atoms: C_5  and  C_7
REMARK    6  A    between atoms: C_5  and  N_19
REMARK    7  A    between atoms: N_9  and  C_10
REMARK    8  A    between atoms: C_20  and  C_22
REMARK                            x       y       z     vdW  Elec       q    Type
REMARK                         _______ _______ _______ _____ _____    ______ ____
ROOT
ATOM      1  C   UNL     1      -2.102  -0.033   1.175  0.00  0.00    +0.159 C 
ENDROOT
BRANCH   1   2
ATOM      2  C   UNL     1      -3.385  -0.812   1.309  0.00  0.00    +0.238 C 
ATOM      3  O   UNL     1      -4.451  -0.234   1.287  0.00  0.00    -0.273 OA
ATOM      4  N   UNL     1      -3.348  -2.151   1.453  0.00  0.00    -0.284 N 
ATOM      5  H   UNL     1      -2.495  -2.607   1.529  0.00  0.00    +0.155 HD
BRANCH   4   6
ATOM      6  C   UNL     1      -4.541  -2.885   1.493  0.00  0.00    +0.037 A 
ATOM      7  C   UNL     1      -5.667  -2.347   2.102  0.00  0.00    +0.027 A 
ATOM      8  C   UNL     1      -6.845  -3.068   2.139  0.00  0.00    +0.051 A 
ATOM      9  C   UNL     1      -6.904  -4.332   1.576  0.00  0.00    +0.166 A 
ATOM     10  C   UNL     1      -5.775  -4.877   0.968  0.00  0.00    +0.168 A 
ATOM     11  C   UNL     1      -4.596  -4.152   0.928  0.00  0.00    +0.072 A 
ATOM     12  O   UNL     1      -6.090  -6.118   0.496  0.00  0.00    -0.453 OA
ATOM     13  C   UNL     1      -7.300  -6.494   1.179  0.00  0.00    +0.466 C 
ATOM     14  O   UNL     1      -7.926  -5.234   1.484  0.00  0.00    -0.453 OA
ENDBRANCH   4   6
ENDBRANCH   1   2
BRANCH   1  15
ATOM     15  N   UNL     1      -2.409   1.394   1.047  0.00  0.00    -0.305 N 
ATOM     16  C   UNL     1      -1.494   2.315   1.409  0.00  0.00    +0.200 C 
ATOM     17  O   UNL     1      -0.386   1.965   1.756  0.00  0.00    -0.278 OA
ATOM     18  H   UNL     1      -3.270   1.676   0.701  0.00  0.00    +0.149 HD
BRANCH  16  19
ATOM     19  C   UNL     1      -1.848   3.780   1.384  0.00  0.00    +0.021 C 
ATOM     20  C   UNL     1      -2.646   4.137   2.638  0.00  0.00    +0.028 C 
ATOM     21  C   UNL     1      -2.794   5.633   2.745  0.00  0.00    -0.047 A 
ATOM     22  C   UNL     1      -3.765   6.143   3.594  0.00  0.00    +0.004 A 
ATOM     23  C   UNL     1      -3.931   7.506   3.725  0.00  0.00    +0.000 A 
ATOM     24  C   UNL     1      -3.126   8.370   3.005  0.00  0.00    +0.000 A 
ATOM     25  C   UNL     1      -2.161   7.864   2.158  0.00  0.00    +0.002 A 
ATOM     26  C   UNL     1      -1.993   6.493   2.025  0.00  0.00    -0.061 A 
ATOM     27  C   UNL     1      -0.933   5.989   1.081  0.00  0.00    -0.045 C 
ATOM     28  N   UNL     1      -0.612   4.584   1.368  0.00  0.00    +0.389 N 
ATOM     29  H   UNL     1       0.019   4.224   0.642  0.00  0.00    -0.084 HD
ATOM     30  H   UNL     1      -0.152   4.519   2.284  0.00  0.00    -0.084 HD
ENDBRANCH  16  19
ENDBRANCH   1  15
BRANCH   1  31
ATOM     31  C   UNL     1      -1.346  -0.505  -0.069  0.00  0.00    +0.034 C 
BRANCH  31  33
ATOM     32  C   UNL     1      -3.412  -1.040  -1.368  0.00  0.00    +0.007 C 
ATOM     33  C   UNL     1      -2.158  -0.165  -1.320  0.00  0.00    -0.015 C 
ATOM     34  C   UNL     1      -1.308  -0.423  -2.566  0.00  0.00    +0.007 C 
ENDBRANCH  31  33
ENDBRANCH   1  31
TORSDOF 6
