REMARK  Name = ZINC44747122
REMARK  3 active torsions:
REMARK  status: ('A' for Active; 'I' for Inactive)
REMARK    1  A    between atoms: C_6  and  O_7
REMARK    2  A    between atoms: C_11  and  N_13
REMARK    3  A    between atoms: N_13  and  C_14
REMARK                            x       y       z     vdW  Elec       q    Type
REMARK                         _______ _______ _______ _____ _____    ______ ____
ROOT
ATOM      1  C   UNL     1       0.277   1.861  -1.206  0.00  0.00    +0.045 A 
ATOM      2  C   UNL     1       1.472   2.402  -0.782  0.00  0.00    +0.006 A 
ATOM      3  C   UNL     1       2.534   1.580  -0.428  0.00  0.00    -0.058 A 
ATOM      4  C   UNL     1       2.393   0.211  -0.496  0.00  0.00    -0.042 A 
ATOM      5  C   UNL     1       1.192  -0.336  -0.926  0.00  0.00    +0.049 A 
ATOM      6  C   UNL     1       0.133   0.483  -1.280  0.00  0.00    +0.117 A 
ATOM      7  C   UNL     1       3.497  -0.738  -0.112  0.00  0.00    +0.035 C 
ATOM      8  C   UNL     1       4.842  -0.015  -0.085  0.00  0.00    +0.003 C 
ATOM      9  C   UNL     1       4.696   1.248   0.771  0.00  0.00    -0.011 C 
ATOM     10  C   UNL     1       3.813   2.241   0.018  0.00  0.00    -0.040 C 
ENDROOT
BRANCH  10  11
ATOM     11  N   UNL     1       3.492   3.370   0.901  0.00  0.00    +0.386 N 
ATOM     12  H   UNL     1       4.294   3.978   0.975  0.00  0.00    -0.085 HD
ATOM     13  H   UNL     1       2.713   3.885   0.518  0.00  0.00    -0.085 HD
BRANCH  11  14
ATOM     14  C   UNL     1       3.136   2.864   2.234  0.00  0.00    -0.068 C 
ATOM     15  C   UNL     1       1.839   2.067   2.139  0.00  0.00    +0.007 C 
ATOM     16  C   UNL     1       1.593   1.311   3.447  0.00  0.00    +0.164 C 
ATOM     17  S   UNL     1       1.378   2.515   4.791  0.00  0.00    -0.031 S 
ATOM     18  O   UNL     1       1.431   1.823   6.031  0.00  0.00    -0.174 OA
ATOM     19  O   UNL     1       0.247   3.324   4.497  0.00  0.00    -0.174 OA
ATOM     20  C   UNL     1       2.876   3.532   4.632  0.00  0.00    +0.164 C 
ATOM     21  C   UNL     1       2.979   4.041   3.192  0.00  0.00    +0.007 C 
ENDBRANCH  11  14
ENDBRANCH  10  11
BRANCH   6  22
ATOM     22  O   UNL     1      -1.040  -0.059  -1.699  0.00  0.00    -0.507 OA
ATOM     23  H   UNL     1      -1.089  -0.202  -2.655  0.00  0.00    +0.292 HD
ENDBRANCH   6  22
TORSDOF 3
