REMARK  Name = ZINC03670621
REMARK  12 active torsions:
REMARK  status: ('A' for Active; 'I' for Inactive)
REMARK    1  A    between atoms: C_1  and  C_2
REMARK    2  A    between atoms: C_2  and  O_3
REMARK    3  A    between atoms: O_3  and  C_4
REMARK    4  A    between atoms: C_7  and  N_10
REMARK    5  A    between atoms: C_20  and  C_21
REMARK    6  A    between atoms: C_20  and  O_30
REMARK    7  A    between atoms: N_23  and  C_24
REMARK    8  A    between atoms: C_24  and  C_25
REMARK    9  A    between atoms: C_25  and  C_26
REMARK   10  A    between atoms: C_26  and  N_27
REMARK   11  A    between atoms: N_27  and  C_28
REMARK   12  A    between atoms: N_27  and  C_29
REMARK                            x       y       z     vdW  Elec       q    Type
REMARK                         _______ _______ _______ _____ _____    ______ ____
ROOT
ATOM      1  N   UNL     1       1.103  -5.938  -1.834  0.00  0.00    -0.214 N 
ATOM      2  C   UNL     1       0.673  -6.776  -0.873  0.00  0.00    +0.314 C 
ATOM      3  O   UNL     1       0.190  -6.301   0.137  0.00  0.00    -0.252 OA
ATOM      4  N   UNL     1       0.752  -8.109  -0.977  0.00  0.00    -0.269 N 
ATOM      5  C   UNL     1       1.288  -8.753  -2.093  0.00  0.00    +0.043 A 
ATOM      6  C   UNL     1       1.348 -10.139  -2.151  0.00  0.00    +0.025 A 
ATOM      7  C   UNL     1       1.883 -10.758  -3.264  0.00  0.00    +0.017 A 
ATOM      8  C   UNL     1       2.359 -10.004  -4.322  0.00  0.00    +0.018 A 
ATOM      9  C   UNL     1       2.302  -8.621  -4.268  0.00  0.00    +0.025 A 
ATOM     10  C   UNL     1       1.770  -8.003  -3.160  0.00  0.00    +0.034 A 
ATOM     11  C   UNL     1       1.684  -6.497  -3.066  0.00  0.00    +0.247 C 
ATOM     12 BR   UNL     1       3.090 -10.862  -5.840  0.00  0.00    -0.050 Br
ATOM     13  H   UNL     1       0.422  -8.651  -0.243  0.00  0.00    +0.156 HD
ENDROOT
BRANCH   1  17
ATOM     14  C   UNL     1       0.775  -1.811  -1.336  0.00  0.00    +0.121 A 
ATOM     15  C   UNL     1      -0.208  -2.506  -2.025  0.00  0.00    +0.047 A 
ATOM     16  C   UNL     1      -0.100  -3.873  -2.190  0.00  0.00    +0.027 A 
ATOM     17  C   UNL     1       0.993  -4.551  -1.667  0.00  0.00    +0.042 A 
ATOM     18  C   UNL     1       1.976  -3.855  -0.978  0.00  0.00    +0.027 A 
ATOM     19  C   UNL     1       1.870  -2.487  -0.818  0.00  0.00    +0.047 A 
BRANCH  14  20
ATOM     20  O   UNL     1       0.668  -0.465  -1.173  0.00  0.00    -0.492 OA
BRANCH  20  22
ATOM     21  C   UNL     1      -0.431   1.669  -1.450  0.00  0.00    +0.048 C 
ATOM     22  C   UNL     1      -0.486   0.166  -1.732  0.00  0.00    +0.225 C 
ENDBRANCH  20  22
ENDBRANCH  14  20
ENDBRANCH   1  17
BRANCH  11  23
ATOM     23  C   UNL     1       3.080  -5.947  -3.213  0.00  0.00    +0.269 C 
ATOM     24  O   UNL     1       3.374  -5.293  -4.191  0.00  0.00    -0.270 OA
ATOM     25  N   UNL     1       4.000  -6.182  -2.257  0.00  0.00    -0.311 N 
ATOM     26  H   UNL     1       3.765  -6.705  -1.474  0.00  0.00    +0.149 HD
BRANCH  25  27
ATOM     27  C   UNL     1       5.357  -5.647  -2.399  0.00  0.00    +0.102 C 
BRANCH  27  28
ATOM     28  C   UNL     1       6.196  -6.055  -1.186  0.00  0.00    +0.000 C 
BRANCH  28  29
ATOM     29  C   UNL     1       7.612  -5.497  -1.335  0.00  0.00    -0.078 C 
BRANCH  29  30
ATOM     30  N   UNL     1       8.418  -5.888  -0.170  0.00  0.00    +0.376 N 
ATOM     31  C   UNL     1       8.575  -7.348  -0.153  0.00  0.00    -0.097 C 
ATOM     32  C   UNL     1       9.740  -5.254  -0.253  0.00  0.00    -0.097 C 
ATOM     33  H   UNL     1       7.954  -5.590   0.675  0.00  0.00    -0.083 HD
ENDBRANCH  29  30
ENDBRANCH  28  29
ENDBRANCH  27  28
ENDBRANCH  25  27
ENDBRANCH  11  23
BRANCH  11  34
ATOM     34  O   UNL     1       0.911  -6.025  -4.172  0.00  0.00    -0.360 OA
ATOM     35  H   UNL     1       1.220  -6.342  -5.032  0.00  0.00    +0.213 HD
ENDBRANCH  11  34
TORSDOF 9
