REMARK  Name = ZINC63373788
REMARK  8 active torsions:
REMARK  status: ('A' for Active; 'I' for Inactive)
REMARK    1  A    between atoms: C_1  and  C_2
REMARK    2  A    between atoms: C_2  and  C_3
REMARK    3  A    between atoms: C_2  and  C_4
REMARK    4  A    between atoms: C_7  and  N_10
REMARK    5  A    between atoms: C_13  and  C_38
REMARK    6  A    between atoms: C_24  and  C_30
REMARK    7  A    between atoms: C_35  and  O_36
REMARK    8  A    between atoms: O_36  and  C_37
REMARK                            x       y       z     vdW  Elec       q    Type
REMARK                         _______ _______ _______ _____ _____    ______ ____
ROOT
ATOM      1  N   UNL     1      -5.322  -1.970   0.043  0.00  0.00    -0.192 N 
ATOM      2  C   UNL     1      -5.876  -2.678  -0.962  0.00  0.00    +0.253 C 
ATOM      3  O   UNL     1      -5.359  -2.978  -2.017  0.00  0.00    -0.272 OA
ATOM      4  C   UNL     1      -7.276  -3.021  -0.501  0.00  0.00    +0.137 C 
ATOM      5  C   UNL     1      -8.309  -2.393  -1.444  0.00  0.00    +0.139 C 
ATOM      6  C   UNL     1      -9.611  -2.300  -0.656  0.00  0.00    -0.027 C 
ATOM      7  C   UNL     1     -10.520  -2.973  -1.356  0.00  0.00    -0.000 A 
ATOM      8  C   UNL     1     -11.960  -3.185  -1.138  0.00  0.00    +0.010 A 
ATOM      9  C   UNL     1     -12.599  -3.949  -2.062  0.00  0.00    +0.001 A 
ATOM     10  C   UNL     1     -11.958  -4.516  -3.168  0.00  0.00    +0.002 A 
ATOM     11  C   UNL     1     -10.639  -4.369  -3.449  0.00  0.00    +0.026 A 
ATOM     12  C   UNL     1      -9.860  -3.582  -2.550  0.00  0.00    +0.043 A 
ATOM     13  N   UNL     1      -8.588  -3.265  -2.588  0.00  0.00    -0.375 N 
ATOM     14  C   UNL     1      -9.721  -1.613   0.683  0.00  0.00    +0.069 C 
ATOM     15  C   UNL     1      -8.616  -2.197   1.586  0.00  0.00    +0.123 C 
ATOM     16  N   UNL     1      -7.388  -2.311   0.793  0.00  0.00    -0.268 N 
ATOM     17  C   UNL     1      -6.182  -1.793   1.055  0.00  0.00    +0.317 C 
ATOM     18  O   UNL     1      -5.899  -1.224   2.091  0.00  0.00    -0.252 OA
ATOM     19  C   UNL     1      -7.473  -4.530  -0.347  0.00  0.00    +0.044 C 
ATOM     20  H   UNL     1      -7.941  -3.554  -3.250  0.00  0.00    +0.160 HD
ENDROOT
BRANCH   1  24
ATOM     21  C   UNL     1      -1.412  -0.526   0.013  0.00  0.00    -0.045 A 
ATOM     22  C   UNL     1      -2.265  -0.184   1.046  0.00  0.00    +0.006 A 
ATOM     23  C   UNL     1      -3.562  -0.661   1.058  0.00  0.00    +0.024 A 
ATOM     24  C   UNL     1      -4.007  -1.484   0.033  0.00  0.00    +0.045 A 
ATOM     25  C   UNL     1      -3.148  -1.824  -1.003  0.00  0.00    +0.024 A 
ATOM     26  C   UNL     1      -1.855  -1.340  -1.013  0.00  0.00    +0.006 A 
BRANCH  21  28
ATOM     27  C   UNL     1      -0.019   1.526  -0.018  0.00  0.00    +0.012 C 
ATOM     28  C   UNL     1       0.002  -0.004   0.002  0.00  0.00    +0.013 C 
ATOM     29  C   UNL     1       0.734  -0.488   1.256  0.00  0.00    +0.012 C 
ENDBRANCH  21  28
ENDBRANCH   1  24
BRANCH  14  30
ATOM     30  C   UNL     1     -11.075  -1.881   1.288  0.00  0.00    +0.003 A 
ATOM     31  C   UNL     1     -11.467  -3.179   1.558  0.00  0.00    +0.008 A 
ATOM     32  C   UNL     1     -12.710  -3.425   2.112  0.00  0.00    +0.001 A 
ATOM     33  C   UNL     1     -13.563  -2.375   2.398  0.00  0.00    +0.004 A 
ATOM     34  C   UNL     1     -13.175  -1.077   2.131  0.00  0.00    +0.046 A 
ATOM     35  C   UNL     1     -11.927  -0.826   1.579  0.00  0.00    +0.124 A 
BRANCH  35  36
ATOM     36  O   UNL     1     -11.541   0.451   1.320  0.00  0.00    -0.495 OA
ATOM     37  C   UNL     1     -12.469   1.488   1.646  0.00  0.00    +0.277 C 
ENDBRANCH  35  36
ENDBRANCH  14  30
TORSDOF 4
