REMARK  Name = ZINC21776932
REMARK  12 active torsions:
REMARK  status: ('A' for Active; 'I' for Inactive)
REMARK    1  A    between atoms: C_1  and  C_2
REMARK    2  A    between atoms: C_2  and  C_3
REMARK    3  A    between atoms: C_3  and  C_4
REMARK    4  A    between atoms: N_6  and  C_7
REMARK    5  A    between atoms: C_10  and  S_13
REMARK    6  A    between atoms: S_13  and  N_16
REMARK    7  A    between atoms: N_16  and  C_17
REMARK    8  A    between atoms: C_17  and  C_18
REMARK    9  A    between atoms: C_18  and  C_20
REMARK   10  A    between atoms: C_18  and  N_30
REMARK   11  A    between atoms: N_28  and  C_29
REMARK   12  A    between atoms: N_33  and  C_36
REMARK                            x       y       z     vdW  Elec       q    Type
REMARK                         _______ _______ _______ _____ _____    ______ ____
ROOT
ATOM      1  C   UNL     1       2.905   4.176   2.648  0.00  0.00    +0.129 C 
ENDROOT
BRANCH   1   2
ATOM      2  N   UNL     1       1.543   4.443   2.181  0.00  0.00    -0.188 NA
ATOM      3  H   UNL     1       0.855   5.037   2.800  0.00  0.00    +0.148 HD
BRANCH   2   4
ATOM      4  S   UNL     1       0.955   3.653   0.849  0.00  0.00    +0.058 S 
ATOM      5  O   UNL     1       1.942   3.776  -0.165  0.00  0.00    -0.153 OA
ATOM      6  O   UNL     1      -0.382   4.101   0.669  0.00  0.00    -0.153 OA
BRANCH   4  10
ATOM      7  C   UNL     1       0.716  -0.746   1.898  0.00  0.00    +0.033 A 
ATOM      8  C   UNL     1      -0.369   0.086   2.139  0.00  0.00    +0.025 A 
ATOM      9  C   UNL     1      -0.293   1.427   1.818  0.00  0.00    +0.030 A 
ATOM     10  C   UNL     1       0.862   1.941   1.257  0.00  0.00    +0.105 A 
ATOM     11  C   UNL     1       1.944   1.115   1.016  0.00  0.00    +0.030 A 
ATOM     12  C   UNL     1       1.874  -0.227   1.335  0.00  0.00    +0.025 A 
BRANCH   7  15
ATOM     13  C   UNL     1      -0.505  -2.784   2.026  0.00  0.00    +0.217 C 
ATOM     14  O   UNL     1      -1.496  -2.201   1.640  0.00  0.00    -0.275 OA
ATOM     15  N   UNL     1       0.643  -2.105   2.223  0.00  0.00    -0.285 N 
ATOM     16  H   UNL     1       1.522  -2.620   2.638  0.00  0.00    +0.155 HD
BRANCH  13  17
ATOM     17  C   UNL     1      -0.557  -4.267   2.287  0.00  0.00    +0.096 C 
BRANCH  17  19
ATOM     18  C   UNL     1      -2.018  -6.294   2.253  0.00  0.00    +0.004 C 
ATOM     19  C   UNL     1      -1.965  -4.788   1.989  0.00  0.00    +0.006 C 
ENDBRANCH  17  19
ENDBRANCH  13  17
ENDBRANCH   7  15
ENDBRANCH   4  10
ENDBRANCH   2   4
ENDBRANCH   1   2
BRANCH   1  20
ATOM     20  C   UNL     1       3.331   5.270   3.629  0.00  0.00    +0.102 C 
BRANCH  20  21
ATOM     21  C   UNL     1       4.773   5.065   4.015  0.00  0.00    -0.029 A 
ATOM     22  C   UNL     1       5.730   4.861   3.037  0.00  0.00    +0.007 A 
ATOM     23  C   UNL     1       7.051   4.675   3.386  0.00  0.00    +0.024 A 
ATOM     24  C   UNL     1       7.430   4.680   4.728  0.00  0.00    +0.033 A 
ATOM     25  C   UNL     1       6.461   4.885   5.702  0.00  0.00    -0.025 A 
ATOM     26  C   UNL     1       5.142   5.075   5.348  0.00  0.00    +0.010 A 
ATOM     27  C   UNL     1       7.145   4.855   7.055  0.00  0.00    +0.056 C 
ATOM     28  C   UNL     1       8.637   5.024   6.688  0.00  0.00    +0.109 C 
ATOM     29  N   UNL     1       8.693   4.500   5.306  0.00  0.00    -0.332 N 
ATOM     30  C   UNL     1       9.732   5.185   4.525  0.00  0.00    +0.129 C 
ENDBRANCH  20  21
BRANCH  20  31
ATOM     31  N   UNL     1       3.177   6.585   2.992  0.00  0.00    -0.298 NA
ATOM     32  C   UNL     1       4.015   6.689   1.789  0.00  0.00    +0.066 C 
ATOM     33  C   UNL     1       3.766   8.040   1.113  0.00  0.00    -0.064 C 
ATOM     34  N   UNL     1       4.072   9.122   2.059  0.00  0.00    +0.379 N 
ATOM     35  C   UNL     1       3.234   9.018   3.262  0.00  0.00    -0.064 C 
ATOM     36  C   UNL     1       3.483   7.668   3.938  0.00  0.00    +0.066 C 
ATOM     37  C   UNL     1       3.918  10.437   1.423  0.00  0.00    -0.096 C 
ATOM     38  H   UNL     1       5.123   9.018   2.367  0.00  0.00    -0.082 HD
ENDBRANCH  20  31
ENDBRANCH   1  20
TORSDOF 9
