REMARK  Name = ZINC62963766
REMARK  8 active torsions:
REMARK  status: ('A' for Active; 'I' for Inactive)
REMARK    1  A    between atoms: C_1  and  C_2
REMARK    2  A    between atoms: C_2  and  C_4
REMARK    3  A    between atoms: C_2  and  N_15
REMARK    4  A    between atoms: N_6  and  C_7
REMARK    5  A    between atoms: C_10  and  N_14
REMARK    6  A    between atoms: C_18  and  N_21
REMARK    7  A    between atoms: N_21  and  C_22
REMARK    8  A    between atoms: N_21  and  C_23
REMARK                            x       y       z     vdW  Elec       q    Type
REMARK                         _______ _______ _______ _____ _____    ______ ____
ROOT
ATOM      1  C   UNL     1       0.735  -0.498   1.223  0.00  0.00    +0.203 C 
ATOM      2  O   UNL     1       1.727  -1.185   1.099  0.00  0.00    -0.277 OA
ATOM      3  N   UNL     1       0.278  -0.191   2.453  0.00  0.00    -0.286 N 
ATOM      4  H   UNL     1      -0.476   0.411   2.554  0.00  0.00    +0.155 HD
ENDROOT
BRANCH   3   5
ATOM      5  C   UNL     1       0.892  -0.740   3.587  0.00  0.00    +0.052 A 
ATOM      6  C   UNL     1       2.263  -0.963   3.594  0.00  0.00    +0.026 A 
ATOM      7  C   UNL     1       2.868  -1.504   4.711  0.00  0.00    +0.024 A 
ATOM      8  C   UNL     1       2.107  -1.825   5.828  0.00  0.00    +0.026 A 
ATOM      9  C   UNL     1       0.737  -1.601   5.821  0.00  0.00    +0.044 A 
ATOM     10  C   UNL     1       0.131  -1.055   4.706  0.00  0.00    +0.064 A 
ATOM     11 CL   UNL     1      -1.581  -0.769   4.700  0.00  0.00    -0.082 Cl
BRANCH   8  12
ATOM     12  N   UNL     1       2.721  -2.374   6.958  0.00  0.00    -0.358 N 
ATOM     13  H   UNL     1       3.678  -2.530   6.963  0.00  0.00    +0.142 HD
ATOM     14  H   UNL     1       2.189  -2.598   7.738  0.00  0.00    +0.142 HD
ENDBRANCH   8  12
ENDBRANCH   3   5
BRANCH   1  16
ATOM     15  C   UNL     1      -0.002   1.540   0.018  0.00  0.00    -0.004 C 
ATOM     16  C   UNL     1       0.013   0.010   0.002  0.00  0.00    +0.016 C 
BRANCH  16  17
ATOM     17  N   UNL     1       0.704  -0.460  -1.206  0.00  0.00    +0.388 N 
ATOM     18  C   UNL     1      -0.058  -0.077  -2.423  0.00  0.00    -0.076 C 
ATOM     19  C   UNL     1       0.422  -1.062  -3.509  0.00  0.00    -0.002 C 
ATOM     20  C   UNL     1       0.942  -2.291  -2.735  0.00  0.00    +0.038 C 
ATOM     21  C   UNL     1       0.731  -1.945  -1.245  0.00  0.00    -0.059 C 
ATOM     22  H   UNL     1       1.641  -0.089  -1.244  0.00  0.00    -0.081 HD
BRANCH  20  23
ATOM     23  N   UNL     1       0.168  -3.487  -3.097  0.00  0.00    -0.307 NA
ATOM     24  C   UNL     1       0.306  -3.789  -4.528  0.00  0.00    +0.104 C 
ATOM     25  C   UNL     1       0.564  -4.638  -2.275  0.00  0.00    +0.104 C 
ENDBRANCH  20  23
ENDBRANCH  16  17
ENDBRANCH   1  16
TORSDOF 5
