REMARK  Name = ZINC49073914
REMARK  8 active torsions:
REMARK  status: ('A' for Active; 'I' for Inactive)
REMARK    1  A    between atoms: C_1  and  C_2
REMARK    2  A    between atoms: C_2  and  C_4
REMARK    3  A    between atoms: C_2  and  N_10
REMARK    4  A    between atoms: C_4  and  N_5
REMARK    5  A    between atoms: N_13  and  C_14
REMARK    6  A    between atoms: C_14  and  C_15
REMARK    7  A    between atoms: C_15  and  C_17
REMARK    8  A    between atoms: C_15  and  N_25
REMARK                            x       y       z     vdW  Elec       q    Type
REMARK                         _______ _______ _______ _____ _____    ______ ____
ROOT
ATOM      1  C   UNL     1      -0.153  -1.111   4.904  0.00  0.00    +0.095 C 
ENDROOT
BRANCH   1   5
ATOM      2  N   UNL     1      -3.195  -2.726   3.616  0.00  0.00    -0.295 N 
ATOM      3  C   UNL     1      -2.252  -1.798   3.875  0.00  0.00    +0.300 C 
ATOM      4  O   UNL     1      -2.371  -0.671   3.434  0.00  0.00    -0.253 OA
ATOM      5  N   UNL     1      -1.178  -2.119   4.622  0.00  0.00    -0.301 N 
ATOM      6  H   UNL     1      -3.100  -3.625   3.967  0.00  0.00    +0.151 HD
ATOM      7  H   UNL     1      -1.083  -3.018   4.974  0.00  0.00    +0.150 HD
BRANCH   2   9
ATOM      8  C   UNL     1      -4.016  -2.528   1.321  0.00  0.00    +0.029 C 
ATOM      9  C   UNL     1      -4.363  -2.377   2.803  0.00  0.00    +0.091 C 
BRANCH   9  10
ATOM     10  C   UNL     1      -5.524  -3.309   3.153  0.00  0.00    +0.144 C 
BRANCH  10  11
ATOM     11  N   UNL     1      -5.935  -3.079   4.540  0.00  0.00    -0.337 N 
ATOM     12  C   UNL     1      -5.442  -3.713   5.649  0.00  0.00    +0.104 A 
ATOM     13  C   UNL     1      -6.092  -3.201   6.711  0.00  0.00    +0.101 A 
ATOM     14  N   UNL     1      -6.958  -2.280   6.264  0.00  0.00    -0.352 N 
ATOM     15  C   UNL     1      -6.866  -2.198   4.965  0.00  0.00    +0.173 A 
ATOM     16  H   UNL     1      -7.556  -1.755   6.819  0.00  0.00    +0.166 HD
ENDBRANCH  10  11
ENDBRANCH   9  10
ENDBRANCH   2   9
ENDBRANCH   1   5
BRANCH   1  17
ATOM     17  C   UNL     1       0.881  -1.691   5.870  0.00  0.00    -0.016 C 
BRANCH  17  18
ATOM     18  C   UNL     1       0.230  -1.956   7.203  0.00  0.00    -0.006 A 
ATOM     19  C   UNL     1      -0.069  -0.902   8.050  0.00  0.00    +0.126 A 
ATOM     20  C   UNL     1      -0.667  -1.147   9.274  0.00  0.00    +0.038 A 
ATOM     21  C   UNL     1      -0.965  -2.443   9.651  0.00  0.00    +0.004 A 
ATOM     22  C   UNL     1      -0.666  -3.495   8.806  0.00  0.00    +0.020 A 
ATOM     23  C   UNL     1      -0.074  -3.252   7.579  0.00  0.00    +0.045 A 
ATOM     24 CL   UNL     1       0.294  -4.573   6.515  0.00  0.00    -0.083 Cl
ATOM     25  F   UNL     1       0.223   0.364   7.682  0.00  0.00    -0.205 F 
ENDBRANCH  17  18
BRANCH  17  26
ATOM     26  N   UNL     1       1.980  -0.732   6.044  0.00  0.00    +0.385 N 
ATOM     27  C   UNL     1       2.971  -1.259   7.017  0.00  0.00    -0.078 C 
ATOM     28  C   UNL     1       4.261  -0.472   6.672  0.00  0.00    -0.020 C 
ATOM     29  C   UNL     1       4.200  -0.369   5.130  0.00  0.00    -0.020 C 
ATOM     30  C   UNL     1       2.715  -0.562   4.772  0.00  0.00    -0.078 C 
ATOM     31  H   UNL     1       1.621   0.157   6.360  0.00  0.00    -0.081 HD
ENDBRANCH  17  26
ENDBRANCH   1  17
TORSDOF 7
