REMARK  Name = ZINC08965922
REMARK  8 active torsions:
REMARK  status: ('A' for Active; 'I' for Inactive)
REMARK    1  A    between atoms: C_4  and  C_7
REMARK    2  A    between atoms: C_7  and  O_8
REMARK    3  A    between atoms: O_8  and  C_9
REMARK    4  A    between atoms: C_12  and  C_15
REMARK    5  A    between atoms: C_22  and  C_23
REMARK    6  A    between atoms: C_22  and  N_62
REMARK    7  A    between atoms: N_25  and  C_26
REMARK    8  A    between atoms: C_31  and  C_32
REMARK                            x       y       z     vdW  Elec       q    Type
REMARK                         _______ _______ _______ _____ _____    ______ ____
ROOT
ATOM      1  C   UNL     1      -0.124   1.190   0.247  0.00  0.00    +0.246 C 
ATOM      2  O   UNL     1      -0.943   1.761  -0.447  0.00  0.00    -0.270 OA
ATOM      3  N   UNL     1       0.878   1.888   0.818  0.00  0.00    -0.301 N 
ATOM      4  C   UNL     1       1.074   3.314   0.516  0.00  0.00    +0.089 C 
ATOM      5  C   UNL     1       1.171   4.079   1.845  0.00  0.00    -0.059 C 
ATOM      6  C   UNL     1       1.880   2.087   3.032  0.00  0.00    -0.059 C 
ATOM      7  C   UNL     1       1.809   1.241   1.756  0.00  0.00    +0.089 C 
ATOM      8  N   UNL     1       2.243   3.473   2.663  0.00  0.00    +0.387 N 
ATOM      9  H   UNL     1       3.111   3.454   2.114  0.00  0.00    -0.081 HD
ENDROOT
BRANCH   1  13
ATOM     10  C   UNL     1      -0.431  -2.997   0.886  0.00  0.00    +0.121 A 
ATOM     11  C   UNL     1      -1.581  -2.236   0.711  0.00  0.00    +0.046 A 
ATOM     12  C   UNL     1      -1.486  -0.878   0.504  0.00  0.00    +0.016 A 
ATOM     13  C   UNL     1      -0.231  -0.265   0.469  0.00  0.00    +0.037 A 
ATOM     14  C   UNL     1       0.924  -1.034   0.639  0.00  0.00    +0.016 A 
ATOM     15  C   UNL     1       0.820  -2.390   0.852  0.00  0.00    +0.046 A 
BRANCH  10  16
ATOM     16  O   UNL     1      -0.529  -4.335   1.090  0.00  0.00    -0.487 OA
BRANCH  16  17
ATOM     17  C   UNL     1       0.693  -5.056   1.262  0.00  0.00    +0.264 C 
BRANCH  17  21
ATOM     18  C   UNL     1      -0.171  -9.196   1.867  0.00  0.00    +0.000 A 
ATOM     19  C   UNL     1       0.026  -8.710   0.587  0.00  0.00    +0.000 A 
ATOM     20  C   UNL     1       0.305  -7.371   0.392  0.00  0.00    +0.007 A 
ATOM     21  C   UNL     1       0.388  -6.516   1.475  0.00  0.00    -0.010 A 
ATOM     22  C   UNL     1       0.197  -7.003   2.755  0.00  0.00    +0.007 A 
ATOM     23  C   UNL     1      -0.088  -8.341   2.950  0.00  0.00    +0.000 A 
ENDBRANCH  17  21
ENDBRANCH  16  17
ENDBRANCH  10  16
ENDBRANCH   1  13
BRANCH   8  24
ATOM     24  C   UNL     1       2.464   4.278   3.882  0.00  0.00    +0.019 C 
BRANCH  24  25
ATOM     25  C   UNL     1       1.200   4.361   4.699  0.00  0.00    +0.201 C 
ATOM     26  O   UNL     1       0.178   3.856   4.287  0.00  0.00    -0.278 OA
ATOM     27  N   UNL     1       1.206   4.997   5.887  0.00  0.00    -0.287 N 
ATOM     28  H   UNL     1       2.002   5.468   6.181  0.00  0.00    +0.155 HD
BRANCH  27  29
ATOM     29  C   UNL     1       0.065   4.979   6.696  0.00  0.00    +0.045 A 
ATOM     30  C   UNL     1      -0.772   3.871   6.693  0.00  0.00    +0.024 A 
ATOM     31  C   UNL     1      -1.895   3.853   7.496  0.00  0.00    +0.002 A 
ATOM     32  C   UNL     1      -2.191   4.941   8.297  0.00  0.00    +0.001 A 
ATOM     33  C   UNL     1      -1.362   6.048   8.299  0.00  0.00    +0.014 A 
ATOM     34  C   UNL     1      -0.235   6.070   7.501  0.00  0.00    +0.076 A 
BRANCH  34  35
ATOM     35  C   UNL     1       0.668   7.276   7.503  0.00  0.00    +0.419 C 
ATOM     36  F   UNL     1       0.161   8.236   8.386  0.00  0.00    -0.166 F 
ATOM     37  F   UNL     1       1.951   6.898   7.913  0.00  0.00    -0.166 F 
ATOM     38  F   UNL     1       0.729   7.815   6.214  0.00  0.00    -0.166 F 
ENDBRANCH  34  35
ENDBRANCH  27  29
ENDBRANCH  24  25
ENDBRANCH   8  24
TORSDOF 8
