REMARK  Name = ZINC12734548
REMARK  12 active torsions:
REMARK  status: ('A' for Active; 'I' for Inactive)
REMARK    1  A    between atoms: C_1  and  C_2
REMARK    2  A    between atoms: C_2  and  C_3
REMARK    3  A    between atoms: C_2  and  C_4
REMARK    4  A    between atoms: C_4  and  C_6
REMARK    5  A    between atoms: C_4  and  N_18
REMARK    6  A    between atoms: N_8  and  C_9
REMARK    7  A    between atoms: C_11  and  C_16
REMARK    8  A    between atoms: C_11  and  C_17
REMARK    9  A    between atoms: C_12  and  C_14
REMARK   10  A    between atoms: C_12  and  C_15
REMARK   11  A    between atoms: N_18  and  S_19
REMARK   12  A    between atoms: S_19  and  C_22
REMARK                            x       y       z     vdW  Elec       q    Type
REMARK                         _______ _______ _______ _____ _____    ______ ____
ROOT
ATOM      1  C   UNL     1       0.058   7.356  -2.360  0.00  0.00    +0.165 C 
ENDROOT
BRANCH   1   2
ATOM      2  C   UNL     1       0.028   5.887  -2.027  0.00  0.00    +0.232 C 
ATOM      3  O   UNL     1      -0.156   5.069  -2.904  0.00  0.00    -0.274 OA
ATOM      4  N   UNL     1       0.204   5.481  -0.753  0.00  0.00    -0.311 N 
ATOM      5  H   UNL     1       0.429   6.127  -0.066  0.00  0.00    +0.149 HD
BRANCH   4   6
ATOM      6  C   UNL     1       0.057   4.062  -0.408  0.00  0.00    +0.070 C 
ATOM      7  C   UNL     1       0.873   3.762   0.849  0.00  0.00    +0.009 C 
ATOM      8  C   UNL     1       0.722   2.295   1.243  0.00  0.00    -0.072 C 
ATOM      9  C   UNL     1      -1.594   2.299   0.271  0.00  0.00    -0.072 C 
ATOM     10  C   UNL     1      -1.413   3.765  -0.114  0.00  0.00    +0.009 C 
ATOM     11  C   UNL     1      -1.498   1.424  -0.984  0.00  0.00    -0.010 C 
ATOM     12  C   UNL     1      -3.025   2.139   0.831  0.00  0.00    -0.010 C 
ATOM     13  C   UNL     1       1.325   2.128   2.656  0.00  0.00    -0.010 C 
ATOM     14  C   UNL     1       1.547   1.421   0.292  0.00  0.00    -0.010 C 
ATOM     15  N   UNL     1      -0.683   1.816   1.343  0.00  0.00    +0.386 N 
ATOM     16  H   UNL     1      -1.061   2.126   2.246  0.00  0.00    -0.084 HD
ATOM     17  H   UNL     1      -0.672   0.789   1.312  0.00  0.00    -0.084 HD
ENDBRANCH   4   6
ENDBRANCH   1   2
BRANCH   1  19
ATOM     18  C   UNL     1       2.324   7.139  -3.390  0.00  0.00    +0.009 C 
ATOM     19  C   UNL     1       1.503   7.859  -2.319  0.00  0.00    +0.010 C 
ATOM     20  C   UNL     1       1.526   9.365  -2.585  0.00  0.00    +0.009 C 
ENDBRANCH   1  19
BRANCH   1  21
ATOM     21  N   UNL     1      -0.493   7.564  -3.702  0.00  0.00    -0.178 NA
ATOM     22  H   UNL     1       0.082   7.487  -4.479  0.00  0.00    +0.149 HD
BRANCH  21  23
ATOM     23  S   UNL     1      -2.097   7.929  -3.891  0.00  0.00    +0.059 S 
ATOM     24  O   UNL     1      -2.304   8.142  -5.281  0.00  0.00    -0.153 OA
ATOM     25  O   UNL     1      -2.825   6.957  -3.152  0.00  0.00    -0.153 OA
BRANCH  23  26
ATOM     26  C   UNL     1      -2.375   9.477  -3.097  0.00  0.00    +0.106 A 
ATOM     27  C   UNL     1      -2.669   9.508  -1.735  0.00  0.00    +0.029 A 
ATOM     28  C   UNL     1      -2.884  10.687  -1.091  0.00  0.00    +0.010 A 
ATOM     29  C   UNL     1      -2.821  11.893  -1.809  0.00  0.00    -0.018 A 
ATOM     30  C   UNL     1      -3.044  13.130  -1.179  0.00  0.00    +0.008 A 
ATOM     31  C   UNL     1      -2.975  14.278  -1.907  0.00  0.00    +0.001 A 
ATOM     32  C   UNL     1      -2.687  14.247  -3.270  0.00  0.00    +0.001 A 
ATOM     33  C   UNL     1      -2.466  13.069  -3.913  0.00  0.00    +0.008 A 
ATOM     34  C   UNL     1      -2.528  11.862  -3.195  0.00  0.00    -0.016 A 
ATOM     35  C   UNL     1      -2.306  10.626  -3.825  0.00  0.00    +0.037 A 
ENDBRANCH  23  26
ENDBRANCH  21  23
ENDBRANCH   1  21
TORSDOF 6
