REMARK  Name = ZINC02697114
REMARK  5 active torsions:
REMARK  status: ('A' for Active; 'I' for Inactive)
REMARK    1  A    between atoms: C_1  and  C_2
REMARK    2  A    between atoms: C_5  and  N_8
REMARK    3  A    between atoms: N_18  and  C_21
REMARK    4  A    between atoms: C_24  and  O_27
REMARK    5  A    between atoms: O_27  and  C_28
REMARK                            x       y       z     vdW  Elec       q    Type
REMARK                         _______ _______ _______ _____ _____    ______ ____
ROOT
ATOM      1  N   UNL     1       1.363   1.609  -0.002  0.00  0.00    -0.249 N 
ATOM      2  C   UNL     1      -0.013   1.086   0.008  0.00  0.00    +0.126 C 
ATOM      3  C   UNL     1      -0.738   1.599   1.271  0.00  0.00    +0.190 C 
ATOM      4  S   UNL     1      -1.553   3.120   0.644  0.00  0.00    -0.027 S 
ATOM      5  O   UNL     1      -0.615   4.187   0.636  0.00  0.00    -0.174 OA
ATOM      6  O   UNL     1      -2.806   3.287   1.294  0.00  0.00    -0.174 OA
ATOM      7  C   UNL     1      -1.834   2.540  -1.085  0.00  0.00    +0.190 C 
ATOM      8  C   UNL     1      -0.620   1.610  -1.296  0.00  0.00    +0.126 C 
ATOM      9  N   UNL     1       0.472   2.379  -1.915  0.00  0.00    -0.249 N 
ATOM     10  C   UNL     1       1.549   2.325  -1.120  0.00  0.00    +0.314 C 
ATOM     11  O   UNL     1       2.600   2.875  -1.388  0.00  0.00    -0.252 OA
ENDROOT
BRANCH   1  16
ATOM     12  C   UNL     1       5.249   0.738   4.038  0.00  0.00    +0.044 C 
ATOM     13  C   UNL     1       4.217   0.969   2.964  0.00  0.00    -0.050 A 
ATOM     14  C   UNL     1       4.534   1.730   1.854  0.00  0.00    +0.005 A 
ATOM     15  C   UNL     1       3.590   1.944   0.869  0.00  0.00    +0.024 A 
ATOM     16  C   UNL     1       2.321   1.394   0.994  0.00  0.00    +0.038 A 
ATOM     17  C   UNL     1       2.004   0.635   2.113  0.00  0.00    +0.024 A 
ATOM     18  C   UNL     1       2.954   0.420   3.092  0.00  0.00    +0.005 A 
ENDBRANCH   1  16
BRANCH   9  19
ATOM     19  C   UNL     1       0.397   3.058  -3.139  0.00  0.00    +0.038 A 
ATOM     20  C   UNL     1      -0.779   3.034  -3.876  0.00  0.00    +0.027 A 
ATOM     21  C   UNL     1      -0.854   3.707  -5.079  0.00  0.00    +0.047 A 
ATOM     22  C   UNL     1       0.250   4.399  -5.556  0.00  0.00    +0.120 A 
ATOM     23  C   UNL     1       1.427   4.419  -4.823  0.00  0.00    +0.047 A 
ATOM     24  C   UNL     1       1.501   3.750  -3.617  0.00  0.00    +0.027 A 
BRANCH  22  25
ATOM     25  O   UNL     1       0.177   5.058  -6.744  0.00  0.00    -0.495 OA
ATOM     26  C   UNL     1      -1.066   4.995  -7.446  0.00  0.00    +0.277 C 
ENDBRANCH  22  25
ENDBRANCH   9  19
TORSDOF 3
