REMARK  Name = ZINC40729355
REMARK  7 active torsions:
REMARK  status: ('A' for Active; 'I' for Inactive)
REMARK    1  A    between atoms: C_1  and  C_2
REMARK    2  A    between atoms: C_3  and  C_23
REMARK    3  A    between atoms: N_5  and  C_8
REMARK    4  A    between atoms: C_6  and  C_7
REMARK    5  A    between atoms: C_14  and  O_21
REMARK    6  A    between atoms: C_18  and  N_20
REMARK    7  A    between atoms: O_21  and  C_22
REMARK                            x       y       z     vdW  Elec       q    Type
REMARK                         _______ _______ _______ _____ _____    ______ ____
ROOT
ATOM      1  C   UNL     1       0.054  -3.280   1.509  0.00  0.00    +0.098 C 
ATOM      2  C   UNL     1       1.308  -4.107   1.205  0.00  0.00    +0.030 C 
ATOM      3  C   UNL     1       1.427  -5.207   2.258  0.00  0.00    +0.037 C 
ATOM      4  C   UNL     1       0.132  -5.968   2.377  0.00  0.00    -0.042 A 
ATOM      5  C   UNL     1       0.169  -7.213   2.990  0.00  0.00    +0.049 A 
ATOM      6  C   UNL     1      -0.987  -7.959   3.135  0.00  0.00    +0.120 A 
ATOM      7  C   UNL     1      -2.192  -7.457   2.665  0.00  0.00    +0.046 A 
ATOM      8  C   UNL     1      -2.226  -6.221   2.055  0.00  0.00    +0.006 A 
ATOM      9  C   UNL     1      -1.064  -5.474   1.906  0.00  0.00    -0.056 A 
ATOM     10  C   UNL     1      -1.174  -4.139   1.216  0.00  0.00    -0.019 C 
ENDROOT
BRANCH   1  15
ATOM     11  C   UNL     1      -0.018   1.503   0.010  0.00  0.00    +0.047 C 
ATOM     12  C   UNL     1       0.002  -0.004   0.002  0.00  0.00    -0.007 A 
ATOM     13  C   UNL     1       0.009  -0.821  -1.133  0.00  0.00    +0.063 A 
ATOM     14  N   UNL     1       0.028  -2.068  -0.740  0.00  0.00    -0.176 NA
ATOM     15  N   UNL     1       0.034  -2.085   0.661  0.00  0.00    -0.266 N 
ATOM     16  C   UNL     1       0.023  -0.806   1.092  0.00  0.00    +0.040 A 
ATOM     17  C   UNL     1       0.030  -0.352   2.529  0.00  0.00    +0.065 C 
ATOM     18  C   UNL     1      -0.004  -0.346  -2.564  0.00  0.00    +0.068 C 
ENDBRANCH   1  15
BRANCH  10  19
ATOM     19  N   UNL     1      -2.377  -3.444   1.694  0.00  0.00    +0.384 N 
ATOM     20  H   UNL     1      -2.463  -2.557   1.219  0.00  0.00    -0.089 HD
ATOM     21  H   UNL     1      -3.190  -4.009   1.502  0.00  0.00    -0.089 HD
ATOM     22  H   UNL     1      -2.303  -3.288   2.688  0.00  0.00    -0.089 HD
ENDBRANCH  10  19
BRANCH   6  23
ATOM     23  O   UNL     1      -0.943  -9.178   3.735  0.00  0.00    -0.495 OA
ATOM     24  C   UNL     1      -2.176  -9.890   3.849  0.00  0.00    +0.277 C 
ENDBRANCH   6  23
TORSDOF 3
