REMARK  Name = ZINC59023989
REMARK  11 active torsions:
REMARK  status: ('A' for Active; 'I' for Inactive)
REMARK    1  A    between atoms: C_1  and  C_2
REMARK    2  A    between atoms: C_2  and  C_3
REMARK    3  A    between atoms: C_3  and  S_4
REMARK    4  A    between atoms: S_4  and  C_5
REMARK    5  A    between atoms: C_10  and  N_14
REMARK    6  A    between atoms: C_15  and  C_17
REMARK    7  A    between atoms: C_17  and  S_18
REMARK    8  A    between atoms: S_18  and  C_19
REMARK    9  A    between atoms: N_24  and  N_25
REMARK   10  A    between atoms: C_26  and  C_27
REMARK   11  A    between atoms: C_26  and  C_28
REMARK                            x       y       z     vdW  Elec       q    Type
REMARK                         _______ _______ _______ _____ _____    ______ ____
ROOT
ATOM      1  C   UNL     1       2.528  -3.704 -12.602  0.00  0.00    +0.173 C 
ENDROOT
BRANCH   1   3
ATOM      2  N   UNL     1       0.603  -3.655 -11.049  0.00  0.00    -0.285 N 
ATOM      3  C   UNL     1       1.539  -2.969 -11.735  0.00  0.00    +0.227 C 
ATOM      4  O   UNL     1       1.585  -1.759 -11.654  0.00  0.00    -0.275 OA
ATOM      5  H   UNL     1       0.603  -4.625 -11.067  0.00  0.00    +0.155 HD
BRANCH   2  11
ATOM      6  C   UNL     1      -2.792   0.286  -7.524  0.00  0.00    +0.136 A 
ATOM      7  N   UNL     1      -3.176  -0.838  -8.086  0.00  0.00    -0.233 NA
ATOM      8  C   UNL     1      -2.341  -1.601  -8.827  0.00  0.00    +0.080 A 
ATOM      9  C   UNL     1      -2.626  -2.822  -9.481  0.00  0.00    +0.031 A 
ATOM     10  C   UNL     1      -1.660  -3.477 -10.198  0.00  0.00    +0.025 A 
ATOM     11  C   UNL     1      -0.369  -2.967 -10.310  0.00  0.00    +0.035 A 
ATOM     12  C   UNL     1      -0.056  -1.770  -9.680  0.00  0.00    +0.040 A 
ATOM     13  C   UNL     1      -1.022  -1.112  -8.961  0.00  0.00    +0.042 A 
ATOM     14  S   UNL     1      -1.080   0.397  -8.025  0.00  0.00    -0.061 S 
BRANCH   6  15
ATOM     15  S   UNL     1      -3.729   1.402  -6.534  0.00  0.00    -0.099 S 
BRANCH  15  16
ATOM     16  C   UNL     1      -5.373   0.641  -6.450  0.00  0.00    +0.076 C 
BRANCH  16  18
ATOM     17  C   UNL     1      -7.686   0.878  -5.537  0.00  0.00    +0.004 C 
ATOM     18  C   UNL     1      -6.300   1.520  -5.608  0.00  0.00    +0.008 C 
ENDBRANCH  16  18
ENDBRANCH  15  16
ENDBRANCH   6  15
ENDBRANCH   2  11
ENDBRANCH   1   3
BRANCH   1  19
ATOM     19  S   UNL     1       3.647  -2.512 -13.387  0.00  0.00    -0.075 S 
BRANCH  19  20
ATOM     20  C   UNL     1       4.728  -3.514 -14.353  0.00  0.00    +0.211 A 
ATOM     21  N   UNL     1       5.733  -3.064 -15.111  0.00  0.00    -0.186 NA
ATOM     22  C   UNL     1       6.335  -4.079 -15.696  0.00  0.00    +0.232 A 
ATOM     23  N   UNL     1       5.710  -5.212 -15.312  0.00  0.00    -0.245 N 
ATOM     24  N   UNL     1       4.679  -4.822 -14.441  0.00  0.00    -0.144 NA
ATOM     25  N   UNL     1       7.417  -3.998 -16.554  0.00  0.00    -0.205 N 
ATOM     26  H   UNL     1       7.793  -4.806 -16.938  0.00  0.00    +0.177 HD
ATOM     27  H   UNL     1       5.931  -6.117 -15.581  0.00  0.00    +0.192 HD
BRANCH  25  28
ATOM     28  N   UNL     1       7.970  -2.750 -16.869  0.00  0.00    -0.184 NA
ATOM     29  C   UNL     1       8.918  -2.664 -17.752  0.00  0.00    +0.063 C 
ATOM     30  C   UNL     1       9.636  -1.356 -17.961  0.00  0.00    +0.068 C 
BRANCH  29  31
ATOM     31  C   UNL     1       9.291  -3.845 -18.550  0.00  0.00    +0.000 A 
ATOM     32  C   UNL     1       8.328  -4.785 -18.940  0.00  0.00    +0.029 A 
ATOM     33  C   UNL     1       8.722  -5.875 -19.686  0.00  0.00    +0.111 A 
ATOM     34  N   UNL     1       9.985  -6.040 -20.032  0.00  0.00    -0.263 NA
ATOM     35  C   UNL     1      10.924  -5.179 -19.686  0.00  0.00    +0.111 A 
ATOM     36  C   UNL     1      10.619  -4.058 -18.944  0.00  0.00    +0.029 A 
ENDBRANCH  29  31
ENDBRANCH  25  28
ENDBRANCH  19  20
ENDBRANCH   1  19
TORSDOF 9
