REMARK  Name = ZINC19890015
REMARK  7 active torsions:
REMARK  status: ('A' for Active; 'I' for Inactive)
REMARK    1  A    between atoms: C_1  and  C_2
REMARK    2  A    between atoms: C_9  and  C_11
REMARK    3  A    between atoms: C_14  and  N_17
REMARK    4  A    between atoms: C_21  and  N_25
REMARK    5  A    between atoms: N_25  and  C_26
REMARK    6  A    between atoms: C_26  and  C_28
REMARK    7  A    between atoms: C_26  and  C_29
REMARK                            x       y       z     vdW  Elec       q    Type
REMARK                         _______ _______ _______ _____ _____    ______ ____
ROOT
ATOM      1  N   UNL     1      -1.256  -0.802   4.933  0.00  0.00    -0.212 N 
ATOM      2  C   UNL     1       0.008  -1.244   4.955  0.00  0.00    +0.225 C 
ATOM      3  O   UNL     1       0.549  -1.778   5.900  0.00  0.00    -0.275 OA
ATOM      4  C   UNL     1       0.654  -0.972   3.614  0.00  0.00    +0.090 C 
ATOM      5  C   UNL     1      -0.467  -0.290   2.804  0.00  0.00    +0.026 C 
ATOM      6  C   UNL     1      -1.629  -0.248   3.773  0.00  0.00    +0.213 C 
ATOM      7  O   UNL     1      -2.724   0.215   3.536  0.00  0.00    -0.277 OA
ENDROOT
BRANCH   1  11
ATOM      8  C   UNL     1      -3.819  -1.127   8.207  0.00  0.00    +0.007 A 
ATOM      9  C   UNL     1      -3.386   0.130   7.779  0.00  0.00    +0.012 A 
ATOM     10  C   UNL     1      -2.540   0.233   6.697  0.00  0.00    +0.024 A 
ATOM     11  C   UNL     1      -2.116  -0.911   6.032  0.00  0.00    +0.044 A 
ATOM     12  C   UNL     1      -2.549  -2.163   6.452  0.00  0.00    +0.024 A 
ATOM     13  C   UNL     1      -3.392  -2.275   7.537  0.00  0.00    +0.012 A 
BRANCH   8  22
ATOM     14  C   UNL     1      -8.653  -1.814  14.364  0.00  0.00    +0.044 C 
ATOM     15  C   UNL     1      -7.746  -1.380  13.241  0.00  0.00    -0.049 A 
ATOM     16  C   UNL     1      -7.479  -0.033  13.036  0.00  0.00    +0.005 A 
ATOM     17  C   UNL     1      -6.666   0.389  12.031  0.00  0.00    +0.029 A 
ATOM     18  C   UNL     1      -6.058  -0.538  11.152  0.00  0.00    +0.079 A 
ATOM     19  C   UNL     1      -6.349  -1.903  11.387  0.00  0.00    +0.040 A 
ATOM     20  C   UNL     1      -7.172  -2.319  12.405  0.00  0.00    +0.020 A 
ATOM     21  S   UNL     1      -5.426  -2.713  10.103  0.00  0.00    -0.067 S 
ATOM     22  C   UNL     1      -4.728  -1.242   9.367  0.00  0.00    +0.109 A 
ATOM     23  N   UNL     1      -5.234  -0.286  10.117  0.00  0.00    -0.239 NA
ENDBRANCH   8  22
ENDBRANCH   1  11
BRANCH   5  24
ATOM     24  N   UNL     1      -0.070   1.069   2.414  0.00  0.00    +0.389 N 
ATOM     25  H   UNL     1      -0.298   1.767   3.234  0.00  0.00    -0.084 HD
ATOM     26  H   UNL     1       1.010   1.090   2.205  0.00  0.00    -0.084 HD
BRANCH  24  27
ATOM     27  C   UNL     1      -0.791   1.504   1.211  0.00  0.00    -0.068 C 
ATOM     28  C   UNL     1      -0.055   1.003  -0.034  0.00  0.00    -0.013 C 
BRANCH  27  29
ATOM     29  C   UNL     1      -0.860   3.032   1.181  0.00  0.00    -0.041 C 
ATOM     30  C   UNL     1       0.558   3.606   1.161  0.00  0.00    +0.009 C 
ATOM     31  C   UNL     1       0.490   5.134   1.132  0.00  0.00    -0.010 C 
ATOM     32  C   UNL     1      -0.262   5.587  -0.121  0.00  0.00    +0.007 C 
ATOM     33  C   UNL     1      -1.680   5.013  -0.101  0.00  0.00    -0.010 C 
ATOM     34  C   UNL     1      -1.611   3.485  -0.072  0.00  0.00    +0.009 C 
ATOM     35  C   UNL     1      -2.415   5.515   1.143  0.00  0.00    +0.007 C 
ATOM     36  C   UNL     1      -1.664   5.062   2.397  0.00  0.00    -0.010 C 
ATOM     37  C   UNL     1      -0.246   5.636   2.377  0.00  0.00    +0.007 C 
ATOM     38  C   UNL     1      -1.595   3.534   2.426  0.00  0.00    +0.009 C 
ENDBRANCH  27  29
ENDBRANCH  24  27
ENDBRANCH   5  24
TORSDOF 5
