REMARK  Name = ZINC08781484
REMARK  7 active torsions:
REMARK  status: ('A' for Active; 'I' for Inactive)
REMARK    1  A    between atoms: C_4  and  C_7
REMARK    2  A    between atoms: N_9  and  N_10
REMARK    3  A    between atoms: C_11  and  C_13
REMARK    4  A    between atoms: C_16  and  C_19
REMARK    5  A    between atoms: C_19  and  N_20
REMARK    6  A    between atoms: N_20  and  C_21
REMARK    7  A    between atoms: C_24  and  C_26
REMARK                            x       y       z     vdW  Elec       q    Type
REMARK                         _______ _______ _______ _____ _____    ______ ____
ROOT
ATOM      1  C   UNL     1       3.470   7.809   0.012  0.00  0.00    +0.146 C 
ATOM      2  N   UNL     1       2.418   8.556   0.027  0.00  0.00    -0.084 NA
ATOM      3  O   UNL     1       2.724   9.937   0.040  0.00  0.00    -0.388 OA
ATOM      4  C   UNL     1       4.096  10.083  -0.381  0.00  0.00    +0.227 C 
ATOM      5  C   UNL     1       4.692   8.708   0.012  0.00  0.00    +0.113 C 
ENDROOT
BRANCH   1   7
ATOM      6  N   UNL     1       2.321   5.650   0.011  0.00  0.00    -0.229 N 
ATOM      7  C   UNL     1       3.483   6.333   0.004  0.00  0.00    +0.278 C 
ATOM      8  O   UNL     1       4.540   5.735  -0.010  0.00  0.00    -0.267 OA
ATOM      9  H   UNL     1       1.477   6.127   0.022  0.00  0.00    +0.173 HD
BRANCH   6  12
ATOM     10  C   UNL     1       1.172   3.565   0.011  0.00  0.00    +0.260 C 
ATOM     11  O   UNL     1       0.114   4.164   0.024  0.00  0.00    -0.269 OA
ATOM     12  N   UNL     1       2.333   4.249   0.003  0.00  0.00    -0.230 N 
ATOM     13  H   UNL     1       3.177   3.771  -0.008  0.00  0.00    +0.173 HD
BRANCH  10  17
ATOM     14  C   UNL     1       1.208  -0.682  -0.013  0.00  0.00    +0.000 A 
ATOM     15  C   UNL     1       0.002  -0.004   0.002  0.00  0.00    +0.001 A 
ATOM     16  C   UNL     1      -0.017   1.375   0.010  0.00  0.00    +0.013 A 
ATOM     17  C   UNL     1       1.184   2.087   0.002  0.00  0.00    +0.038 A 
ATOM     18  C   UNL     1       2.397   1.396  -0.013  0.00  0.00    +0.013 A 
ATOM     19  C   UNL     1       2.402   0.016  -0.021  0.00  0.00    +0.001 A 
ENDBRANCH  10  17
ENDBRANCH   6  12
ENDBRANCH   1   7
BRANCH   4  20
ATOM     20  C   UNL     1       4.184  10.313  -1.891  0.00  0.00    +0.150 C 
BRANCH  20  21
ATOM     21  N   UNL     1       3.586  11.609  -2.223  0.00  0.00    -0.326 N 
ATOM     22  H   UNL     1       3.215  12.166  -1.521  0.00  0.00    +0.148 HD
BRANCH  21  23
ATOM     23  C   UNL     1       3.549  12.039  -3.544  0.00  0.00    +0.115 A 
ATOM     24  C   UNL     1       2.974  13.269  -3.854  0.00  0.00    +0.079 A 
ATOM     25  C   UNL     1       2.950  13.687  -5.173  0.00  0.00    +0.037 A 
ATOM     26  C   UNL     1       3.494  12.854  -6.142  0.00  0.00    +0.072 A 
ATOM     27  C   UNL     1       4.042  11.645  -5.764  0.00  0.00    +0.096 A 
ATOM     28 CL   UNL     1       2.303  14.267  -2.602  0.00  0.00    -0.080 Cl
ATOM     29  N   UNL     1       4.089  11.204  -4.479  0.00  0.00    -0.348 N 
ATOM     30  H   UNL     1       4.504  10.300  -4.227  0.00  0.00    +0.167 HD
BRANCH  26  31
ATOM     31  C   UNL     1       3.483  13.265  -7.592  0.00  0.00    +0.419 C 
ATOM     32  F   UNL     1       4.083  12.265  -8.365  0.00  0.00    -0.166 F 
ATOM     33  F   UNL     1       2.163  13.452  -8.014  0.00  0.00    -0.166 F 
ATOM     34  F   UNL     1       4.195  14.460  -7.743  0.00  0.00    -0.166 F 
ENDBRANCH  26  31
ENDBRANCH  21  23
ENDBRANCH  20  21
ENDBRANCH   4  20
TORSDOF 7
