REMARK  Name = ZINC09541815
REMARK  11 active torsions:
REMARK  status: ('A' for Active; 'I' for Inactive)
REMARK    1  A    between atoms: C_1  and  C_2
REMARK    2  A    between atoms: C_2  and  O_3
REMARK    3  A    between atoms: O_3  and  C_4
REMARK    4  A    between atoms: C_8  and  C_11
REMARK    5  A    between atoms: C_9  and  O_10
REMARK    6  A    between atoms: C_14  and  C_26
REMARK    7  A    between atoms: C_16  and  C_18
REMARK    8  A    between atoms: C_23  and  O_24
REMARK    9  A    between atoms: O_24  and  C_25
REMARK   10  A    between atoms: C_30  and  O_32
REMARK   11  A    between atoms: O_32  and  C_33
REMARK                            x       y       z     vdW  Elec       q    Type
REMARK                         _______ _______ _______ _____ _____    ______ ____
ROOT
ATOM      1  C   UNL     1      -2.424   4.198   5.110  0.00  0.00    -0.028 C 
ATOM      2  C   UNL     1      -1.774   5.265   4.223  0.00  0.00    +0.044 C 
ATOM      3  C   UNL     1      -0.970   4.596   3.143  0.00  0.00    +0.040 C 
ATOM      4  N   UNL     1      -1.098   3.359   2.840  0.00  0.00    -0.298 NA
ATOM      5  C   UNL     1      -2.022   2.447   3.502  0.00  0.00    +0.084 C 
ATOM      6  N   UNL     1      -3.056   3.192   4.236  0.00  0.00    +0.401 N 
ATOM      7  H   UNL     1      -3.676   3.663   3.566  0.00  0.00    -0.081 HD
ATOM      8  H   UNL     1      -3.604   2.539   4.808  0.00  0.00    -0.081 HD
ENDROOT
BRANCH   1  13
ATOM      9  C   UNL     1      -4.067   6.098   7.942  0.00  0.00    +0.162 A 
ATOM     10  C   UNL     1      -5.405   6.005   7.591  0.00  0.00    +0.049 A 
ATOM     11  C   UNL     1      -5.772   5.330   6.442  0.00  0.00    +0.004 A 
ATOM     12  C   UNL     1      -4.808   4.751   5.638  0.00  0.00    +0.006 A 
ATOM     13  C   UNL     1      -3.472   4.835   5.986  0.00  0.00    -0.016 A 
ATOM     14  C   UNL     1      -3.097   5.510   7.136  0.00  0.00    +0.160 A 
BRANCH  14  15
ATOM     15  O   UNL     1      -1.783   5.599   7.477  0.00  0.00    -0.503 OA
ATOM     16  H   UNL     1      -1.334   6.374   7.113  0.00  0.00    +0.292 HD
ENDBRANCH  14  15
BRANCH   9  17
ATOM     17  O   UNL     1      -3.704   6.761   9.072  0.00  0.00    -0.489 OA
BRANCH  17  19
ATOM     18  C   UNL     1      -4.156   8.039  11.074  0.00  0.00    +0.048 C 
ATOM     19  C   UNL     1      -4.754   7.339   9.851  0.00  0.00    +0.226 C 
ENDBRANCH  17  19
ENDBRANCH   9  17
ENDBRANCH   1  13
BRANCH   5  20
ATOM     20  C   UNL     1      -2.684   1.574   2.467  0.00  0.00    +0.001 A 
ATOM     21  C   UNL     1      -3.999   1.183   2.632  0.00  0.00    +0.007 A 
ATOM     22  C   UNL     1      -4.608   0.382   1.683  0.00  0.00    +0.000 A 
ATOM     23  C   UNL     1      -3.902  -0.029   0.567  0.00  0.00    +0.004 A 
ATOM     24  C   UNL     1      -2.589   0.364   0.395  0.00  0.00    +0.046 A 
ATOM     25  C   UNL     1      -1.975   1.163   1.348  0.00  0.00    +0.123 A 
BRANCH  25  26
ATOM     26  O   UNL     1      -0.682   1.547   1.184  0.00  0.00    -0.495 OA
ATOM     27  C   UNL     1      -0.013   1.086   0.008  0.00  0.00    +0.277 C 
ENDBRANCH  25  26
ENDBRANCH   5  20
BRANCH   3  28
ATOM     28  C   UNL     1       0.014   5.404   2.396  0.00  0.00    -0.001 A 
ATOM     29  C   UNL     1       0.179   6.759   2.694  0.00  0.00    +0.010 A 
ATOM     30  C   UNL     1       1.103   7.510   1.998  0.00  0.00    +0.004 A 
ATOM     31  C   UNL     1       1.861   6.929   0.998  0.00  0.00    +0.045 A 
ATOM     32  C   UNL     1       1.700   5.585   0.690  0.00  0.00    +0.121 A 
ATOM     33  C   UNL     1       0.779   4.820   1.386  0.00  0.00    +0.055 A 
BRANCH  32  34
ATOM     34  O   UNL     1       2.447   5.019  -0.294  0.00  0.00    -0.495 OA
ATOM     35  C   UNL     1       3.377   5.866  -0.971  0.00  0.00    +0.277 C 
ENDBRANCH  32  34
ENDBRANCH   3  28
TORSDOF 8
