REMARK  Name = ZINC05222460
REMARK  8 active torsions:
REMARK  status: ('A' for Active; 'I' for Inactive)
REMARK    1  A    between atoms: C_1  and  C_2
REMARK    2  A    between atoms: C_2  and  C_3
REMARK    3  A    between atoms: C_2  and  N_49
REMARK    4  A    between atoms: C_9  and  N_14
REMARK    5  A    between atoms: C_10  and  C_11
REMARK    6  A    between atoms: C_15  and  C_17
REMARK    7  A    between atoms: C_22  and  S_23
REMARK    8  A    between atoms: S_23  and  C_24
REMARK                            x       y       z     vdW  Elec       q    Type
REMARK                         _______ _______ _______ _____ _____    ______ ____
ROOT
ATOM      1  C   UNL     1       7.044   0.002   0.380  0.00  0.00    -0.073 C 
ATOM      2  C   UNL     1       6.216   1.218  -0.046  0.00  0.00    +0.018 C 
ATOM      3  C   UNL     1       4.745   0.818  -0.038  0.00  0.00    -0.027 A 
ATOM      4  C   UNL     1       4.398  -0.489  -0.042  0.00  0.00    -0.021 A 
ATOM      5  S   UNL     1       2.629  -0.486  -0.018  0.00  0.00    -0.079 S 
ATOM      6  C   UNL     1       2.353   1.225  -0.014  0.00  0.00    +0.085 A 
ATOM      7  C   UNL     1       3.637   1.754  -0.023  0.00  0.00    +0.068 A 
ATOM      8  C   UNL     1       5.333  -1.657  -0.058  0.00  0.00    -0.035 C 
ATOM      9  N   UNL     1       6.673  -1.159  -0.454  0.00  0.00    +0.384 N 
ATOM     10  H   UNL     1       6.644  -0.868  -1.438  0.00  0.00    -0.081 HD
ENDROOT
BRANCH   7  11
ATOM     11  C   UNL     1       3.864   3.203  -0.018  0.00  0.00    +0.244 C 
ATOM     12  O   UNL     1       3.968   3.799   1.038  0.00  0.00    -0.270 OA
ATOM     13  N   UNL     1       3.958   3.874  -1.183  0.00  0.00    -0.325 N 
ATOM     14  H   UNL     1       3.875   3.399  -2.025  0.00  0.00    +0.145 HD
ATOM     15  H   UNL     1       4.108   4.832  -1.180  0.00  0.00    +0.145 HD
ENDBRANCH   7  11
BRANCH   6  16
ATOM     16  N   UNL     1       1.143   1.902   0.001  0.00  0.00    -0.275 N 
ATOM     17  C   UNL     1      -0.014   1.212   0.009  0.00  0.00    +0.250 C 
ATOM     18  O   UNL     1       0.002  -0.004   0.002  0.00  0.00    -0.270 OA
ATOM     19  H   UNL     1       1.130   2.872   0.007  0.00  0.00    +0.156 HD
BRANCH  17  20
ATOM     20  C   UNL     1      -1.300   1.931   0.019  0.00  0.00    +0.050 A 
ATOM     21  C   UNL     1      -1.324   3.329   0.032  0.00  0.00    +0.014 A 
ATOM     22  C   UNL     1      -2.530   3.995   0.037  0.00  0.00    +0.001 A 
ATOM     23  C   UNL     1      -3.722   3.287   0.039  0.00  0.00    +0.001 A 
ATOM     24  C   UNL     1      -3.716   1.908   0.030  0.00  0.00    +0.015 A 
ATOM     25  C   UNL     1      -2.510   1.217   0.021  0.00  0.00    +0.020 A 
BRANCH  25  26
ATOM     26  S   UNL     1      -2.498  -0.545   0.011  0.00  0.00    -0.128 S 
ATOM     27  C   UNL     1      -4.255  -0.995   0.017  0.00  0.00    +0.090 C 
ENDBRANCH  25  26
ENDBRANCH  17  20
ENDBRANCH   6  16
BRANCH   9  29
ATOM     28  C   UNL     1       7.736  -2.707   1.153  0.00  0.00    -0.014 C 
ATOM     29  C   UNL     1       7.677  -2.234  -0.301  0.00  0.00    -0.074 C 
ATOM     30  C   UNL     1       7.293  -3.407  -1.204  0.00  0.00    -0.014 C 
ENDBRANCH   9  29
TORSDOF 5
