REMARK  Name = ZINC13816122
REMARK  9 active torsions:
REMARK  status: ('A' for Active; 'I' for Inactive)
REMARK    1  A    between atoms: C_5  and  C_7
REMARK    2  A    between atoms: C_7  and  C_9
REMARK    3  A    between atoms: C_7  and  C_23
REMARK    4  A    between atoms: C_9  and  C_10
REMARK    5  A    between atoms: C_10  and  N_11
REMARK    6  A    between atoms: N_13  and  C_14
REMARK    7  A    between atoms: C_14  and  C_15
REMARK    8  A    between atoms: C_15  and  C_16
REMARK    9  A    between atoms: C_16  and  C_17
REMARK                            x       y       z     vdW  Elec       q    Type
REMARK                         _______ _______ _______ _____ _____    ______ ____
ROOT
ATOM      1  N   UNL     1       5.732  -1.859  -2.171  0.00  0.00    -0.358 N 
ATOM      2  C   UNL     1       6.788  -2.433  -2.838  0.00  0.00    +0.169 C 
ATOM      3  N   UNL     1       6.693  -2.689  -4.186  0.00  0.00    -0.358 N 
ATOM      4  H   UNL     1       4.919  -1.634  -2.652  0.00  0.00    +0.162 HD
ATOM      5  H   UNL     1       8.679  -3.143  -2.575  0.00  0.00    +0.159 HD
ATOM      6  H   UNL     1       5.881  -2.464  -4.666  0.00  0.00    +0.162 HD
ATOM      7  N   UNL     1       7.869  -2.716  -2.125  0.00  0.00    -0.371 N 
ATOM      8  H   UNL     1       7.891  -2.506  -1.121  0.00  0.00    +0.159 HD
ENDROOT
BRANCH   1   9
ATOM      9  C   UNL     1       5.833  -1.586  -0.736  0.00  0.00    +0.116 C 
BRANCH   9  10
ATOM     10  C   UNL     1       4.531  -0.950  -0.244  0.00  0.00    +0.035 C 
BRANCH  10  11
ATOM     11  C   UNL     1       4.637  -0.665   1.256  0.00  0.00    +0.071 C 
BRANCH  11  16
ATOM     12  C   UNL     1       3.902  -4.143   2.530  0.00  0.00    +0.000 A 
ATOM     13  C   UNL     1       4.968  -4.355   3.385  0.00  0.00    +0.001 A 
ATOM     14  C   UNL     1       5.926  -3.373   3.552  0.00  0.00    +0.020 A 
ATOM     15  C   UNL     1       5.823  -2.180   2.858  0.00  0.00    +0.045 A 
ATOM     16  C   UNL     1       4.753  -1.967   2.007  0.00  0.00    -0.020 A 
ATOM     17  C   UNL     1       3.795  -2.949   1.841  0.00  0.00    +0.006 A 
ATOM     18 CL   UNL     1       7.031  -0.950   3.061  0.00  0.00    -0.083 Cl
ENDBRANCH  11  16
BRANCH  11  19
ATOM     19  C   UNL     1       3.405   0.071   1.715  0.00  0.00    +0.049 A 
ATOM     20  C   UNL     1       2.179  -0.230   1.151  0.00  0.00    +0.024 A 
ATOM     21  C   UNL     1       1.052   0.454   1.581  0.00  0.00    +0.003 A 
ATOM     22  C   UNL     1       1.201   1.419   2.566  0.00  0.00    +0.020 A 
ATOM     23  C   UNL     1       2.459   1.665   3.082  0.00  0.00    +0.111 A 
ATOM     24  N   UNL     1       3.509   0.995   2.650  0.00  0.00    -0.259 NA
ENDBRANCH  11  19
ENDBRANCH  10  11
ENDBRANCH   9  10
ENDBRANCH   1   9
BRANCH   3  25
ATOM     25  C   UNL     1       7.818  -3.301  -4.896  0.00  0.00    +0.116 C 
BRANCH  25  26
ATOM     26  C   UNL     1       7.455  -3.476  -6.372  0.00  0.00    +0.027 C 
BRANCH  26  27
ATOM     27  C   UNL     1       8.631  -4.115  -7.114  0.00  0.00    +0.058 C 
BRANCH  27  28
ATOM     28  C   UNL     1       8.273  -4.288  -8.568  0.00  0.00    +0.059 A 
ATOM     29  C   UNL     1       8.976  -3.820  -9.617  0.00  0.00    +0.107 A 
ATOM     30  N   UNL     1       8.302  -4.199 -10.746  0.00  0.00    -0.351 N 
ATOM     31  H   UNL     1       8.569  -4.003 -11.690  0.00  0.00    +0.166 HD
ATOM     32  C   UNL     1       7.210  -4.886 -10.348  0.00  0.00    +0.196 A 
ATOM     33  N   UNL     1       7.202  -4.940  -9.044  0.00  0.00    -0.241 NA
ENDBRANCH  27  28
ENDBRANCH  26  27
ENDBRANCH  25  26
ENDBRANCH   3  25
TORSDOF 9
