REMARK  Name = ZINC67086037
REMARK  13 active torsions:
REMARK  status: ('A' for Active; 'I' for Inactive)
REMARK    1  A    between atoms: C_1  and  C_2
REMARK    2  A    between atoms: C_5  and  C_30
REMARK    3  A    between atoms: C_6  and  C_8
REMARK    4  A    between atoms: C_8  and  C_10
REMARK    5  A    between atoms: C_8  and  N_11
REMARK    6  A    between atoms: N_14  and  C_15
REMARK    7  A    between atoms: C_15  and  C_16
REMARK    8  A    between atoms: C_20  and  C_22
REMARK    9  A    between atoms: N_24  and  C_25
REMARK   10  A    between atoms: C_25  and  C_26
REMARK   11  A    between atoms: C_26  and  N_27
REMARK   12  A    between atoms: N_27  and  C_28
REMARK   13  A    between atoms: N_27  and  C_29
REMARK                            x       y       z     vdW  Elec       q    Type
REMARK                         _______ _______ _______ _____ _____    ______ ____
ROOT
ATOM      1  C   UNL     1      -2.232  -2.474   6.774  0.00  0.00    +0.141 C 
ENDROOT
BRANCH   1   5
ATOM      2  N   UNL     1      -0.535  -2.018   3.545  0.00  0.00    -0.293 N 
ATOM      3  C   UNL     1      -1.089  -2.601   4.627  0.00  0.00    +0.300 C 
ATOM      4  O   UNL     1      -1.099  -3.812   4.726  0.00  0.00    -0.253 OA
ATOM      5  N   UNL     1      -1.631  -1.840   5.599  0.00  0.00    -0.295 N 
ATOM      6  H   UNL     1      -0.527  -1.051   3.466  0.00  0.00    +0.151 HD
ATOM      7  H   UNL     1      -1.623  -0.874   5.519  0.00  0.00    +0.151 HD
BRANCH   2   8
ATOM      8  C   UNL     1       0.054  -2.845   2.489  0.00  0.00    +0.102 C 
ATOM      9  C   UNL     1       1.497  -3.192   2.858  0.00  0.00    +0.033 C 
BRANCH   8  15
ATOM     10  C   UNL     1      -0.018   1.503   0.010  0.00  0.00    +0.044 C 
ATOM     11  C   UNL     1       0.002  -0.004   0.002  0.00  0.00    -0.050 A 
ATOM     12  C   UNL     1       0.006  -0.689  -1.199  0.00  0.00    +0.003 A 
ATOM     13  C   UNL     1       0.025  -2.071  -1.207  0.00  0.00    +0.004 A 
ATOM     14  C   UNL     1       0.040  -2.768  -0.013  0.00  0.00    -0.046 A 
ATOM     15  C   UNL     1       0.037  -2.084   1.188  0.00  0.00    -0.024 A 
ATOM     16  C   UNL     1       0.023  -0.702   1.195  0.00  0.00    +0.009 A 
ATOM     17  C   UNL     1       0.059  -4.275  -0.021  0.00  0.00    +0.044 C 
ENDBRANCH   8  15
ENDBRANCH   2   8
ENDBRANCH   1   5
BRANCH   1  18
ATOM     18  C   UNL     1      -2.762  -1.411   7.702  0.00  0.00    -0.030 A 
ATOM     19  C   UNL     1      -1.943  -0.882   8.685  0.00  0.00    +0.005 A 
ATOM     20  C   UNL     1      -2.421   0.094   9.541  0.00  0.00    +0.001 A 
ATOM     21  C   UNL     1      -3.718   0.548   9.419  0.00  0.00    +0.013 A 
ATOM     22  C   UNL     1      -4.549   0.019   8.430  0.00  0.00    +0.037 A 
ATOM     23  C   UNL     1      -4.059  -0.962   7.566  0.00  0.00    +0.018 A 
BRANCH  22  24
ATOM     24  C   UNL     1      -5.940   0.500   8.294  0.00  0.00    +0.244 C 
ATOM     25  O   UNL     1      -6.662   0.038   7.431  0.00  0.00    -0.270 OA
ATOM     26  N   UNL     1      -6.409   1.451   9.126  0.00  0.00    -0.313 N 
ATOM     27  H   UNL     1      -5.834   1.820   9.814  0.00  0.00    +0.149 HD
BRANCH  26  28
ATOM     28  C   UNL     1      -7.788   1.928   8.991  0.00  0.00    +0.086 C 
BRANCH  28  29
ATOM     29  C   UNL     1      -8.063   2.998  10.050  0.00  0.00    -0.061 C 
BRANCH  29  30
ATOM     30  N   UNL     1      -9.446   3.476   9.915  0.00  0.00    +0.377 N 
ATOM     31  C   UNL     1      -9.748   4.414  11.003  0.00  0.00    -0.097 C 
ATOM     32  C   UNL     1      -9.604   4.157   8.623  0.00  0.00    -0.097 C 
ATOM     33  H   UNL     1     -10.079   2.691   9.961  0.00  0.00    -0.083 HD
ENDBRANCH  29  30
ENDBRANCH  28  29
ENDBRANCH  26  28
ENDBRANCH  22  24
ENDBRANCH   1  18
TORSDOF 8
