REMARK  Name = ZINC63731322
REMARK  9 active torsions:
REMARK  status: ('A' for Active; 'I' for Inactive)
REMARK    1  A    between atoms: C_1  and  C_2
REMARK    2  A    between atoms: C_2  and  C_3
REMARK    3  A    between atoms: C_2  and  C_4
REMARK    4  A    between atoms: C_7  and  N_10
REMARK    5  A    between atoms: C_11  and  S_16
REMARK    6  A    between atoms: S_16  and  C_17
REMARK    7  A    between atoms: C_17  and  C_18
REMARK    8  A    between atoms: C_18  and  C_20
REMARK    9  A    between atoms: C_23  and  C_25
REMARK                            x       y       z     vdW  Elec       q    Type
REMARK                         _______ _______ _______ _____ _____    ______ ____
ROOT
ATOM      1  N   UNL     1      -5.318  -1.967   0.043  0.00  0.00    -0.254 N 
ATOM      2  C   UNL     1      -5.932  -2.830  -0.981  0.00  0.00    +0.203 C 
ATOM      3  N   UNL     1      -7.336  -3.032  -0.548  0.00  0.00    -0.320 NA
ATOM      4  N   UNL     1      -7.566  -1.886   0.349  0.00  0.00    +0.411 N 
ATOM      5  N   UNL     1      -6.262  -1.728   1.013  0.00  0.00    -0.265 NA
ATOM      6  H   UNL     1      -7.965  -3.006  -1.336  0.00  0.00    +0.106 HD
ATOM      7  H   UNL     1      -7.804  -1.060  -0.179  0.00  0.00    -0.031 HD
ATOM      8  H   UNL     1      -6.163  -2.375   1.781  0.00  0.00    +0.125 HD
ATOM      9  H   UNL     1      -8.285  -2.099   1.025  0.00  0.00    -0.031 HD
ENDROOT
BRANCH   1  13
ATOM     10  C   UNL     1      -1.412  -0.526   0.013  0.00  0.00    -0.045 A 
ATOM     11  C   UNL     1      -2.258  -0.203   1.058  0.00  0.00    +0.006 A 
ATOM     12  C   UNL     1      -3.554  -0.679   1.071  0.00  0.00    +0.025 A 
ATOM     13  C   UNL     1      -4.008  -1.483   0.032  0.00  0.00    +0.045 A 
ATOM     14  C   UNL     1      -3.155  -1.805  -1.016  0.00  0.00    +0.025 A 
ATOM     15  C   UNL     1      -1.861  -1.321  -1.025  0.00  0.00    +0.006 A 
BRANCH  10  17
ATOM     16  C   UNL     1      -0.019   1.526   0.010  0.00  0.00    +0.012 C 
ATOM     17  C   UNL     1       0.002  -0.004   0.002  0.00  0.00    +0.013 C 
ATOM     18  C   UNL     1       0.742  -0.511   1.242  0.00  0.00    +0.012 C 
ENDBRANCH  10  17
ENDBRANCH   1  13
BRANCH   2  19
ATOM     19  S   UNL     1      -5.064  -4.420  -1.062  0.00  0.00    -0.115 S 
BRANCH  19  20
ATOM     20  C   UNL     1      -5.256  -5.111   0.604  0.00  0.00    +0.151 C 
BRANCH  20  21
ATOM     21  C   UNL     1      -4.571  -6.451   0.675  0.00  0.00    +0.171 C 
ATOM     22  O   UNL     1      -4.008  -6.897  -0.304  0.00  0.00    -0.291 OA
BRANCH  21  23
ATOM     23  C   UNL     1      -4.584  -7.189   1.881  0.00  0.00    +0.020 C 
ATOM     24  C   UNL     1      -4.016  -8.400   2.117  0.00  0.00    +0.118 C 
ATOM     25  N   UNL     1      -4.218  -8.813   3.370  0.00  0.00    -0.254 NA
ATOM     26  C   UNL     1      -4.908  -7.980   4.093  0.00  0.00    +0.107 C 
ATOM     27  C   UNL     1      -5.230  -6.799   3.198  0.00  0.00    +0.101 C 
BRANCH  26  28
ATOM     28  C   UNL     1      -5.296  -8.150   5.510  0.00  0.00    +0.261 C 
ATOM     29  O   UNL     1      -5.946  -7.289   6.069  0.00  0.00    -0.269 OA
ATOM     30  N   UNL     1      -4.929  -9.259   6.181  0.00  0.00    -0.297 N 
ATOM     31  C   UNL     1      -4.140 -10.371   5.632  0.00  0.00    +0.108 C 
ATOM     32  C   UNL     1      -3.989 -11.423   6.752  0.00  0.00    +0.020 C 
ATOM     33  C   UNL     1      -5.180 -11.102   7.693  0.00  0.00    +0.020 C 
ATOM     34  C   UNL     1      -5.247  -9.555   7.590  0.00  0.00    +0.108 C 
ENDBRANCH  26  28
ENDBRANCH  21  23
ENDBRANCH  20  21
ENDBRANCH  19  20
ENDBRANCH   2  19
TORSDOF 7
