REMARK  Name = ZINC63270208
REMARK  8 active torsions:
REMARK  status: ('A' for Active; 'I' for Inactive)
REMARK    1  A    between atoms: C_1  and  C_2
REMARK    2  A    between atoms: C_5  and  C_8
REMARK    3  A    between atoms: N_10  and  C_11
REMARK    4  A    between atoms: C_11  and  C_18
REMARK    5  A    between atoms: C_12  and  C_13
REMARK    6  A    between atoms: N_20  and  C_21
REMARK    7  A    between atoms: C_21  and  C_22
REMARK    8  A    between atoms: C_22  and  C_23
REMARK                            x       y       z     vdW  Elec       q    Type
REMARK                         _______ _______ _______ _____ _____    ______ ____
ROOT
ATOM      1  C   UNL     1       0.218  -6.366   1.108  0.00  0.00    +0.097 C 
ATOM      2  C   UNL     1       0.254  -7.042  -0.071  0.00  0.00    +0.043 C 
ENDROOT
BRANCH   2   3
ATOM      3  C   UNL     1       0.213  -8.458  -0.077  0.00  0.00    +0.014 A 
ATOM      4  C   UNL     1       0.349  -9.334  -1.147  0.00  0.00    +0.015 A 
ATOM      5  C   UNL     1       0.272 -10.681  -0.899  0.00  0.00    +0.008 A 
ATOM      6  C   UNL     1       0.066 -11.114   0.375  0.00  0.00    +0.046 A 
ATOM      7  S   UNL     1      -0.019  -9.583   1.289  0.00  0.00    -0.097 S 
ENDBRANCH   2   3
BRANCH   1  10
ATOM      8  C   UNL     1       0.215  -4.291   2.274  0.00  0.00    +0.248 C 
ATOM      9  O   UNL     1       0.256  -4.896   3.328  0.00  0.00    -0.270 OA
ATOM     10  N   UNL     1       0.138  -4.967   1.111  0.00  0.00    -0.277 N 
ATOM     11  H   UNL     1       0.027  -4.486   0.276  0.00  0.00    +0.155 HD
BRANCH   8  16
ATOM     12  C   UNL     1       0.355   1.462   2.251  0.00  0.00    +0.044 C 
ATOM     13  C   UNL     1       0.318  -0.044   2.257  0.00  0.00    -0.050 A 
ATOM     14  C   UNL     1       0.364  -0.730   3.458  0.00  0.00    +0.004 A 
ATOM     15  C   UNL     1       0.331  -2.109   3.470  0.00  0.00    +0.013 A 
ATOM     16  C   UNL     1       0.251  -2.813   2.268  0.00  0.00    +0.037 A 
ATOM     17  C   UNL     1       0.205  -2.115   1.060  0.00  0.00    +0.013 A 
ATOM     18  C   UNL     1       0.234  -0.736   1.062  0.00  0.00    +0.004 A 
ENDBRANCH   8  16
ENDBRANCH   1  10
BRANCH   1  19
ATOM     19  C   UNL     1       0.263  -7.099   2.374  0.00  0.00    +0.258 C 
ATOM     20  O   UNL     1       1.335  -7.386   2.874  0.00  0.00    -0.269 OA
ATOM     21  N   UNL     1      -0.883  -7.457   2.986  0.00  0.00    -0.310 N 
ATOM     22  H   UNL     1      -1.736  -7.296   2.553  0.00  0.00    +0.149 HD
BRANCH  21  23
ATOM     23  C   UNL     1      -0.841  -8.090   4.307  0.00  0.00    +0.109 C 
BRANCH  23  24
ATOM     24  C   UNL     1      -2.255  -8.505   4.719  0.00  0.00    +0.052 C 
BRANCH  24  25
ATOM     25  C   UNL     1      -2.212  -9.156   6.078  0.00  0.00    -0.040 C 
ATOM     26  C   UNL     1      -2.435  -8.560   7.271  0.00  0.00    -0.001 A 
ATOM     27  C   UNL     1      -2.769  -7.182   7.648  0.00  0.00    +0.010 A 
ATOM     28  C   UNL     1      -2.934  -6.881   8.956  0.00  0.00    +0.001 A 
ATOM     29  C   UNL     1      -2.794  -7.850   9.959  0.00  0.00    +0.002 A 
ATOM     30  C   UNL     1      -2.487  -9.137   9.691  0.00  0.00    +0.026 A 
ATOM     31  C   UNL     1      -2.292  -9.565   8.349  0.00  0.00    +0.043 A 
ATOM     32  N   UNL     1      -1.993 -10.736   7.841  0.00  0.00    -0.380 N 
ATOM     33  C   UNL     1      -1.918 -10.607   6.382  0.00  0.00    +0.144 C 
ATOM     34  H   UNL     1      -1.849 -11.552   8.346  0.00  0.00    +0.160 HD
ENDBRANCH  24  25
ENDBRANCH  23  24
ENDBRANCH  21  23
ENDBRANCH   1  19
TORSDOF 7
