REMARK  Name = ZINC43287124
REMARK  11 active torsions:
REMARK  status: ('A' for Active; 'I' for Inactive)
REMARK    1  A    between atoms: C_1  and  C_2
REMARK    2  A    between atoms: C_2  and  C_3
REMARK    3  A    between atoms: C_3  and  N_4
REMARK    4  A    between atoms: N_4  and  C_5
REMARK    5  A    between atoms: N_4  and  C_10
REMARK    6  A    between atoms: C_5  and  C_6
REMARK    7  A    between atoms: N_8  and  C_9
REMARK    8  A    between atoms: C_10  and  C_12
REMARK    9  A    between atoms: C_10  and  C_18
REMARK   10  A    between atoms: C_18  and  C_20
REMARK   11  A    between atoms: C_18  and  N_21
REMARK                            x       y       z     vdW  Elec       q    Type
REMARK                         _______ _______ _______ _____ _____    ______ ____
ROOT
ATOM      1  C   UNL     1      -0.405  -2.868  -1.484  0.00  0.00    +0.079 C 
ENDROOT
BRANCH   1   2
ATOM      2  C   UNL     1       0.140  -4.100  -0.808  0.00  0.00    +0.006 A 
ATOM      3  C   UNL     1       1.253  -4.814  -1.104  0.00  0.00    +0.028 A 
ATOM      4  C   UNL     1       1.561  -5.923  -0.338  0.00  0.00    +0.025 A 
ATOM      5  C   UNL     1       0.740  -6.263   0.686  0.00  0.00    +0.060 A 
ATOM      6  S   UNL     1      -0.510  -4.993   0.595  0.00  0.00    -0.099 S 
ATOM      7 BR   UNL     1       3.104  -6.950  -0.714  0.00  0.00    -0.050 Br
ENDBRANCH   1   2
BRANCH   1   8
ATOM      8  C   UNL     1      -1.628  -3.245  -2.322  0.00  0.00    -0.056 C 
ATOM      9  C   UNL     1      -2.147  -2.005  -3.053  0.00  0.00    -0.012 C 
BRANCH   8  10
ATOM     10  N   UNL     1      -1.251  -4.270  -3.305  0.00  0.00    +0.381 N 
ATOM     11  H   UNL     1      -0.528  -3.908  -3.908  0.00  0.00    -0.090 HD
ATOM     12  H   UNL     1      -0.908  -5.088  -2.823  0.00  0.00    -0.090 HD
ATOM     13  H   UNL     1      -2.057  -4.519  -3.858  0.00  0.00    -0.090 HD
ENDBRANCH   8  10
ENDBRANCH   1   8
BRANCH   1  14
ATOM     14  N   UNL     1      -0.795  -1.883  -0.466  0.00  0.00    -0.288 NA
BRANCH  14  15
ATOM     15  C   UNL     1      -0.710  -0.516  -0.997  0.00  0.00    +0.085 C 
BRANCH  15  17
ATOM     16  C   UNL     1       0.848   1.275  -1.776  0.00  0.00    +0.005 C 
ATOM     17  C   UNL     1       0.759  -0.117  -1.147  0.00  0.00    +0.012 C 
ENDBRANCH  15  17
ENDBRANCH  14  15
BRANCH  14  18
ATOM     18  C   UNL     1      -2.140  -2.164   0.052  0.00  0.00    +0.180 C 
BRANCH  18  19
ATOM     19  C   UNL     1      -2.325  -1.468   1.376  0.00  0.00    +0.227 C 
ATOM     20  O   UNL     1      -1.424  -0.803   1.842  0.00  0.00    -0.274 OA
ATOM     21  N   UNL     1      -3.491  -1.585   2.041  0.00  0.00    -0.317 N 
ATOM     22  C   UNL     1      -3.671  -0.908   3.328  0.00  0.00    +0.128 C 
ATOM     23  H   UNL     1      -4.211  -2.117   1.668  0.00  0.00    +0.148 HD
ENDBRANCH  18  19
ENDBRANCH  14  18
ENDBRANCH   1  14
TORSDOF 8
