REMARK  Name = ZINC00810691
REMARK  9 active torsions:
REMARK  status: ('A' for Active; 'I' for Inactive)
REMARK    1  A    between atoms: C_4  and  C_7
REMARK    2  A    between atoms: C_7  and  C_8
REMARK    3  A    between atoms: C_8  and  N_9
REMARK    4  A    between atoms: C_13  and  N_50
REMARK    5  A    between atoms: C_17  and  C_18
REMARK    6  A    between atoms: C_17  and  N_50
REMARK    7  A    between atoms: C_18  and  C_19
REMARK    8  A    between atoms: C_22  and  S_25
REMARK    9  A    between atoms: S_25  and  N_28
REMARK                            x       y       z     vdW  Elec       q    Type
REMARK                         _______ _______ _______ _____ _____    ______ ____
ROOT
ATOM      1  N   UNL     1      -8.253  -2.717   0.028  0.00  0.00    +0.387 N 
ATOM      2  H   UNL     1      -8.163  -3.298  -0.815  0.00  0.00    -0.085 HD
ATOM      3  H   UNL     1      -8.155  -3.308   0.862  0.00  0.00    -0.085 HD
ENDROOT
BRANCH   1   8
ATOM      4  N   UNL     1     -11.191  -2.575   1.643  0.00  0.00    -0.243 N 
ATOM      5  C   UNL     1     -11.604  -3.257   0.567  0.00  0.00    +0.221 C 
ATOM      6  O   UNL     1     -12.595  -3.953   0.515  0.00  0.00    -0.275 OA
ATOM      7  C   UNL     1     -10.636  -3.023  -0.572  0.00  0.00    +0.090 C 
ATOM      8  C   UNL     1      -9.582  -2.077   0.038  0.00  0.00    +0.025 C 
ATOM      9  C   UNL     1     -10.065  -1.877   1.458  0.00  0.00    +0.208 C 
ATOM     10  O   UNL     1      -9.517  -1.192   2.296  0.00  0.00    -0.277 OA
BRANCH   4  11
ATOM     11  C   UNL     1     -11.914  -2.592   2.917  0.00  0.00    +0.121 C 
BRANCH  11  12
ATOM     12  C   UNL     1     -11.390  -3.738   3.786  0.00  0.00    +0.054 C 
BRANCH  12  16
ATOM     13  C   UNL     1     -13.497  -3.786   7.501  0.00  0.00    +0.000 A 
ATOM     14  C   UNL     1     -13.975  -4.512   6.426  0.00  0.00    +0.000 A 
ATOM     15  C   UNL     1     -13.293  -4.496   5.224  0.00  0.00    +0.004 A 
ATOM     16  C   UNL     1     -12.134  -3.755   5.096  0.00  0.00    -0.046 A 
ATOM     17  C   UNL     1     -11.653  -3.034   6.173  0.00  0.00    +0.004 A 
ATOM     18  C   UNL     1     -12.337  -3.045   7.374  0.00  0.00    +0.000 A 
ENDBRANCH  12  16
ENDBRANCH  11  12
ENDBRANCH   4  11
ENDBRANCH   1   8
BRANCH   1  19
ATOM     19  C   UNL     1      -7.191  -1.693   0.028  0.00  0.00    -0.077 C 
BRANCH  19  20
ATOM     20  C   UNL     1      -5.827  -2.386   0.017  0.00  0.00    +0.016 C 
BRANCH  20  21
ATOM     21  C   UNL     1      -4.736  -1.346   0.017  0.00  0.00    -0.049 A 
ATOM     22  C   UNL     1      -4.229  -0.876   1.214  0.00  0.00    +0.005 A 
ATOM     23  C   UNL     1      -3.228   0.077   1.215  0.00  0.00    +0.029 A 
ATOM     24  C   UNL     1      -2.733   0.560   0.018  0.00  0.00    +0.105 A 
ATOM     25  C   UNL     1      -3.243   0.094  -1.179  0.00  0.00    +0.029 A 
ATOM     26  C   UNL     1      -4.241  -0.862  -1.180  0.00  0.00    +0.005 A 
BRANCH  24  27
ATOM     27  S   UNL     1      -1.456   1.774   0.019  0.00  0.00    +0.056 S 
ATOM     28  O   UNL     1      -1.536   2.446   1.268  0.00  0.00    -0.153 OA
ATOM     29  O   UNL     1      -1.548   2.460  -1.223  0.00  0.00    -0.153 OA
BRANCH  27  30
ATOM     30  N   UNL     1      -0.011   0.966   0.007  0.00  0.00    -0.204 NA
ATOM     31  H   UNL     1       0.002  -0.004   0.002  0.00  0.00    +0.144 HD
ATOM     32  H   UNL     1       0.822   1.462   0.002  0.00  0.00    +0.144 HD
ENDBRANCH  27  30
ENDBRANCH  24  27
ENDBRANCH  20  21
ENDBRANCH  19  20
ENDBRANCH   1  19
TORSDOF 9
