REMARK  Name = ZINC64723065
REMARK  6 active torsions:
REMARK  status: ('A' for Active; 'I' for Inactive)
REMARK    1  A    between atoms: C_7  and  C_10
REMARK    2  A    between atoms: C_10  and  C_12
REMARK    3  A    between atoms: C_10  and  C_24
REMARK    4  A    between atoms: C_12  and  N_13
REMARK    5  A    between atoms: C_17  and  S_20
REMARK    6  A    between atoms: S_20  and  N_23
REMARK                            x       y       z     vdW  Elec       q    Type
REMARK                         _______ _______ _______ _____ _____    ______ ____
ROOT
ATOM      1  C   UNL     1       0.691  -3.186  -0.024  0.00  0.00    +0.066 C 
ENDROOT
BRANCH   1   8
ATOM      2  C   UNL     1      -0.016   1.348   0.009  0.00  0.00    +0.001 A 
ATOM      3  C   UNL     1       1.166   2.101   0.002  0.00  0.00    +0.002 A 
ATOM      4  C   UNL     1       2.391   1.535  -0.013  0.00  0.00    +0.026 A 
ATOM      5  C   UNL     1       2.529   0.120  -0.022  0.00  0.00    +0.043 A 
ATOM      6  N   UNL     1       3.587  -0.654  -0.037  0.00  0.00    -0.380 N 
ATOM      7  C   UNL     1       3.143  -2.053  -0.041  0.00  0.00    +0.145 C 
ATOM      8  C   UNL     1       1.631  -2.008  -0.025  0.00  0.00    -0.033 C 
ATOM      9  C   UNL     1       1.295  -0.698  -0.014  0.00  0.00    -0.000 A 
ATOM     10  C   UNL     1       0.002  -0.004   0.002  0.00  0.00    +0.010 A 
ATOM     11  H   UNL     1       4.509  -0.353  -0.045  0.00  0.00    +0.160 HD
ENDBRANCH   1   8
BRANCH   1  12
ATOM     12  C   UNL     1       0.944  -4.029   1.199  0.00  0.00    -0.020 A 
ATOM     13  C   UNL     1       2.189  -4.591   1.405  0.00  0.00    +0.006 A 
ATOM     14  C   UNL     1       2.422  -5.365   2.527  0.00  0.00    +0.000 A 
ATOM     15  C   UNL     1       1.408  -5.577   3.443  0.00  0.00    +0.001 A 
ATOM     16  C   UNL     1       0.162  -5.016   3.238  0.00  0.00    +0.020 A 
ATOM     17  C   UNL     1      -0.069  -4.237   2.118  0.00  0.00    +0.045 A 
ATOM     18 CL   UNL     1      -1.632  -3.525   1.863  0.00  0.00    -0.083 Cl
ENDBRANCH   1  12
BRANCH   1  19
ATOM     19  C   UNL     1       0.923  -4.026  -1.281  0.00  0.00    +0.115 C 
BRANCH  19  20
ATOM     20  N   UNL     1      -0.070  -5.102  -1.340  0.00  0.00    -0.328 N 
ATOM     21  C   UNL     1      -0.058  -6.001  -2.399  0.00  0.00    +0.119 A 
ATOM     22  C   UNL     1       0.903  -5.878  -3.398  0.00  0.00    +0.045 A 
ATOM     23  C   UNL     1       0.903  -6.780  -4.446  0.00  0.00    +0.033 A 
ATOM     24  C   UNL     1      -0.061  -7.779  -4.462  0.00  0.00    +0.123 A 
ATOM     25  C   UNL     1      -0.985  -7.842  -3.438  0.00  0.00    +0.141 A 
ATOM     26  N   UNL     1      -0.958  -6.971  -2.447  0.00  0.00    -0.239 NA
ATOM     27  H   UNL     1      -0.735  -5.186  -0.639  0.00  0.00    +0.147 HD
BRANCH  24  28
ATOM     28  S   UNL     1      -0.106  -8.953  -5.775  0.00  0.00    +0.057 S 
ATOM     29  O   UNL     1      -1.438  -9.445  -5.834  0.00  0.00    -0.153 OA
ATOM     30  O   UNL     1       0.530  -8.341  -6.888  0.00  0.00    -0.153 OA
BRANCH  28  31
ATOM     31  N   UNL     1       0.851 -10.227  -5.324  0.00  0.00    -0.203 NA
ATOM     32  H   UNL     1       1.303 -10.215  -4.467  0.00  0.00    +0.144 HD
ATOM     33  H   UNL     1       0.958 -10.987  -5.919  0.00  0.00    +0.144 HD
ENDBRANCH  28  31
ENDBRANCH  24  28
ENDBRANCH  19  20
ENDBRANCH   1  19
TORSDOF 6
