REMARK  Name = ZINC67517951
REMARK  6 active torsions:
REMARK  status: ('A' for Active; 'I' for Inactive)
REMARK    1  A    between atoms: C_1  and  C_2
REMARK    2  A    between atoms: C_3  and  C_14
REMARK    3  A    between atoms: N_8  and  C_11
REMARK    4  A    between atoms: C_11  and  C_12
REMARK    5  A    between atoms: C_11  and  C_13
REMARK    6  A    between atoms: C_26  and  C_29
REMARK                            x       y       z     vdW  Elec       q    Type
REMARK                         _______ _______ _______ _____ _____    ______ ____
ROOT
ATOM      1  C   UNL     1       2.166   0.426  -0.635  0.00  0.00    +0.066 C 
ATOM      2  C   UNL     1       1.041  -0.521  -0.307  0.00  0.00    +0.053 A 
ATOM      3  C   UNL     1      -0.059  -0.605  -1.171  0.00  0.00    +0.059 A 
ATOM      4  C   UNL     1      -1.099  -1.483  -0.865  0.00  0.00    +0.028 A 
ATOM      5  C   UNL     1      -0.991  -2.244   0.301  0.00  0.00    +0.039 A 
ATOM      6  C   UNL     1      -1.840  -3.242   0.946  0.00  0.00    +0.144 A 
ATOM      7  N   UNL     1      -1.235  -3.630   2.031  0.00  0.00    -0.177 NA
ATOM      8  N   UNL     1      -0.018  -2.957   2.171  0.00  0.00    -0.244 N 
ATOM      9  C   UNL     1       0.150  -2.102   1.118  0.00  0.00    +0.159 A 
ATOM     10  N   UNL     1       1.115  -1.254   0.778  0.00  0.00    -0.232 NA
ENDROOT
BRANCH   3  11
ATOM     11  C   UNL     1      -0.118   0.227  -2.391  0.00  0.00    +0.249 C 
ATOM     12  O   UNL     1      -0.007   1.434  -2.308  0.00  0.00    -0.270 OA
ATOM     13  N   UNL     1      -0.294  -0.354  -3.594  0.00  0.00    -0.294 N 
ATOM     14  C   UNL     1      -0.533  -1.801  -3.708  0.00  0.00    +0.108 C 
ATOM     15  C   UNL     1       0.481  -2.401  -4.685  0.00  0.00    +0.019 C 
ATOM     16  C   UNL     1       0.429  -1.643  -6.014  0.00  0.00    +0.007 C 
ATOM     17  C   UNL     1       0.784  -0.177  -5.771  0.00  0.00    +0.010 C 
ATOM     18  C   UNL     1      -0.259   0.441  -4.826  0.00  0.00    +0.079 C 
ATOM     19  C   UNL     1       0.134   1.886  -4.522  0.00  0.00    +0.023 C 
ATOM     20  C   UNL     1       0.153   2.684  -5.829  0.00  0.00    +0.005 C 
ATOM     21  C   UNL     1       1.159   2.065  -6.801  0.00  0.00    -0.014 C 
ATOM     22  C   UNL     1       0.783   0.605  -7.083  0.00  0.00    +0.008 C 
ATOM     23  C   UNL     1       1.154   2.856  -8.110  0.00  0.00    +0.007 C 
ENDBRANCH   3  11
BRANCH   8  24
ATOM     24  C   UNL     1       0.930  -3.140   3.273  0.00  0.00    +0.103 C 
ATOM     25  C   UNL     1       0.246  -2.789   4.596  0.00  0.00    +0.032 C 
ATOM     26  C   UNL     1       1.395  -4.597   3.310  0.00  0.00    +0.032 C 
ENDBRANCH   8  24
TORSDOF 2
