REMARK  Name = ZINC36624124
REMARK  11 active torsions:
REMARK  status: ('A' for Active; 'I' for Inactive)
REMARK    1  A    between atoms: C_1  and  C_2
REMARK    2  A    between atoms: C_2  and  O_3
REMARK    3  A    between atoms: O_3  and  C_4
REMARK    4  A    between atoms: C_6  and  C_19
REMARK    5  A    between atoms: C_9  and  O_10
REMARK    6  A    between atoms: O_10  and  C_11
REMARK    7  A    between atoms: C_11  and  C_12
REMARK    8  A    between atoms: N_20  and  N_21
REMARK    9  A    between atoms: N_21  and  C_22
REMARK   10  A    between atoms: C_25  and  N_31
REMARK   11  A    between atoms: C_27  and  N_28
REMARK                            x       y       z     vdW  Elec       q    Type
REMARK                         _______ _______ _______ _____ _____    ______ ____
ROOT
ATOM      1  C   UNL     1      -1.435  -1.868   0.735  0.00  0.00    +0.164 A 
ATOM      2  C   UNL     1      -0.434  -2.696   0.260  0.00  0.00    +0.059 A 
ATOM      3  C   UNL     1      -0.444  -4.055   0.584  0.00  0.00    -0.001 A 
ATOM      4  C   UNL     1      -1.464  -4.571   1.387  0.00  0.00    +0.028 A 
ATOM      5  C   UNL     1      -2.458  -3.739   1.858  0.00  0.00    +0.064 A 
ATOM      6  C   UNL     1      -2.446  -2.388   1.540  0.00  0.00    +0.176 A 
ATOM      7 BR   UNL     1      -3.838  -4.439   2.945  0.00  0.00    -0.046 Br
ENDROOT
BRANCH   3   8
ATOM      8  C   UNL     1       0.620  -4.942   0.079  0.00  0.00    +0.138 C 
ATOM      9  N   UNL     1       0.467  -6.230   0.124  0.00  0.00    -0.190 NA
BRANCH   9  10
ATOM     10  N   UNL     1      -0.821  -6.783   0.118  0.00  0.00    -0.236 N 
ATOM     11  H   UNL     1      -1.593  -6.211  -0.015  0.00  0.00    +0.174 HD
BRANCH  10  12
ATOM     12  C   UNL     1      -0.992  -8.155   0.303  0.00  0.00    +0.079 A 
ATOM     13  C   UNL     1       0.116  -8.989   0.398  0.00  0.00    +0.029 A 
ATOM     14  C   UNL     1      -0.057 -10.346   0.582  0.00  0.00    +0.035 A 
ATOM     15  C   UNL     1      -1.332 -10.877   0.671  0.00  0.00    +0.128 A 
ATOM     16  C   UNL     1      -2.436 -10.050   0.576  0.00  0.00    +0.067 A 
ATOM     17  C   UNL     1      -2.271  -8.691   0.398  0.00  0.00    +0.151 A 
BRANCH  17  18
ATOM     18  N   UNL     1      -3.454  -7.806   0.302  0.00  0.00    +0.058 N 
ATOM     19  O   UNL     1      -4.561  -8.254   0.492  0.00  0.00    -0.126 OA
ATOM     20  O   UNL     1      -3.314  -6.635   0.035  0.00  0.00    -0.126 OA
ENDBRANCH  17  18
BRANCH  15  21
ATOM     21  N   UNL     1      -1.513 -12.333   0.868  0.00  0.00    +0.056 N 
ATOM     22  O   UNL     1      -0.548 -13.057   0.951  0.00  0.00    -0.126 OA
ATOM     23  O   UNL     1      -2.626 -12.798   0.946  0.00  0.00    -0.126 OA
ENDBRANCH  15  21
ENDBRANCH  10  12
ENDBRANCH   9  10
ENDBRANCH   3   8
BRANCH   1  24
ATOM     24  O   UNL     1      -1.428  -0.545   0.422  0.00  0.00    -0.489 OA
BRANCH  24  26
ATOM     25  C   UNL     1      -0.522   1.423  -0.650  0.00  0.00    +0.048 C 
ATOM     26  C   UNL     1      -0.362  -0.080  -0.408  0.00  0.00    +0.226 C 
ENDBRANCH  24  26
ENDBRANCH   1  24
BRANCH   6  27
ATOM     27  O   UNL     1      -3.425  -1.571   2.010  0.00  0.00    -0.483 OA
BRANCH  27  28
ATOM     28  C   UNL     1      -4.593  -1.423   1.199  0.00  0.00    +0.264 C 
BRANCH  28  29
ATOM     29  C   UNL     1      -5.561  -0.488   1.877  0.00  0.00    -0.010 A 
ATOM     30  C   UNL     1      -6.507  -0.988   2.752  0.00  0.00    +0.007 A 
ATOM     31  C   UNL     1      -7.395  -0.130   3.374  0.00  0.00    +0.000 A 
ATOM     32  C   UNL     1      -7.336   1.228   3.121  0.00  0.00    +0.000 A 
ATOM     33  C   UNL     1      -6.389   1.728   2.247  0.00  0.00    +0.000 A 
ATOM     34  C   UNL     1      -5.498   0.870   1.628  0.00  0.00    +0.007 A 
ENDBRANCH  28  29
ENDBRANCH  27  28
ENDBRANCH   6  27
TORSDOF 10
