REMARK  Name = ZINC08767987
REMARK  10 active torsions:
REMARK  status: ('A' for Active; 'I' for Inactive)
REMARK    1  A    between atoms: C_3  and  C_10
REMARK    2  A    between atoms: C_5  and  N_7
REMARK    3  A    between atoms: N_12  and  N_13
REMARK    4  A    between atoms: C_14  and  C_16
REMARK    5  A    between atoms: C_16  and  N_46
REMARK    6  A    between atoms: C_17  and  C_18
REMARK    7  A    between atoms: C_17  and  N_46
REMARK    8  A    between atoms: C_18  and  N_19
REMARK    9  A    between atoms: N_19  and  C_20
REMARK   10  A    between atoms: C_23  and  N_27
REMARK                            x       y       z     vdW  Elec       q    Type
REMARK                         _______ _______ _______ _____ _____    ______ ____
ROOT
ATOM      1  C   UNL     1       1.121   3.593   0.011  0.00  0.00    +0.016 C 
ENDROOT
BRANCH   1   3
ATOM      2  N   UNL     1      -0.017   1.397   0.010  0.00  0.00    -0.236 N 
ATOM      3  C   UNL     1       1.141   2.087   0.002  0.00  0.00    +0.212 C 
ATOM      4  O   UNL     1       2.199   1.494  -0.011  0.00  0.00    -0.276 OA
ATOM      5  H   UNL     1      -0.864   1.870   0.016  0.00  0.00    +0.173 HD
BRANCH   2   8
ATOM      6  C   UNL     1      -1.156  -0.694   0.009  0.00  0.00    +0.260 C 
ATOM      7  O   UNL     1      -2.217  -0.100   0.023  0.00  0.00    -0.269 OA
ATOM      8  N   UNL     1       0.002  -0.004   0.002  0.00  0.00    -0.230 N 
ATOM      9  H   UNL     1       0.849  -0.478  -0.009  0.00  0.00    +0.173 HD
BRANCH   6  12
ATOM     10  C   UNL     1       0.092  -4.236  -0.022  0.00  0.00    +0.003 A 
ATOM     11  C   UNL     1       0.080  -2.856  -0.020  0.00  0.00    +0.013 A 
ATOM     12  C   UNL     1      -1.136  -2.172   0.001  0.00  0.00    +0.040 A 
ATOM     13  C   UNL     1      -2.333  -2.889   0.009  0.00  0.00    +0.045 A 
ATOM     14  C   UNL     1      -2.308  -4.269   0.001  0.00  0.00    +0.127 A 
ATOM     15  C   UNL     1      -1.098  -4.941  -0.015  0.00  0.00    +0.033 A 
BRANCH  14  16
ATOM     16  N   UNL     1      -3.576  -5.031   0.008  0.00  0.00    +0.056 N 
ATOM     17  O   UNL     1      -4.641  -4.440   0.022  0.00  0.00    -0.126 OA
ATOM     18  O   UNL     1      -3.555  -6.249   0.001  0.00  0.00    -0.126 OA
ENDBRANCH  14  16
ENDBRANCH   6  12
ENDBRANCH   2   8
ENDBRANCH   1   3
BRANCH   1  19
ATOM     19  N   UNL     1       2.507   4.096   0.000  0.00  0.00    +0.386 N 
ATOM     20  H   UNL     1       2.983   3.758  -0.845  0.00  0.00    -0.085 HD
ATOM     21  H   UNL     1       3.000   3.749   0.832  0.00  0.00    -0.085 HD
BRANCH  19  22
ATOM     22  C   UNL     1       2.518   5.571   0.008  0.00  0.00    -0.063 C 
BRANCH  22  23
ATOM     23  C   UNL     1       3.967   6.062  -0.003  0.00  0.00    +0.082 C 
BRANCH  23  24
ATOM     24  N   UNL     1       3.986   7.527   0.004  0.00  0.00    -0.345 N 
ATOM     25  H   UNL     1       3.153   8.023   0.015  0.00  0.00    +0.146 HD
BRANCH  24  26
ATOM     26  C   UNL     1       5.205   8.210  -0.004  0.00  0.00    +0.046 A 
ATOM     27  C   UNL     1       6.400   7.501  -0.019  0.00  0.00    +0.026 A 
ATOM     28  C   UNL     1       7.603   8.179  -0.027  0.00  0.00    +0.034 A 
ATOM     29  C   UNL     1       7.620   9.562  -0.019  0.00  0.00    +0.128 A 
ATOM     30  C   UNL     1       6.434  10.271  -0.004  0.00  0.00    +0.054 A 
ATOM     31  C   UNL     1       5.226   9.599  -0.002  0.00  0.00    +0.064 A 
ATOM     32 CL   UNL     1       3.736  10.490   0.009  0.00  0.00    -0.082 Cl
BRANCH  29  33
ATOM     33  N   UNL     1       8.912  10.284  -0.028  0.00  0.00    +0.056 N 
ATOM     34  O   UNL     1       9.958   9.661  -0.042  0.00  0.00    -0.126 OA
ATOM     35  O   UNL     1       8.929  11.502  -0.022  0.00  0.00    -0.126 OA
ENDBRANCH  29  33
ENDBRANCH  24  26
ENDBRANCH  23  24
ENDBRANCH  22  23
ENDBRANCH  19  22
ENDBRANCH   1  19
TORSDOF 10
