REMARK  Name = ZINC37311150
REMARK  9 active torsions:
REMARK  status: ('A' for Active; 'I' for Inactive)
REMARK    1  A    between atoms: C_1  and  C_2
REMARK    2  A    between atoms: C_2  and  N_3
REMARK    3  A    between atoms: N_3  and  C_4
REMARK    4  A    between atoms: N_3  and  C_10
REMARK    5  A    between atoms: C_10  and  C_12
REMARK    6  A    between atoms: C_10  and  C_14
REMARK    7  A    between atoms: C_12  and  N_13
REMARK    8  A    between atoms: C_19  and  O_20
REMARK    9  A    between atoms: O_20  and  C_21
REMARK                            x       y       z     vdW  Elec       q    Type
REMARK                         _______ _______ _______ _____ _____    ______ ____
ROOT
ATOM      1  C   UNL     1      -0.118  -1.220  -2.555  0.00  0.00    +0.090 C 
ENDROOT
BRANCH   1   2
ATOM      2  C   UNL     1      -0.894  -0.302  -3.465  0.00  0.00    +0.014 A 
ATOM      3  C   UNL     1      -1.297   0.940  -3.013  0.00  0.00    +0.024 A 
ATOM      4  C   UNL     1      -2.010   1.782  -3.847  0.00  0.00    +0.018 A 
ATOM      5  C   UNL     1      -2.321   1.383  -5.135  0.00  0.00    +0.019 A 
ATOM      6  C   UNL     1      -1.920   0.142  -5.590  0.00  0.00    +0.047 A 
ATOM      7  C   UNL     1      -1.200  -0.702  -4.757  0.00  0.00    +0.125 A 
ATOM      8 BR   UNL     1      -2.561   3.481  -3.227  0.00  0.00    -0.050 Br
BRANCH   7   9
ATOM      9  O   UNL     1      -0.801  -1.922  -5.205  0.00  0.00    -0.495 OA
ATOM     10  C   UNL     1      -1.151  -2.267  -6.546  0.00  0.00    +0.277 C 
ENDBRANCH   7   9
ENDBRANCH   1   2
BRANCH   1  11
ATOM     11  N   UNL     1       0.361  -0.466  -1.394  0.00  0.00    -0.325 N 
BRANCH  11  12
ATOM     12  C   UNL     1      -0.552   0.039  -0.465  0.00  0.00    +0.030 A 
ATOM     13  C   UNL     1      -1.915  -0.012  -0.729  0.00  0.00    +0.023 A 
ATOM     14  C   UNL     1      -2.814   0.487   0.193  0.00  0.00    +0.002 A 
ATOM     15  C   UNL     1      -2.360   1.037   1.377  0.00  0.00    +0.000 A 
ATOM     16  C   UNL     1      -1.004   1.090   1.643  0.00  0.00    +0.002 A 
ATOM     17  C   UNL     1      -0.099   0.587   0.729  0.00  0.00    +0.023 A 
ENDBRANCH  11  12
BRANCH  11  19
ATOM     18  C   UNL     1       2.363  -1.312  -0.274  0.00  0.00    +0.024 C 
ATOM     19  C   UNL     1       1.796  -0.240  -1.208  0.00  0.00    +0.102 C 
ENDBRANCH  11  19
ENDBRANCH   1  11
BRANCH   1  20
ATOM     20  C   UNL     1      -1.024  -2.359  -2.086  0.00  0.00    -0.059 C 
BRANCH  20  21
ATOM     21  N   UNL     1      -0.263  -3.260  -1.210  0.00  0.00    +0.380 N 
ATOM     22  H   UNL     1      -0.861  -4.012  -0.900  0.00  0.00    -0.090 HD
ATOM     23  H   UNL     1       0.521  -3.642  -1.718  0.00  0.00    -0.090 HD
ATOM     24  H   UNL     1       0.074  -2.746  -0.409  0.00  0.00    -0.090 HD
ENDBRANCH  20  21
ENDBRANCH   1  20
TORSDOF 7
