REMARK  Name = ZINC49533956
REMARK  5 active torsions:
REMARK  status: ('A' for Active; 'I' for Inactive)
REMARK    1  A    between atoms: C_1  and  C_2
REMARK    2  A    between atoms: C_3  and  C_8
REMARK    3  A    between atoms: C_5  and  C_7
REMARK    4  A    between atoms: C_8  and  C_10
REMARK    5  A    between atoms: C_8  and  N_11
REMARK                            x       y       z     vdW  Elec       q    Type
REMARK                         _______ _______ _______ _____ _____    ______ ____
ROOT
ATOM      1  C   UNL     1      -0.008  -0.215  -2.583  0.00  0.00    +0.120 C 
ATOM      2  C   UNL     1       1.384  -0.381  -3.194  0.00  0.00    +0.034 C 
ENDROOT
BRANCH   1   5
ATOM      3  C   UNL     1      -0.018   1.503   0.010  0.00  0.00    +0.066 C 
ATOM      4  C   UNL     1       0.002  -0.004   0.002  0.00  0.00    +0.051 A 
ATOM      5  C   UNL     1       0.006  -0.708  -1.159  0.00  0.00    +0.033 A 
ATOM      6  S   UNL     1       0.032  -2.379  -0.531  0.00  0.00    -0.075 S 
ATOM      7  C   UNL     1       0.036  -2.009   1.111  0.00  0.00    +0.076 A 
ATOM      8  N   UNL     1       0.023  -0.699   1.122  0.00  0.00    -0.249 NA
ATOM      9  C   UNL     1       0.055  -2.955   2.284  0.00  0.00    +0.073 C 
ENDBRANCH   1   5
BRANCH   1  10
ATOM     10  N   UNL     1      -0.978  -0.991  -3.359  0.00  0.00    -0.227 N 
ATOM     11  C   UNL     1      -0.937  -2.324  -3.541  0.00  0.00    +0.247 C 
ATOM     12  O   UNL     1      -0.097  -3.076  -3.092  0.00  0.00    -0.270 OA
ATOM     13  C   UNL     1      -2.091  -2.716  -4.380  0.00  0.00    +0.073 C 
ATOM     14  C   UNL     1      -2.768  -1.591  -4.660  0.00  0.00    +0.073 C 
ATOM     15  C   UNL     1      -2.049  -0.482  -3.994  0.00  0.00    +0.247 C 
ATOM     16  O   UNL     1      -2.370   0.688  -4.019  0.00  0.00    -0.270 OA
ENDBRANCH   1  10
TORSDOF 2
