REMARK  Name = ZINC66243478
REMARK  8 active torsions:
REMARK  status: ('A' for Active; 'I' for Inactive)
REMARK    1  A    between atoms: C_1  and  C_2
REMARK    2  A    between atoms: C_11  and  C_14
REMARK    3  A    between atoms: C_14  and  N_15
REMARK    4  A    between atoms: N_18  and  C_19
REMARK    5  A    between atoms: C_19  and  C_20
REMARK    6  A    between atoms: C_20  and  C_21
REMARK    7  A    between atoms: C_24  and  O_27
REMARK    8  A    between atoms: O_27  and  C_28
REMARK                            x       y       z     vdW  Elec       q    Type
REMARK                         _______ _______ _______ _____ _____    ______ ____
ROOT
ATOM      1  N   UNL     1      -2.304  -7.683   4.228  0.00  0.00    -0.354 N 
ATOM      2  C   UNL     1      -2.672  -8.778   4.973  0.00  0.00    +0.169 C 
ATOM      3  N   UNL     1      -3.204  -8.616   6.152  0.00  0.00    -0.371 N 
ATOM      4  N   UNL     1      -2.478 -10.045   4.475  0.00  0.00    -0.357 N 
ATOM      5  H   UNL     1      -1.907  -7.804   3.351  0.00  0.00    +0.163 HD
ATOM      6  H   UNL     1      -3.464  -9.388   6.678  0.00  0.00    +0.159 HD
ATOM      7  H   UNL     1      -2.081 -10.166   3.598  0.00  0.00    +0.162 HD
ATOM      8  H   UNL     1      -3.341  -7.722   6.503  0.00  0.00    +0.159 HD
ENDROOT
BRANCH   1   9
ATOM      9  C   UNL     1      -2.510  -6.333   4.759  0.00  0.00    +0.152 C 
BRANCH   9  20
ATOM     10  C   UNL     1       1.516  -1.759  -2.543  0.00  0.00    +0.007 C 
ATOM     11  C   UNL     1       0.744  -1.592  -1.232  0.00  0.00    -0.011 C 
ATOM     12  C   UNL     1       1.541  -2.221  -0.087  0.00  0.00    +0.022 C 
ATOM     13  C   UNL     1       0.782  -2.021   1.228  0.00  0.00    +0.107 C 
ATOM     14  N   UNL     1      -0.578  -2.556   1.075  0.00  0.00    -0.317 N 
ATOM     15  C   UNL     1      -1.400  -2.086  -0.049  0.00  0.00    +0.107 C 
ATOM     16  C   UNL     1      -0.616  -2.284  -1.350  0.00  0.00    +0.022 C 
ATOM     17  C   UNL     1      -1.078  -3.489   1.976  0.00  0.00    +0.099 A 
ATOM     18  C   UNL     1      -2.408  -3.889   1.888  0.00  0.00    +0.042 A 
ATOM     19  C   UNL     1      -2.892  -4.819   2.790  0.00  0.00    +0.010 A 
ATOM     20  C   UNL     1      -2.026  -5.319   3.755  0.00  0.00    -0.012 A 
ATOM     21  C   UNL     1      -0.719  -4.878   3.784  0.00  0.00    +0.089 A 
ATOM     22  N   UNL     1      -0.283  -3.994   2.906  0.00  0.00    -0.349 N 
ATOM     23  H   UNL     1       0.642  -3.704   2.947  0.00  0.00    +0.167 HD
ENDBRANCH   9  20
ENDBRANCH   1   9
BRANCH   4  24
ATOM     24  C   UNL     1      -2.870 -11.212   5.269  0.00  0.00    +0.120 C 
BRANCH  24  25
ATOM     25  C   UNL     1      -2.549 -12.489   4.491  0.00  0.00    +0.056 C 
BRANCH  25  26
ATOM     26  C   UNL     1      -2.952 -13.690   5.308  0.00  0.00    -0.045 A 
ATOM     27  C   UNL     1      -2.049 -14.265   6.183  0.00  0.00    +0.007 A 
ATOM     28  C   UNL     1      -2.416 -15.366   6.932  0.00  0.00    +0.046 A 
ATOM     29  C   UNL     1      -3.692 -15.894   6.807  0.00  0.00    +0.120 A 
ATOM     30  C   UNL     1      -4.597 -15.315   5.929  0.00  0.00    +0.046 A 
ATOM     31  C   UNL     1      -4.227 -14.211   5.185  0.00  0.00    +0.007 A 
BRANCH  29  32
ATOM     32  O   UNL     1      -4.056 -16.977   7.543  0.00  0.00    -0.495 OA
ATOM     33  C   UNL     1      -5.386 -17.468   7.362  0.00  0.00    +0.277 C 
ENDBRANCH  29  32
ENDBRANCH  25  26
ENDBRANCH  24  25
ENDBRANCH   4  24
TORSDOF 6
