REMARK  Name = ZINC53126279
REMARK  8 active torsions:
REMARK  status: ('A' for Active; 'I' for Inactive)
REMARK    1  A    between atoms: C_1  and  C_2
REMARK    2  A    between atoms: C_7  and  C_9
REMARK    3  A    between atoms: C_7  and  N_11
REMARK    4  A    between atoms: C_9  and  O_10
REMARK    5  A    between atoms: N_11  and  C_12
REMARK    6  A    between atoms: C_12  and  C_14
REMARK    7  A    between atoms: C_12  and  C_15
REMARK    8  A    between atoms: N_20  and  C_21
REMARK                            x       y       z     vdW  Elec       q    Type
REMARK                         _______ _______ _______ _____ _____    ______ ____
ROOT
ATOM      1  N   UNL     1       1.423  -2.466   2.374  0.00  0.00    +0.392 N 
ATOM      2  H   UNL     1       1.122  -3.372   2.047  0.00  0.00    -0.084 HD
ATOM      3  H   UNL     1       2.419  -2.480   2.532  0.00  0.00    -0.084 HD
ENDROOT
BRANCH   1   9
ATOM      4  C   UNL     1       1.941   2.303   1.167  0.00  0.00    +0.007 C 
ATOM      5  C   UNL     1       1.354   0.957   0.739  0.00  0.00    -0.015 C 
ATOM      6  C   UNL     1      -0.166   1.082   0.607  0.00  0.00    +0.003 C 
ATOM      7  C   UNL     1      -0.753  -0.265   0.180  0.00  0.00    -0.001 C 
ATOM      8  C   UNL     1      -0.418  -1.324   1.232  0.00  0.00    -0.010 C 
ATOM      9  C   UNL     1       1.101  -1.449   1.364  0.00  0.00    -0.043 C 
ATOM     10  C   UNL     1       1.689  -0.103   1.791  0.00  0.00    -0.007 C 
BRANCH   9  11
ATOM     11  C   UNL     1       1.698  -1.862   0.017  0.00  0.00    +0.143 C 
BRANCH  11  12
ATOM     12  O   UNL     1       1.229  -3.166  -0.333  0.00  0.00    -0.396 OA
ATOM     13  H   UNL     1       1.626  -3.523  -1.138  0.00  0.00    +0.209 HD
ENDBRANCH  11  12
ENDBRANCH   9  11
ENDBRANCH   1   9
BRANCH   1  14
ATOM     14  C   UNL     1       0.732  -2.145   3.630  0.00  0.00    +0.014 C 
ATOM     15  C   UNL     1      -0.665  -2.769   3.617  0.00  0.00    -0.004 C 
BRANCH  14  16
ATOM     16  C   UNL     1       1.518  -2.697   4.791  0.00  0.00    +0.206 C 
ATOM     17  O   UNL     1       2.551  -3.298   4.592  0.00  0.00    -0.277 OA
ATOM     18  N   UNL     1       1.071  -2.522   6.051  0.00  0.00    -0.242 N 
ATOM     19  C   UNL     1       1.774  -3.015   7.089  0.00  0.00    +0.306 C 
ATOM     20  O   UNL     1       2.811  -3.619   6.890  0.00  0.00    -0.252 OA
ATOM     21  N   UNL     1       1.328  -2.841   8.349  0.00  0.00    -0.302 N 
ATOM     22  C   UNL     1       2.092  -3.377   9.478  0.00  0.00    +0.129 C 
ATOM     23  H   UNL     1       0.244  -2.041   6.210  0.00  0.00    +0.159 HD
ATOM     24  H   UNL     1       0.501  -2.359   8.508  0.00  0.00    +0.150 HD
ENDBRANCH  14  16
ENDBRANCH   1  14
TORSDOF 5
