REMARK  Name = ZINC58162128
REMARK  13 active torsions:
REMARK  status: ('A' for Active; 'I' for Inactive)
REMARK    1  A    between atoms: C_1  and  C_2
REMARK    2  A    between atoms: C_2  and  C_3
REMARK    3  A    between atoms: C_3  and  C_4
REMARK    4  A    between atoms: C_3  and  C_6
REMARK    5  A    between atoms: C_3  and  N_23
REMARK    6  A    between atoms: C_4  and  C_5
REMARK    7  A    between atoms: C_6  and  N_7
REMARK    8  A    between atoms: N_10  and  C_11
REMARK    9  A    between atoms: C_11  and  C_12
REMARK   10  A    between atoms: C_12  and  C_13
REMARK   11  A    between atoms: N_15  and  C_16
REMARK   12  A    between atoms: N_23  and  C_24
REMARK   13  A    between atoms: N_23  and  C_25
REMARK                            x       y       z     vdW  Elec       q    Type
REMARK                         _______ _______ _______ _____ _____    ______ ____
ROOT
ATOM      1  N   UNL     1       1.635  -2.432  -2.232  0.00  0.00    -0.301 N 
ATOM      2  C   UNL     1       1.635  -3.765  -2.433  0.00  0.00    +0.300 C 
ATOM      3  O   UNL     1       0.926  -4.482  -1.754  0.00  0.00    -0.253 OA
ATOM      4  N   UNL     1       2.421  -4.302  -3.387  0.00  0.00    -0.299 N 
ATOM      5  H   UNL     1       2.200  -1.860  -2.773  0.00  0.00    +0.150 HD
ATOM      6  H   UNL     1       2.987  -3.730  -3.928  0.00  0.00    +0.150 HD
ENDROOT
BRANCH   1   7
ATOM      7  C   UNL     1       0.780  -1.848  -1.195  0.00  0.00    +0.094 C 
BRANCH   7   8
ATOM      8  C   UNL     1       0.829  -0.322  -1.293  0.00  0.00    -0.051 C 
BRANCH   8   9
ATOM      9  N   UNL     1       0.196   0.108  -2.547  0.00  0.00    +0.381 N 
ATOM     10  C   UNL     1       0.145   1.575  -2.592  0.00  0.00    -0.096 C 
ATOM     11  C   UNL     1       0.979  -0.390  -3.687  0.00  0.00    -0.096 C 
ATOM     12  H   UNL     1      -0.741  -0.263  -2.595  0.00  0.00    -0.082 HD
ENDBRANCH   8   9
BRANCH   8  14
ATOM     13  C   UNL     1      -1.385  -0.148  -0.150  0.00  0.00    +0.002 C 
ATOM     14  C   UNL     1       0.080   0.290  -0.108  0.00  0.00    -0.014 C 
ENDBRANCH   8  14
BRANCH   8  15
ATOM     15  C   UNL     1       2.286   0.144  -1.272  0.00  0.00    -0.014 C 
ATOM     16  C   UNL     1       2.946  -0.304   0.034  0.00  0.00    +0.002 C 
ENDBRANCH   8  15
ENDBRANCH   7   8
ENDBRANCH   1   7
BRANCH   4  17
ATOM     17  C   UNL     1       2.421  -5.751  -3.605  0.00  0.00    +0.115 C 
BRANCH  17  18
ATOM     18  C   UNL     1       3.393  -6.096  -4.736  0.00  0.00    +0.115 C 
BRANCH  18  19
ATOM     19  C   UNL     1       3.393  -7.586  -4.961  0.00  0.00    +0.219 C 
ATOM     20  O   UNL     1       2.686  -8.302  -4.284  0.00  0.00    -0.275 OA
ATOM     21  N   UNL     1       4.180  -8.123  -5.915  0.00  0.00    -0.285 N 
ATOM     22  H   UNL     1       4.795  -7.560  -6.410  0.00  0.00    +0.155 HD
BRANCH  21  23
ATOM     23  C   UNL     1       4.107  -9.493  -6.191  0.00  0.00    +0.033 A 
ATOM     24  C   UNL     1       5.249 -10.187  -6.571  0.00  0.00    +0.024 A 
ATOM     25  C   UNL     1       5.175 -11.539  -6.843  0.00  0.00    +0.017 A 
ATOM     26  C   UNL     1       3.965 -12.202  -6.737  0.00  0.00    +0.018 A 
ATOM     27  C   UNL     1       2.826 -11.513  -6.359  0.00  0.00    +0.017 A 
ATOM     28  C   UNL     1       2.896 -10.162  -6.081  0.00  0.00    +0.024 A 
ATOM     29 BR   UNL     1       3.868 -14.053  -7.111  0.00  0.00    -0.050 Br
ENDBRANCH  21  23
ENDBRANCH  18  19
ENDBRANCH  17  18
ENDBRANCH   4  17
TORSDOF 9
