REMARK  Name = ZINC21222688
REMARK  10 active torsions:
REMARK  status: ('A' for Active; 'I' for Inactive)
REMARK    1  A    between atoms: C_1  and  C_2
REMARK    2  A    between atoms: C_2  and  C_3
REMARK    3  A    between atoms: C_2  and  O_4
REMARK    4  A    between atoms: O_4  and  C_5
REMARK    5  A    between atoms: C_8  and  C_13
REMARK    6  A    between atoms: C_10  and  O_11
REMARK    7  A    between atoms: O_11  and  C_12
REMARK    8  A    between atoms: C_18  and  C_24
REMARK    9  A    between atoms: C_27  and  O_31
REMARK   10  A    between atoms: O_31  and  C_32
REMARK                            x       y       z     vdW  Elec       q    Type
REMARK                         _______ _______ _______ _____ _____    ______ ____
ROOT
ATOM      1  C   UNL     1       4.720   4.479  -0.026  0.00  0.00    +0.032 C 
ATOM      2  C   UNL     1       5.616   4.049   1.137  0.00  0.00    +0.059 C 
ATOM      3  C   UNL     1       6.907   4.829   1.098  0.00  0.00    +0.018 C 
ATOM      4  C   UNL     1       7.423   5.253  -0.075  0.00  0.00    +0.020 C 
ATOM      5  C   UNL     1       8.721   6.025  -0.090  0.00  0.00    +0.063 C 
ATOM      6  C   UNL     1       8.798   6.913   1.153  0.00  0.00    +0.109 C 
ATOM      7  C   UNL     1       8.452   6.092   2.368  0.00  0.00    +0.218 C 
ATOM      8  O   UNL     1       8.990   6.326   3.429  0.00  0.00    -0.275 OA
ATOM      9  N   UNL     1       7.549   5.100   2.279  0.00  0.00    -0.289 N 
ATOM     10  C   UNL     1       6.778   4.991  -1.295  0.00  0.00    +0.162 C 
ATOM     11  O   UNL     1       7.281   5.377  -2.332  0.00  0.00    -0.292 OA
ATOM     12  C   UNL     1       5.474   4.242  -1.338  0.00  0.00    +0.088 C 
ATOM     13  H   UNL     1       7.329   4.501   3.175  0.00  0.00    +0.155 HD
ENDROOT
BRANCH   5  14
ATOM     14  C   UNL     1       9.880   5.061  -0.092  0.00  0.00    -0.038 A 
ATOM     15  C   UNL     1      10.785   5.074  -1.137  0.00  0.00    +0.008 A 
ATOM     16  C   UNL     1      11.848   4.192  -1.142  0.00  0.00    +0.047 A 
ATOM     17  C   UNL     1      12.008   3.293  -0.097  0.00  0.00    +0.134 A 
ATOM     18  C   UNL     1      11.098   3.283   0.950  0.00  0.00    +0.060 A 
ATOM     19  C   UNL     1      10.038   4.171   0.953  0.00  0.00    +0.023 A 
ATOM     20 BR   UNL     1      11.310   2.059   2.377  0.00  0.00    -0.047 Br
BRANCH  17  21
ATOM     21  O   UNL     1      13.053   2.425  -0.100  0.00  0.00    -0.494 OA
ATOM     22  C   UNL     1      13.950   2.492  -1.210  0.00  0.00    +0.277 C 
ENDBRANCH  17  21
ENDBRANCH   5  14
BRANCH   1  26
ATOM     23  C   UNL     1       1.125   2.163   0.001  0.00  0.00    +0.162 A 
ATOM     24  C   UNL     1       2.355   1.537  -0.122  0.00  0.00    +0.050 A 
ATOM     25  C   UNL     1       3.515   2.289  -0.137  0.00  0.00    +0.008 A 
ATOM     26  C   UNL     1       3.452   3.665  -0.016  0.00  0.00    -0.040 A 
ATOM     27  C   UNL     1       2.228   4.295   0.113  0.00  0.00    +0.053 A 
ATOM     28  C   UNL     1       1.061   3.548   0.122  0.00  0.00    +0.162 A 
BRANCH  28  29
ATOM     29  O   UNL     1      -0.143   4.166   0.250  0.00  0.00    -0.491 OA
ATOM     30  C   UNL     1      -0.132   5.590   0.370  0.00  0.00    +0.277 C 
ENDBRANCH  28  29
BRANCH  23  31
ATOM     31  O   UNL     1      -0.017   1.425   0.010  0.00  0.00    -0.486 OA
BRANCH  31  33
ATOM     32  C   UNL     1       0.444  -0.694   1.078  0.00  0.00    +0.051 C 
ATOM     33  C   UNL     1       0.114   0.023  -0.233  0.00  0.00    +0.167 C 
ATOM     34  C   UNL     1      -1.200  -0.523  -0.796  0.00  0.00    +0.051 C 
ENDBRANCH  31  33
ENDBRANCH  23  31
ENDBRANCH   1  26
TORSDOF 6
