REMARK  Name = ZINC18084653
REMARK  11 active torsions:
REMARK  status: ('A' for Active; 'I' for Inactive)
REMARK    1  A    between atoms: C_4  and  C_8
REMARK    2  A    between atoms: C_5  and  O_7
REMARK    3  A    between atoms: N_9  and  C_10
REMARK    4  A    between atoms: C_10  and  C_11
REMARK    5  A    between atoms: C_11  and  C_12
REMARK    6  A    between atoms: C_12  and  C_13
REMARK    7  A    between atoms: C_13  and  C_14
REMARK    8  A    between atoms: C_14  and  C_15
REMARK    9  A    between atoms: C_15  and  N_16
REMARK   10  A    between atoms: C_17  and  C_18
REMARK   11  A    between atoms: C_19  and  O_25
REMARK                            x       y       z     vdW  Elec       q    Type
REMARK                         _______ _______ _______ _____ _____    ______ ____
ROOT
ATOM      1  C   UNL     1       6.099  -4.639   1.671  0.00  0.00    +0.002 C 
ENDROOT
BRANCH   1   2
ATOM      2  C   UNL     1       4.736  -3.948   1.598  0.00  0.00    +0.021 C 
BRANCH   2   3
ATOM      3  C   UNL     1       4.496  -3.441   0.174  0.00  0.00    +0.112 C 
BRANCH   3   5
ATOM      4  C   UNL     1       3.121  -1.511  -0.144  0.00  0.00    +0.089 C 
ATOM      5  N   UNL     1       3.191  -2.780   0.105  0.00  0.00    -0.390 N 
ATOM      6  H   UNL     1       2.379  -3.292   0.245  0.00  0.00    +0.159 HD
BRANCH   4  10
ATOM      7  C   UNL     1      -0.647   0.450  -0.136  0.00  0.00    +0.019 A 
ATOM      8  C   UNL     1       0.491   1.139  -0.521  0.00  0.00    +0.019 A 
ATOM      9  C   UNL     1       1.718   0.508  -0.526  0.00  0.00    +0.028 A 
ATOM     10  C   UNL     1       1.813  -0.831  -0.141  0.00  0.00    +0.033 A 
ATOM     11  C   UNL     1       0.659  -1.524   0.249  0.00  0.00    +0.125 A 
ATOM     12  C   UNL     1      -0.566  -0.875   0.248  0.00  0.00    +0.047 A 
ATOM     13 BR   UNL     1       0.362   2.952  -1.044  0.00  0.00    -0.050 Br
BRANCH  11  14
ATOM     14  O   UNL     1       0.740  -2.825   0.625  0.00  0.00    -0.506 OA
ATOM     15  H   UNL     1       0.895  -2.953   1.571  0.00  0.00    +0.292 HD
ENDBRANCH  11  14
ENDBRANCH   4  10
ENDBRANCH   3   5
ENDBRANCH   2   3
ENDBRANCH   1   2
BRANCH   1  16
ATOM     16  C   UNL     1       6.338  -5.146   3.094  0.00  0.00    +0.002 C 
BRANCH  16  17
ATOM     17  C   UNL     1       7.701  -5.837   3.167  0.00  0.00    +0.021 C 
BRANCH  17  18
ATOM     18  C   UNL     1       7.941  -6.343   4.590  0.00  0.00    +0.112 C 
BRANCH  18  19
ATOM     19  N   UNL     1       9.246  -7.005   4.660  0.00  0.00    -0.390 N 
ATOM     20  C   UNL     1      10.188  -6.503   5.392  0.00  0.00    +0.089 C 
ATOM     21  H   UNL     1       9.405  -7.820   4.157  0.00  0.00    +0.159 HD
BRANCH  20  22
ATOM     22  C   UNL     1      11.521  -7.133   5.413  0.00  0.00    +0.033 A 
ATOM     23  C   UNL     1      11.803  -8.213   4.564  0.00  0.00    +0.125 A 
ATOM     24  C   UNL     1      13.059  -8.798   4.592  0.00  0.00    +0.047 A 
ATOM     25  C   UNL     1      14.028  -8.320   5.452  0.00  0.00    +0.019 A 
ATOM     26  C   UNL     1      13.753  -7.253   6.293  0.00  0.00    +0.019 A 
ATOM     27  C   UNL     1      12.511  -6.655   6.274  0.00  0.00    +0.028 A 
ATOM     28 BR   UNL     1      15.090  -6.610   7.466  0.00  0.00    -0.050 Br
BRANCH  23  29
ATOM     29  O   UNL     1      10.851  -8.683   3.719  0.00  0.00    -0.506 OA
ATOM     30  H   UNL     1      10.850  -8.257   2.851  0.00  0.00    +0.292 HD
ENDBRANCH  23  29
ENDBRANCH  20  22
ENDBRANCH  18  19
ENDBRANCH  17  18
ENDBRANCH  16  17
ENDBRANCH   1  16
TORSDOF 11
