REMARK  Name = ZINC40679405
REMARK  8 active torsions:
REMARK  status: ('A' for Active; 'I' for Inactive)
REMARK    1  A    between atoms: C_1  and  C_2
REMARK    2  A    between atoms: C_2  and  N_3
REMARK    3  A    between atoms: N_3  and  C_4
REMARK    4  A    between atoms: C_11  and  N_25
REMARK    5  A    between atoms: C_12  and  N_16
REMARK    6  A    between atoms: N_16  and  C_17
REMARK    7  A    between atoms: C_21  and  O_23
REMARK    8  A    between atoms: O_23  and  C_24
REMARK                            x       y       z     vdW  Elec       q    Type
REMARK                         _______ _______ _______ _____ _____    ______ ____
ROOT
ATOM      1  N   UNL     1       1.059   0.782   2.222  0.00  0.00    -0.284 N 
ATOM      2  C   UNL     1       2.367   0.342   2.053  0.00  0.00    +0.151 A 
ATOM      3  C   UNL     1       2.845  -0.754   2.775  0.00  0.00    +0.104 A 
ATOM      4  C   UNL     1       4.167  -1.153   2.568  0.00  0.00    +0.126 A 
ATOM      5  N   UNL     1       4.915  -0.480   1.697  0.00  0.00    -0.333 N 
ATOM      6  C   UNL     1       4.425   0.549   1.036  0.00  0.00    +0.200 A 
ATOM      7  N   UNL     1       3.182   0.955   1.198  0.00  0.00    -0.220 NA
ATOM      8  H   UNL     1       5.835  -0.751   1.547  0.00  0.00    +0.168 HD
ENDROOT
BRANCH   1   9
ATOM      9  C   UNL     1       0.774   1.789   3.147  0.00  0.00    +0.035 A 
ATOM     10  C   UNL     1      -0.527   2.255   3.291  0.00  0.00    +0.023 A 
ATOM     11  C   UNL     1      -0.805   3.251   4.207  0.00  0.00    +0.002 A 
ATOM     12  C   UNL     1       0.210   3.784   4.980  0.00  0.00    +0.000 A 
ATOM     13  C   UNL     1       1.506   3.323   4.839  0.00  0.00    +0.002 A 
ATOM     14  C   UNL     1       1.790   2.324   3.929  0.00  0.00    +0.023 A 
ENDBRANCH   1   9
BRANCH   3  15
ATOM     15  N   UNL     1       2.020  -1.434   3.684  0.00  0.00    -0.353 N 
ATOM     16  H   UNL     1       1.074  -1.225   3.731  0.00  0.00    +0.143 HD
ATOM     17  H   UNL     1       2.396  -2.114   4.266  0.00  0.00    +0.143 HD
ENDBRANCH   3  15
BRANCH   1  19
ATOM     18  C   UNL     1      -0.193   0.980   0.130  0.00  0.00    +0.025 C 
ATOM     19  C   UNL     1      -0.021   0.189   1.429  0.00  0.00    +0.109 C 
ENDBRANCH   1  19
BRANCH   4  20
ATOM     20  N   UNL     1       4.693  -2.238   3.261  0.00  0.00    -0.299 N 
ATOM     21  H   UNL     1       4.119  -2.777   3.827  0.00  0.00    +0.154 HD
BRANCH  20  22
ATOM     22  C   UNL     1       6.050  -2.551   3.143  0.00  0.00    +0.036 A 
ATOM     23  C   UNL     1       6.996  -1.534   3.085  0.00  0.00    +0.023 A 
ATOM     24  C   UNL     1       8.337  -1.844   2.967  0.00  0.00    +0.005 A 
ATOM     25  C   UNL     1       8.742  -3.164   2.908  0.00  0.00    +0.046 A 
ATOM     26  C   UNL     1       7.802  -4.183   2.965  0.00  0.00    +0.122 A 
ATOM     27  C   UNL     1       6.455  -3.877   3.089  0.00  0.00    +0.069 A 
BRANCH  26  28
ATOM     28  O   UNL     1       8.201  -5.481   2.906  0.00  0.00    -0.495 OA
ATOM     29  C   UNL     1       9.604  -5.723   2.784  0.00  0.00    +0.277 C 
ENDBRANCH  26  28
ENDBRANCH  20  22
ENDBRANCH   4  20
TORSDOF 6
