REMARK  Name = ZINC35806811
REMARK  6 active torsions:
REMARK  status: ('A' for Active; 'I' for Inactive)
REMARK    1  A    between atoms: C_1  and  C_2
REMARK    2  A    between atoms: C_2  and  O_3
REMARK    3  A    between atoms: O_3  and  C_4
REMARK    4  A    between atoms: C_9  and  C_10
REMARK    5  A    between atoms: C_10  and  C_12
REMARK    6  A    between atoms: C_35  and  C_40
REMARK                            x       y       z     vdW  Elec       q    Type
REMARK                         _______ _______ _______ _____ _____    ______ ____
ROOT
ATOM      1  C   UNL     1      -5.344  -2.135   0.042  0.00  0.00    +0.066 C 
ATOM      2  C   UNL     1      -5.865  -2.330  -1.389  0.00  0.00    -0.055 C 
ATOM      3  C   UNL     1      -6.046  -3.823  -1.698  0.00  0.00    -0.016 C 
ATOM      4  C   UNL     1      -7.511  -3.948  -2.178  0.00  0.00    -0.020 C 
ATOM      5  C   UNL     1      -8.202  -2.771  -1.442  0.00  0.00    -0.076 C 
ATOM      6  N   UNL     1      -7.195  -1.688  -1.484  0.00  0.00    +0.395 N 
ATOM      7  C   UNL     1      -7.343  -0.786  -0.336  0.00  0.00    +0.060 C 
ATOM      8  C   UNL     1      -6.375  -1.254   0.748  0.00  0.00    +0.085 C 
ATOM      9  C   UNL     1      -7.068  -2.060   1.819  0.00  0.00    -0.011 A 
ATOM     10  C   UNL     1      -7.698  -3.284   1.828  0.00  0.00    +0.006 A 
ATOM     11  C   UNL     1      -8.273  -3.763   2.992  0.00  0.00    +0.000 A 
ATOM     12  C   UNL     1      -8.191  -3.021   4.156  0.00  0.00    +0.002 A 
ATOM     13  C   UNL     1      -7.527  -1.812   4.162  0.00  0.00    +0.023 A 
ATOM     14  C   UNL     1      -6.943  -1.327   2.994  0.00  0.00    +0.038 A 
ATOM     15  N   UNL     1      -6.179  -0.182   2.767  0.00  0.00    -0.285 N 
ATOM     16  C   UNL     1      -5.782  -0.084   1.479  0.00  0.00    +0.228 C 
ATOM     17  O   UNL     1      -5.103   0.822   1.042  0.00  0.00    -0.275 OA
ATOM     18  C   UNL     1      -7.027   0.626  -0.777  0.00  0.00    -0.026 A 
ATOM     19  C   UNL     1      -5.936   1.194  -1.396  0.00  0.00    +0.004 A 
ATOM     20  C   UNL     1      -5.926   2.550  -1.674  0.00  0.00    +0.001 A 
ATOM     21  C   UNL     1      -7.019   3.327  -1.338  0.00  0.00    +0.005 A 
ATOM     22  C   UNL     1      -8.122   2.757  -0.735  0.00  0.00    -0.029 A 
ATOM     23  C   UNL     1      -8.141   1.392  -0.456  0.00  0.00    +0.039 A 
ATOM     24  N   UNL     1      -9.132   0.584   0.101  0.00  0.00    -0.286 N 
ATOM     25  C   UNL     1      -8.754  -0.709   0.172  0.00  0.00    +0.212 C 
ATOM     26  O   UNL     1      -9.452  -1.613   0.583  0.00  0.00    -0.277 OA
ATOM     27  C   UNL     1      -9.307   3.618  -0.380  0.00  0.00    +0.045 C 
ATOM     28  H   UNL     1      -5.958   0.470   3.449  0.00  0.00    +0.155 HD
ATOM     29  H   UNL     1      -9.995   0.905   0.406  0.00  0.00    +0.155 HD
ATOM     30  H   UNL     1      -7.271  -1.166  -2.356  0.00  0.00    -0.079 HD
ENDROOT
BRANCH   1  31
ATOM     31  C   UNL     1      -3.969  -1.533   0.032  0.00  0.00    +0.169 C 
ATOM     32  O   UNL     1      -3.610  -0.857  -0.908  0.00  0.00    -0.292 OA
BRANCH  31  38
ATOM     33  C   UNL     1      -1.771  -1.203   1.156  0.00  0.00    +0.131 A 
ATOM     34  C   UNL     1      -0.923  -1.423   2.231  0.00  0.00    +0.046 A 
ATOM     35  C   UNL     1      -1.341  -2.195   3.297  0.00  0.00    +0.004 A 
ATOM     36  C   UNL     1      -2.609  -2.756   3.303  0.00  0.00    +0.001 A 
ATOM     37  C   UNL     1      -3.466  -2.549   2.246  0.00  0.00    +0.015 A 
ATOM     38  C   UNL     1      -3.058  -1.764   1.161  0.00  0.00    +0.059 A 
BRANCH  33  39
ATOM     39  O   UNL     1      -1.361  -0.445   0.109  0.00  0.00    -0.492 OA
BRANCH  39  41
ATOM     40  C   UNL     1       0.242   0.912  -1.086  0.00  0.00    +0.048 C 
ATOM     41  C   UNL     1      -0.039   0.092   0.175  0.00  0.00    +0.226 C 
ENDBRANCH  39  41
ENDBRANCH  33  39
ENDBRANCH  31  38
ENDBRANCH   1  31
TORSDOF 4
