REMARK  Name = ZINC62617409
REMARK  4 active torsions:
REMARK  status: ('A' for Active; 'I' for Inactive)
REMARK    1  A    between atoms: C_1  and  C_2
REMARK    2  A    between atoms: C_5  and  S_9
REMARK    3  A    between atoms: C_7  and  C_8
REMARK    4  A    between atoms: S_9  and  N_12
REMARK                            x       y       z     vdW  Elec       q    Type
REMARK                         _______ _______ _______ _____ _____    ______ ____
ROOT
ATOM      1  N   UNL     1       1.651  -4.999  -0.034  0.00  0.00    -0.172 NA
ATOM      2  C   UNL     1       2.380  -5.204  -1.297  0.00  0.00    +0.114 C 
ATOM      3  C   UNL     1       3.502  -4.169  -1.364  0.00  0.00    +0.052 C 
ATOM      4  C   UNL     1       4.267  -4.123  -0.067  0.00  0.00    -0.038 A 
ATOM      5  C   UNL     1       5.544  -3.575  -0.093  0.00  0.00    +0.053 A 
ATOM      6  C   UNL     1       6.300  -3.490   1.063  0.00  0.00    +0.162 A 
ATOM      7  C   UNL     1       5.775  -3.956   2.263  0.00  0.00    +0.162 A 
ATOM      8  C   UNL     1       4.505  -4.506   2.284  0.00  0.00    +0.054 A 
ATOM      9  C   UNL     1       3.753  -4.594   1.121  0.00  0.00    -0.025 A 
ATOM     10  C   UNL     1       2.389  -5.222   1.213  0.00  0.00    +0.145 C 
ATOM     11  O   UNL     1       6.492  -3.873   3.416  0.00  0.00    -0.485 OA
ATOM     12  C   UNL     1       7.902  -3.659   3.284  0.00  0.00    +0.270 C 
ATOM     13  C   UNL     1       8.123  -2.540   2.257  0.00  0.00    +0.270 C 
ATOM     14  O   UNL     1       7.550  -2.953   1.012  0.00  0.00    -0.485 OA
ENDROOT
BRANCH   1  15
ATOM     15  S   UNL     1       0.063  -4.530  -0.023  0.00  0.00    +0.061 S 
ATOM     16  O   UNL     1      -0.476  -4.950   1.223  0.00  0.00    -0.153 OA
ATOM     17  O   UNL     1      -0.490  -4.937  -1.267  0.00  0.00    -0.153 OA
BRANCH  15  22
ATOM     18  C   UNL     1      -0.018   1.503   0.010  0.00  0.00    +0.044 C 
ATOM     19  C   UNL     1       0.002  -0.004   0.002  0.00  0.00    -0.047 A 
ATOM     20  C   UNL     1       0.006  -0.689  -1.199  0.00  0.00    +0.005 A 
ATOM     21  C   UNL     1       0.025  -2.071  -1.207  0.00  0.00    +0.029 A 
ATOM     22  C   UNL     1       0.040  -2.768  -0.013  0.00  0.00    +0.106 A 
ATOM     23  C   UNL     1       0.037  -2.084   1.188  0.00  0.00    +0.032 A 
ATOM     24  C   UNL     1       0.023  -0.702   1.195  0.00  0.00    -0.046 A 
ATOM     25  C   UNL     1       0.025   0.045   2.504  0.00  0.00    +0.044 C 
ENDBRANCH  15  22
ENDBRANCH   1  15
TORSDOF 2
