REMARK  Name = ZINC08970900
REMARK  5 active torsions:
REMARK  status: ('A' for Active; 'I' for Inactive)
REMARK    1  A    between atoms: C_4  and  C_7
REMARK    2  A    between atoms: C_7  and  C_9
REMARK    3  A    between atoms: C_7  and  N_22
REMARK    4  A    between atoms: N_11  and  C_12
REMARK    5  A    between atoms: C_23  and  C_25
REMARK                            x       y       z     vdW  Elec       q    Type
REMARK                         _______ _______ _______ _____ _____    ______ ____
ROOT
ATOM      1  C   UNL     1      -6.066  -0.864   0.247  0.00  0.00    +0.190 C 
ENDROOT
BRANCH   1   5
ATOM      2  C   UNL     1      -5.930  -3.342   3.724  0.00  0.00    +0.000 A 
ATOM      3  C   UNL     1      -5.676  -3.885   2.478  0.00  0.00    +0.000 A 
ATOM      4  C   UNL     1      -5.720  -3.083   1.353  0.00  0.00    +0.006 A 
ATOM      5  C   UNL     1      -6.018  -1.739   1.473  0.00  0.00    -0.018 A 
ATOM      6  C   UNL     1      -6.266  -1.195   2.720  0.00  0.00    +0.006 A 
ATOM      7  C   UNL     1      -6.227  -1.998   3.844  0.00  0.00    +0.000 A 
ENDBRANCH   1   5
BRANCH   1   8
ATOM      8  C   UNL     1      -4.777  -0.091   0.131  0.00  0.00    +0.242 C 
ATOM      9  O   UNL     1      -4.795   1.122   0.139  0.00  0.00    -0.273 OA
ATOM     10  N   UNL     1      -3.605  -0.747   0.018  0.00  0.00    -0.284 N 
ATOM     11  H   UNL     1      -3.596  -1.714  -0.056  0.00  0.00    +0.155 HD
BRANCH  10  12
ATOM     12  C   UNL     1      -2.401  -0.031   0.008  0.00  0.00    +0.037 A 
ATOM     13  C   UNL     1      -2.340   1.219  -0.594  0.00  0.00    +0.027 A 
ATOM     14  C   UNL     1      -1.151   1.922  -0.608  0.00  0.00    +0.051 A 
ATOM     15  C   UNL     1      -0.017   1.386  -0.015  0.00  0.00    +0.162 A 
ATOM     16  C   UNL     1      -0.076   0.136   0.590  0.00  0.00    +0.164 A 
ATOM     17  C   UNL     1      -1.268  -0.571   0.600  0.00  0.00    +0.072 A 
ATOM     18  O   UNL     1       1.026  -0.406   1.177  0.00  0.00    -0.485 OA
ATOM     19  C   UNL     1       2.291   0.163   0.820  0.00  0.00    +0.270 C 
ATOM     20  C   UNL     1       2.164   1.692   0.882  0.00  0.00    +0.270 C 
ATOM     21  O   UNL     1       1.146   2.095  -0.040  0.00  0.00    -0.485 OA
ENDBRANCH  10  12
ENDBRANCH   1   8
BRANCH   1  22
ATOM     22  N   UNL     1      -7.188   0.070   0.357  0.00  0.00    -0.302 N 
ATOM     23  C   UNL     1      -8.423  -0.312  -0.026  0.00  0.00    +0.200 C 
ATOM     24  O   UNL     1      -8.604  -1.429  -0.461  0.00  0.00    -0.278 OA
ATOM     25  H   UNL     1      -7.043   0.964   0.705  0.00  0.00    +0.150 HD
BRANCH  23  26
ATOM     26  C   UNL     1      -9.578   0.650   0.087  0.00  0.00    +0.021 C 
ATOM     27  C   UNL     1     -10.095   0.664   1.526  0.00  0.00    +0.028 C 
ATOM     28  C   UNL     1     -11.391   1.430   1.599  0.00  0.00    -0.047 A 
ATOM     29  C   UNL     1     -11.838   1.859   2.840  0.00  0.00    +0.004 A 
ATOM     30  C   UNL     1     -13.023   2.556   2.953  0.00  0.00    +0.000 A 
ATOM     31  C   UNL     1     -13.770   2.829   1.821  0.00  0.00    +0.000 A 
ATOM     32  C   UNL     1     -13.326   2.405   0.586  0.00  0.00    +0.002 A 
ATOM     33  C   UNL     1     -12.134   1.705   0.471  0.00  0.00    -0.061 A 
ATOM     34  C   UNL     1     -11.689   1.266  -0.900  0.00  0.00    -0.045 C 
ATOM     35  N   UNL     1     -10.671   0.211  -0.800  0.00  0.00    +0.389 N 
ATOM     36  H   UNL     1     -11.100  -0.640  -0.417  0.00  0.00    -0.084 HD
ATOM     37  H   UNL     1     -10.293   0.013  -1.734  0.00  0.00    -0.084 HD
ENDBRANCH  23  26
ENDBRANCH   1  22
TORSDOF 5
