REMARK  Name = ZINC43222358
REMARK  7 active torsions:
REMARK  status: ('A' for Active; 'I' for Inactive)
REMARK    1  A    between atoms: C_1  and  C_2
REMARK    2  A    between atoms: C_2  and  C_4
REMARK    3  A    between atoms: C_2  and  C_29
REMARK    4  A    between atoms: C_4  and  N_5
REMARK    5  A    between atoms: C_6  and  C_8
REMARK    6  A    between atoms: C_13  and  C_15
REMARK    7  A    between atoms: N_17  and  C_18
REMARK                            x       y       z     vdW  Elec       q    Type
REMARK                         _______ _______ _______ _____ _____    ______ ____
ROOT
ATOM      1  C   UNL     1      -0.409  -0.050  -4.888  0.00  0.00    +0.068 C 
ATOM      2  C   UNL     1      -0.493   1.488  -4.998  0.00  0.00    -0.069 C 
ATOM      3  N   UNL     1       0.619   1.859  -5.911  0.00  0.00    +0.380 N 
ATOM      4  C   UNL     1       0.608   0.796  -6.949  0.00  0.00    -0.069 C 
ATOM      5  C   UNL     1       0.315  -0.507  -6.171  0.00  0.00    +0.068 C 
ATOM      6  H   UNL     1       0.446   2.761  -6.328  0.00  0.00    -0.086 HD
ATOM      7  H   UNL     1       1.497   1.859  -5.416  0.00  0.00    -0.086 HD
ENDROOT
BRANCH   1   9
ATOM      8  N   UNL     1      -0.055  -0.114  -2.441  0.00  0.00    -0.315 N 
ATOM      9  C   UNL     1       0.387  -0.445  -3.670  0.00  0.00    +0.215 C 
ATOM     10  O   UNL     1       1.424  -1.060  -3.797  0.00  0.00    -0.276 OA
ATOM     11  H   UNL     1      -0.885   0.378  -2.339  0.00  0.00    +0.149 HD
BRANCH   8  12
ATOM     12  C   UNL     1       0.718  -0.497  -1.257  0.00  0.00    +0.112 C 
BRANCH  12  14
ATOM     13  C   UNL     1      -0.019   1.526   0.010  0.00  0.00    +0.014 C 
ATOM     14  C   UNL     1       0.002  -0.004   0.002  0.00  0.00    +0.033 C 
BRANCH  14  15
ATOM     15  C   UNL     1       0.731  -0.503   1.223  0.00  0.00    -0.043 A 
ATOM     16  C   UNL     1       2.050  -0.148   1.434  0.00  0.00    +0.004 A 
ATOM     17  C   UNL     1       2.719  -0.606   2.554  0.00  0.00    +0.000 A 
ATOM     18  C   UNL     1       2.068  -1.419   3.463  0.00  0.00    +0.000 A 
ATOM     19  C   UNL     1       0.749  -1.773   3.252  0.00  0.00    +0.000 A 
ATOM     20  C   UNL     1       0.079  -1.312   2.135  0.00  0.00    +0.004 A 
ENDBRANCH  14  15
ENDBRANCH  12  14
ENDBRANCH   8  12
ENDBRANCH   1   9
BRANCH   5  21
ATOM     21  C   UNL     1      -0.578  -1.412  -6.981  0.00  0.00    +0.215 C 
ATOM     22  O   UNL     1      -1.693  -1.678  -6.584  0.00  0.00    -0.276 OA
ATOM     23  N   UNL     1      -0.138  -1.926  -8.146  0.00  0.00    -0.308 N 
ATOM     24  H   UNL     1       0.754  -1.714  -8.464  0.00  0.00    +0.149 HD
BRANCH  23  25
ATOM     25  C   UNL     1      -1.005  -2.806  -8.933  0.00  0.00    +0.103 C 
ATOM     26  C   UNL     1      -0.593  -2.737 -10.402  0.00  0.00    +0.027 C 
ATOM     27  C   UNL     1      -1.361  -3.819 -11.171  0.00  0.00    +0.007 C 
ATOM     28  C   UNL     1      -0.819  -5.184 -10.751  0.00  0.00    +0.035 C 
ATOM     29  C   UNL     1      -0.803  -5.308  -9.250  0.00  0.00    -0.042 A 
ATOM     30  C   UNL     1      -0.884  -4.216  -8.416  0.00  0.00    -0.024 A 
ATOM     31  C   UNL     1      -0.857  -4.399  -7.040  0.00  0.00    +0.006 A 
ATOM     32  C   UNL     1      -0.752  -5.666  -6.503  0.00  0.00    +0.000 A 
ATOM     33  C   UNL     1      -0.674  -6.762  -7.341  0.00  0.00    +0.000 A 
ATOM     34  C   UNL     1      -0.700  -6.582  -8.707  0.00  0.00    +0.004 A 
ENDBRANCH  23  25
ENDBRANCH   5  21
TORSDOF 6
