REMARK  Name = ZINC36084417
REMARK  17 active torsions:
REMARK  status: ('A' for Active; 'I' for Inactive)
REMARK    1  A    between atoms: C_1  and  C_2
REMARK    2  A    between atoms: C_2  and  C_3
REMARK    3  A    between atoms: C_3  and  C_4
REMARK    4  A    between atoms: C_4  and  C_5
REMARK    5  A    between atoms: C_5  and  C_6
REMARK    6  A    between atoms: C_6  and  C_7
REMARK    7  A    between atoms: C_7  and  O_37
REMARK    8  A    between atoms: C_8  and  C_36
REMARK    9  A    between atoms: C_10  and  C_27
REMARK   10  A    between atoms: C_13  and  C_18
REMARK   11  A    between atoms: C_15  and  C_17
REMARK   12  A    between atoms: C_21  and  N_24
REMARK   13  A    between atoms: N_24  and  C_25
REMARK   14  A    between atoms: N_24  and  C_26
REMARK   15  A    between atoms: C_30  and  N_33
REMARK   16  A    between atoms: N_33  and  C_34
REMARK   17  A    between atoms: N_33  and  C_35
REMARK                            x       y       z     vdW  Elec       q    Type
REMARK                         _______ _______ _______ _____ _____    ______ ____
ROOT
ATOM      1  C   UNL     1      -4.313  -4.166   0.061  0.00  0.00    +0.069 C 
ATOM      2  C   UNL     1      -5.285  -3.675   1.123  0.00  0.00    +0.008 C 
ATOM      3  C   UNL     1      -6.489  -4.593   1.284  0.00  0.00    -0.034 C 
ATOM      4  N   UNL     1      -6.067  -5.980   1.497  0.00  0.00    +0.389 N 
ATOM      5  C   UNL     1      -5.353  -6.461   0.312  0.00  0.00    -0.034 C 
ATOM      6  C   UNL     1      -4.074  -5.668   0.085  0.00  0.00    +0.008 C 
ATOM      7  C   UNL     1      -3.011  -6.047   1.115  0.00  0.00    +0.009 C 
ATOM      8  C   UNL     1      -4.585  -3.458   2.463  0.00  0.00    +0.009 C 
ATOM      9  H   UNL     1      -5.495  -6.058   2.317  0.00  0.00    -0.084 HD
ATOM     10  H   UNL     1      -6.895  -6.553   1.633  0.00  0.00    -0.084 HD
ENDROOT
BRANCH   5  11
ATOM     11  C   UNL     1      -5.016  -7.918   0.494  0.00  0.00    -0.061 A 
ATOM     12  C   UNL     1      -4.598  -8.381   1.729  0.00  0.00    +0.004 A 
ATOM     13  C   UNL     1      -4.288  -9.716   1.899  0.00  0.00    +0.023 A 
ATOM     14  C   UNL     1      -4.396 -10.594   0.828  0.00  0.00    +0.029 A 
ATOM     15  C   UNL     1      -4.816 -10.126  -0.411  0.00  0.00    +0.023 A 
ATOM     16  C   UNL     1      -5.129  -8.791  -0.573  0.00  0.00    +0.004 A 
BRANCH  14  17
ATOM     17  N   UNL     1      -4.083 -11.945   0.996  0.00  0.00    -0.336 N 
ATOM     18  C   UNL     1      -3.640 -12.437   2.303  0.00  0.00    +0.129 C 
ATOM     19  C   UNL     1      -4.197 -12.870  -0.135  0.00  0.00    +0.129 C 
ENDBRANCH  14  17
ENDBRANCH   5  11
BRANCH   3  20
ATOM     20  C   UNL     1      -7.314  -4.139   2.460  0.00  0.00    -0.061 A 
ATOM     21  C   UNL     1      -6.925  -4.470   3.745  0.00  0.00    +0.004 A 
ATOM     22  C   UNL     1      -7.680  -4.055   4.825  0.00  0.00    +0.023 A 
ATOM     23  C   UNL     1      -8.830  -3.304   4.619  0.00  0.00    +0.029 A 
ATOM     24  C   UNL     1      -9.218  -2.974   3.327  0.00  0.00    +0.023 A 
ATOM     25  C   UNL     1      -8.456  -3.387   2.252  0.00  0.00    +0.004 A 
BRANCH  23  26
ATOM     26  N   UNL     1      -9.596  -2.884   5.709  0.00  0.00    -0.336 N 
ATOM     27  C   UNL     1      -9.242  -3.317   7.063  0.00  0.00    +0.129 C 
ATOM     28  C   UNL     1     -10.752  -2.009   5.498  0.00  0.00    +0.129 C 
ENDBRANCH  23  26
ENDBRANCH   3  20
BRANCH   1  29
ATOM     29  O   UNL     1      -4.824  -3.802  -1.234  0.00  0.00    -0.388 OA
ATOM     30  H   UNL     1      -4.971  -2.853  -1.347  0.00  0.00    +0.210 HD
ENDBRANCH   1  29
BRANCH   1  31
ATOM     31  C   UNL     1      -2.966  -3.446   0.251  0.00  0.00    +0.035 C 
BRANCH  31  32
ATOM     32  C   UNL     1      -2.026  -3.813  -0.898  0.00  0.00    +0.003 C 
BRANCH  32  33
ATOM     33  C   UNL     1      -0.726  -3.017  -0.768  0.00  0.00    +0.000 C 
BRANCH  33  34
ATOM     34  C   UNL     1       0.215  -3.384  -1.917  0.00  0.00    -0.000 C 
BRANCH  34  36
ATOM     35  C   UNL     1       2.456  -2.955  -2.936  0.00  0.00    +0.004 C 
ATOM     36  C   UNL     1       1.515  -2.587  -1.787  0.00  0.00    -0.003 C 
ENDBRANCH  34  36
ENDBRANCH  33  34
ENDBRANCH  32  33
ENDBRANCH  31  32
ENDBRANCH   1  31
TORSDOF 10
