REMARK  Name = ZINC67465129
REMARK  10 active torsions:
REMARK  status: ('A' for Active; 'I' for Inactive)
REMARK    1  A    between atoms: C_1  and  N_2
REMARK    2  A    between atoms: N_2  and  C_3
REMARK    3  A    between atoms: N_2  and  C_4
REMARK    4  A    between atoms: C_4  and  C_5
REMARK    5  A    between atoms: C_5  and  N_6
REMARK    6  A    between atoms: C_7  and  C_9
REMARK    7  A    between atoms: C_13  and  C_15
REMARK    8  A    between atoms: C_15  and  N_16
REMARK    9  A    between atoms: N_19  and  C_20
REMARK   10  A    between atoms: C_29  and  O_31
REMARK                            x       y       z     vdW  Elec       q    Type
REMARK                         _______ _______ _______ _____ _____    ______ ____
ROOT
ATOM      1  C   UNL     1      -6.153  -7.700  -0.414  0.00  0.00    +0.141 C 
ENDROOT
BRANCH   1   6
ATOM      2  C   UNL     1      -4.351  -4.379  -0.207  0.00  0.00    +0.037 A 
ATOM      3  C   UNL     1      -5.424  -3.493  -0.093  0.00  0.00    +0.013 A 
ATOM      4  C   UNL     1      -6.715  -3.977  -0.084  0.00  0.00    +0.001 A 
ATOM      5  C   UNL     1      -6.949  -5.337  -0.188  0.00  0.00    +0.005 A 
ATOM      6  C   UNL     1      -5.890  -6.220  -0.302  0.00  0.00    -0.030 A 
ATOM      7  C   UNL     1      -4.593  -5.749  -0.318  0.00  0.00    +0.018 A 
BRANCH   2   9
ATOM      8  N   UNL     1      -2.733  -2.544  -0.111  0.00  0.00    -0.313 N 
ATOM      9  C   UNL     1      -2.964  -3.867  -0.218  0.00  0.00    +0.244 C 
ATOM     10  O   UNL     1      -2.031  -4.640  -0.323  0.00  0.00    -0.270 OA
ATOM     11  H   UNL     1      -3.477  -1.927  -0.028  0.00  0.00    +0.149 HD
BRANCH   8  12
ATOM     12  C   UNL     1      -1.358  -2.037  -0.122  0.00  0.00    +0.086 C 
BRANCH  12  13
ATOM     13  C   UNL     1      -1.376  -0.512   0.012  0.00  0.00    -0.061 C 
BRANCH  13  15
ATOM     14  C   UNL     1      -0.018   1.465   0.010  0.00  0.00    -0.097 C 
ATOM     15  N   UNL     1       0.002  -0.004   0.002  0.00  0.00    +0.377 N 
ATOM     16  C   UNL     1       0.713  -0.491   1.192  0.00  0.00    -0.097 C 
ATOM     17  H   UNL     1       0.474  -0.330  -0.828  0.00  0.00    -0.083 HD
ENDBRANCH  13  15
ENDBRANCH  12  13
ENDBRANCH   8  12
ENDBRANCH   2   9
ENDBRANCH   1   6
BRANCH   1  18
ATOM     18  N   UNL     1      -6.291  -8.066  -1.826  0.00  0.00    -0.295 N 
ATOM     19  C   UNL     1      -6.532  -9.346  -2.170  0.00  0.00    +0.300 C 
ATOM     20  O   UNL     1      -6.635 -10.198  -1.308  0.00  0.00    -0.253 OA
ATOM     21  N   UNL     1      -6.660  -9.683  -3.469  0.00  0.00    -0.290 N 
ATOM     22  H   UNL     1      -6.209  -7.386  -2.513  0.00  0.00    +0.151 HD
ATOM     23  H   UNL     1      -6.578  -9.003  -4.156  0.00  0.00    +0.151 HD
BRANCH  21  24
ATOM     24  C   UNL     1      -6.922 -11.075  -3.842  0.00  0.00    +0.134 C 
ATOM     25  C   UNL     1      -8.411 -11.345  -3.850  0.00  0.00    -0.021 A 
ATOM     26  C   UNL     1      -9.393 -10.981  -2.944  0.00  0.00    +0.006 A 
ATOM     27  C   UNL     1     -10.708 -11.347  -3.160  0.00  0.00    +0.000 A 
ATOM     28  C   UNL     1     -11.045 -12.078  -4.284  0.00  0.00    +0.000 A 
ATOM     29  C   UNL     1     -10.066 -12.441  -5.189  0.00  0.00    +0.004 A 
ATOM     30  C   UNL     1      -8.748 -12.076  -4.973  0.00  0.00    -0.040 A 
ATOM     31  C   UNL     1      -7.508 -12.347  -5.798  0.00  0.00    +0.069 C 
ATOM     32  C   UNL     1      -6.454 -11.338  -5.290  0.00  0.00    +0.143 C 
BRANCH  32  33
ATOM     33  O   UNL     1      -5.147 -11.915  -5.304  0.00  0.00    -0.389 OA
ATOM     34  H   UNL     1      -4.808 -12.099  -6.191  0.00  0.00    +0.210 HD
ENDBRANCH  32  33
ENDBRANCH  21  24
ENDBRANCH   1  18
TORSDOF 8
