REMARK  Name = ZINC42482965
REMARK  10 active torsions:
REMARK  status: ('A' for Active; 'I' for Inactive)
REMARK    1  A    between atoms: C_1  and  C_2
REMARK    2  A    between atoms: C_2  and  C_3
REMARK    3  A    between atoms: C_2  and  N_4
REMARK    4  A    between atoms: N_4  and  C_5
REMARK    5  A    between atoms: N_4  and  C_9
REMARK    6  A    between atoms: C_5  and  C_6
REMARK    7  A    between atoms: C_6  and  C_7
REMARK    8  A    between atoms: C_7  and  O_8
REMARK    9  A    between atoms: C_9  and  C_10
REMARK   10  A    between atoms: C_11  and  N_17
REMARK                            x       y       z     vdW  Elec       q    Type
REMARK                         _______ _______ _______ _____ _____    ______ ____
ROOT
ATOM      1  C   UNL     1      -2.062   0.431  -1.018  0.00  0.00    -0.040 C 
ENDROOT
BRANCH   1   2
ATOM      2  C   UNL     1      -1.749   1.892  -0.826  0.00  0.00    -0.029 A 
ATOM      3  C   UNL     1      -2.515   2.660   0.042  0.00  0.00    +0.027 A 
ATOM      4  C   UNL     1      -2.222   4.007   0.215  0.00  0.00    +0.023 A 
ATOM      5  C   UNL     1      -1.171   4.579  -0.475  0.00  0.00    +0.003 A 
ATOM      6  C   UNL     1      -0.410   3.812  -1.339  0.00  0.00    +0.015 A 
ATOM      7  C   UNL     1      -0.696   2.469  -1.510  0.00  0.00    +0.021 A 
ATOM      8 BR   UNL     1       0.353   1.423  -2.686  0.00  0.00    -0.050 Br
BRANCH   3   9
ATOM      9  N   UNL     1      -3.577   2.079   0.738  0.00  0.00    -0.358 N 
ATOM     10  H   UNL     1      -3.781   1.139   0.616  0.00  0.00    +0.142 HD
ATOM     11  H   UNL     1      -4.111   2.617   1.344  0.00  0.00    +0.142 HD
ENDBRANCH   3   9
ENDBRANCH   1   2
BRANCH   1  12
ATOM     12  N   UNL     1      -2.134  -0.230   0.292  0.00  0.00    +0.384 N 
ATOM     13  H   UNL     1      -2.087   0.465   1.023  0.00  0.00    -0.081 HD
BRANCH  12  15
ATOM     14  C   UNL     1      -1.146  -2.285  -0.600  0.00  0.00    -0.014 C 
ATOM     15  C   UNL     1      -1.009  -1.164   0.432  0.00  0.00    -0.074 C 
ATOM     16  C   UNL     1       0.306  -0.416   0.202  0.00  0.00    -0.014 C 
ENDBRANCH  12  15
BRANCH  12  17
ATOM     17  C   UNL     1      -3.400  -0.968   0.400  0.00  0.00    -0.076 C 
BRANCH  17  18
ATOM     18  C   UNL     1      -3.553  -1.515   1.821  0.00  0.00    +0.009 C 
BRANCH  18  19
ATOM     19  C   UNL     1      -4.810  -2.383   1.900  0.00  0.00    +0.154 C 
BRANCH  19  20
ATOM     20  O   UNL     1      -4.953  -2.893   3.228  0.00  0.00    -0.395 OA
ATOM     21  H   UNL     1      -5.731  -3.454   3.352  0.00  0.00    +0.209 HD
ENDBRANCH  19  20
ENDBRANCH  18  19
ENDBRANCH  17  18
ENDBRANCH  12  17
ENDBRANCH   1  12
TORSDOF 8
