REMARK  Name = ZINC46950507
REMARK  12 active torsions:
REMARK  status: ('A' for Active; 'I' for Inactive)
REMARK    1  A    between atoms: C_1  and  C_2
REMARK    2  A    between atoms: C_2  and  C_3
REMARK    3  A    between atoms: C_3  and  C_4
REMARK    4  A    between atoms: C_3  and  C_6
REMARK    5  A    between atoms: C_3  and  N_26
REMARK    6  A    between atoms: C_4  and  C_5
REMARK    7  A    between atoms: C_6  and  N_7
REMARK    8  A    between atoms: N_10  and  N_11
REMARK    9  A    between atoms: C_12  and  C_14
REMARK   10  A    between atoms: N_23  and  C_25
REMARK   11  A    between atoms: N_26  and  C_27
REMARK   12  A    between atoms: N_26  and  C_28
REMARK                            x       y       z     vdW  Elec       q    Type
REMARK                         _______ _______ _______ _____ _____    ______ ____
ROOT
ATOM      1  N   UNL     1      -2.805  -2.182  -0.342  0.00  0.00    -0.300 N 
ATOM      2  C   UNL     1      -2.994  -3.515  -0.394  0.00  0.00    +0.316 C 
ATOM      3  O   UNL     1      -2.040  -4.267  -0.330  0.00  0.00    -0.251 OA
ATOM      4  N   UNL     1      -4.239  -4.016  -0.518  0.00  0.00    -0.218 N 
ATOM      5  H   UNL     1      -3.566  -1.582  -0.393  0.00  0.00    +0.150 HD
ATOM      6  H   UNL     1      -4.374  -4.975  -0.556  0.00  0.00    +0.174 HD
ENDROOT
BRANCH   4   7
ATOM      7  N   UNL     1      -5.338  -3.150  -0.592  0.00  0.00    -0.228 N 
ATOM      8  C   UNL     1      -6.583  -3.650  -0.715  0.00  0.00    +0.281 C 
ATOM      9  O   UNL     1      -6.753  -4.853  -0.762  0.00  0.00    -0.267 OA
ATOM     10  H   UNL     1      -5.202  -2.190  -0.554  0.00  0.00    +0.173 HD
BRANCH   8  11
ATOM     11  C   UNL     1      -7.741  -2.737  -0.793  0.00  0.00    +0.155 A 
ATOM     12  C   UNL     1      -9.105  -3.275  -0.922  0.00  0.00    +0.020 A 
ATOM     13  C   UNL     1      -9.376  -4.638  -0.977  0.00  0.00    +0.011 A 
ATOM     14  C   UNL     1     -10.681  -5.064  -1.098  0.00  0.00    +0.001 A 
ATOM     15  C   UNL     1     -11.725  -4.149  -1.166  0.00  0.00    +0.001 A 
ATOM     16  C   UNL     1     -11.478  -2.794  -1.113  0.00  0.00    +0.014 A 
ATOM     17  C   UNL     1     -10.167  -2.344  -0.991  0.00  0.00    +0.050 A 
ATOM     18  C   UNL     1      -9.815  -0.918  -0.928  0.00  0.00    +0.275 A 
ATOM     19  O   UNL     1     -10.678  -0.061  -0.981  0.00  0.00    -0.266 OA
ATOM     20  N   UNL     1      -8.514  -0.582  -0.809  0.00  0.00    -0.231 N 
ATOM     21  N   UNL     1      -7.567  -1.439  -0.742  0.00  0.00    -0.163 NA
ATOM     22  C   UNL     1      -8.169   0.840  -0.747  0.00  0.00    +0.176 C 
ENDBRANCH   8  11
ENDBRANCH   4   7
BRANCH   1  23
ATOM     23  C   UNL     1      -1.452  -1.638  -0.207  0.00  0.00    +0.094 C 
BRANCH  23  24
ATOM     24  C   UNL     1      -1.528  -0.122  -0.012  0.00  0.00    -0.051 C 
BRANCH  24  25
ATOM     25  N   UNL     1      -0.172   0.442  -0.024  0.00  0.00    +0.381 N 
ATOM     26  C   UNL     1       0.650  -0.237   0.987  0.00  0.00    -0.096 C 
ATOM     27  C   UNL     1       0.427   0.250  -1.351  0.00  0.00    -0.096 C 
ATOM     28  H   UNL     1      -0.216   1.428   0.186  0.00  0.00    -0.082 HD
ENDBRANCH  24  25
BRANCH  24  30
ATOM     29  C   UNL     1      -2.320   2.022  -1.021  0.00  0.00    +0.002 C 
ATOM     30  C   UNL     1      -2.348   0.497  -1.146  0.00  0.00    -0.014 C 
ENDBRANCH  24  30
BRANCH  24  31
ATOM     31  C   UNL     1      -2.197   0.186   1.329  0.00  0.00    -0.014 C 
ATOM     32  C   UNL     1      -3.656  -0.275   1.289  0.00  0.00    +0.002 C 
ENDBRANCH  24  31
ENDBRANCH  23  24
ENDBRANCH   1  23
TORSDOF 7
