REMARK  Name = ZINC39685205
REMARK  11 active torsions:
REMARK  status: ('A' for Active; 'I' for Inactive)
REMARK    1  A    between atoms: C_1  and  C_2
REMARK    2  A    between atoms: C_2  and  C_3
REMARK    3  A    between atoms: C_2  and  C_4
REMARK    4  A    between atoms: C_4  and  C_6
REMARK    5  A    between atoms: C_4  and  O_32
REMARK    6  A    between atoms: C_10  and  C_19
REMARK    7  A    between atoms: N_21  and  C_22
REMARK    8  A    between atoms: C_22  and  C_23
REMARK    9  A    between atoms: C_23  and  O_24
REMARK   10  A    between atoms: O_24  and  C_25
REMARK   11  A    between atoms: O_32  and  C_33
REMARK                            x       y       z     vdW  Elec       q    Type
REMARK                         _______ _______ _______ _____ _____    ______ ____
ROOT
ATOM      1  C   UNL     1      -2.248   0.026  -1.004  0.00  0.00    +0.257 C 
ATOM      2  O   UNL     1      -2.877  -0.648  -1.792  0.00  0.00    -0.272 OA
ATOM      3  N   UNL     1      -2.386   1.367  -1.003  0.00  0.00    -0.297 N 
ATOM      4  C   UNL     1      -1.647   2.355  -0.183  0.00  0.00    +0.121 C 
ATOM      5  C   UNL     1      -1.389   3.541  -1.139  0.00  0.00    +0.100 C 
ATOM      6  C   UNL     1      -2.485   3.425  -2.212  0.00  0.00    -0.004 C 
ATOM      7  C   UNL     1      -3.306   2.186  -1.828  0.00  0.00    +0.115 C 
ATOM      8  C   UNL     1      -1.858   3.229  -3.589  0.00  0.00    -0.010 C 
ATOM      9  C   UNL     1      -2.964   3.174  -4.645  0.00  0.00    -0.082 C 
ATOM     10  N   UNL     1      -3.739   4.421  -4.611  0.00  0.00    +0.379 N 
ATOM     11  C   UNL     1      -4.414   4.556  -3.315  0.00  0.00    -0.082 C 
ATOM     12  C   UNL     1      -3.368   4.669  -2.202  0.00  0.00    -0.010 C 
ATOM     13  H   UNL     1      -3.118   5.205  -4.749  0.00  0.00    -0.086 HD
ATOM     14  H   UNL     1      -4.428   4.408  -5.348  0.00  0.00    -0.086 HD
ENDROOT
BRANCH   5  15
ATOM     15  C   UNL     1      -1.512   4.848  -0.399  0.00  0.00    +0.218 C 
ATOM     16  O   UNL     1      -2.202   4.919   0.596  0.00  0.00    -0.275 OA
ATOM     17  N   UNL     1      -0.856   5.938  -0.842  0.00  0.00    -0.312 N 
ATOM     18  H   UNL     1      -0.304   5.882  -1.638  0.00  0.00    +0.149 HD
BRANCH  17  19
ATOM     19  C   UNL     1      -0.976   7.209  -0.123  0.00  0.00    +0.145 C 
BRANCH  19  20
ATOM     20  C   UNL     1      -0.138   8.276  -0.830  0.00  0.00    +0.248 C 
BRANCH  20  21
ATOM     21  O   UNL     1      -0.680   8.524  -2.128  0.00  0.00    -0.488 OA
BRANCH  21  22
ATOM     22  C   UNL     1      -0.049   9.454  -2.894  0.00  0.00    +0.156 A 
ATOM     23  C   UNL     1       1.073  10.108  -2.407  0.00  0.00    +0.048 A 
ATOM     24  C   UNL     1       1.714  11.052  -3.187  0.00  0.00    +0.004 A 
ATOM     25  C   UNL     1       1.238  11.346  -4.451  0.00  0.00    +0.003 A 
ATOM     26  C   UNL     1       0.119  10.696  -4.940  0.00  0.00    +0.042 A 
ATOM     27  C   UNL     1      -0.522   9.745  -4.167  0.00  0.00    +0.165 A 
ATOM     28  F   UNL     1      -1.611   9.106  -4.646  0.00  0.00    -0.202 F 
ENDBRANCH  21  22
ENDBRANCH  20  21
ENDBRANCH  19  20
ENDBRANCH  17  19
ENDBRANCH   5  15
BRANCH   1  29
ATOM     29  C   UNL     1      -1.313  -0.636  -0.025  0.00  0.00    +0.261 C 
BRANCH  29  31
ATOM     30  C   UNL     1       0.659   0.559  -0.986  0.00  0.00    +0.011 C 
ATOM     31  C   UNL     1       0.061  -0.814  -0.673  0.00  0.00    +0.033 C 
ATOM     32  C   UNL     1       0.985  -1.566   0.287  0.00  0.00    +0.011 C 
ENDBRANCH  29  31
BRANCH  29  33
ATOM     33  O   UNL     1      -1.835  -1.914   0.343  0.00  0.00    -0.479 OA
BRANCH  33  34
ATOM     34  C   UNL     1      -1.589  -2.340   1.610  0.00  0.00    +0.122 A 
ATOM     35  C   UNL     1      -0.939  -1.507   2.509  0.00  0.00    +0.045 A 
ATOM     36  C   UNL     1      -0.690  -1.942   3.796  0.00  0.00    +0.004 A 
ATOM     37  C   UNL     1      -1.090  -3.206   4.190  0.00  0.00    +0.000 A 
ATOM     38  C   UNL     1      -1.738  -4.038   3.296  0.00  0.00    +0.004 A 
ATOM     39  C   UNL     1      -1.994  -3.606   2.009  0.00  0.00    +0.045 A 
ENDBRANCH  33  34
ENDBRANCH  29  33
ENDBRANCH   1  29
TORSDOF 9
