REMARK  Name = ZINC13898327
REMARK  3 active torsions:
REMARK  status: ('A' for Active; 'I' for Inactive)
REMARK    1  A    between atoms: C_6  and  N_7
REMARK    2  A    between atoms: C_11  and  C_12
REMARK    3  A    between atoms: C_15  and  O_19
REMARK                            x       y       z     vdW  Elec       q    Type
REMARK                         _______ _______ _______ _____ _____    ______ ____
ROOT
ATOM      1  N   UNL     1      -0.985   3.308   1.078  0.00  0.00    -0.190 N 
ATOM      2  C   UNL     1      -0.091   3.868   0.238  0.00  0.00    +0.263 C 
ATOM      3  O   UNL     1      -0.223   5.017  -0.140  0.00  0.00    -0.269 OA
ATOM      4  C   UNL     1       1.052   3.049  -0.211  0.00  0.00    +0.100 C 
ATOM      5  C   UNL     1       2.008   3.554  -1.071  0.00  0.00    +0.026 C 
ATOM      6  C   UNL     1       1.128   1.666   0.300  0.00  0.00    +0.257 C 
ATOM      7  O   UNL     1       2.040   0.929  -0.024  0.00  0.00    -0.270 OA
ATOM      8  N   UNL     1       0.158   1.242   1.137  0.00  0.00    -0.235 N 
ATOM      9  C   UNL     1      -0.855   2.041   1.498  0.00  0.00    +0.320 C 
ATOM     10  O   UNL     1      -1.699   1.596   2.251  0.00  0.00    -0.251 OA
ATOM     11  H   UNL     1       0.193   0.336   1.482  0.00  0.00    +0.159 HD
ENDROOT
BRANCH   5  12
ATOM     12  C   UNL     1       1.767   4.814  -1.774  0.00  0.00    -0.021 A 
ATOM     13  C   UNL     1       0.509   5.077  -2.336  0.00  0.00    +0.031 A 
ATOM     14  C   UNL     1       0.287   6.266  -2.992  0.00  0.00    +0.084 A 
ATOM     15  C   UNL     1       1.311   7.202  -3.109  0.00  0.00    +0.153 A 
ATOM     16  C   UNL     1       2.563   6.944  -2.558  0.00  0.00    +0.084 A 
ATOM     17  C   UNL     1       2.796   5.761  -1.895  0.00  0.00    +0.031 A 
ATOM     18 CL   UNL     1       3.834   8.117  -2.707  0.00  0.00    -0.080 Cl
ATOM     19 CL   UNL     1      -1.272   6.597  -3.682  0.00  0.00    -0.080 Cl
BRANCH  15  20
ATOM     20  O   UNL     1       1.087   8.370  -3.761  0.00  0.00    -0.504 OA
ATOM     21  H   UNL     1       1.279   8.335  -4.708  0.00  0.00    +0.292 HD
ENDBRANCH  15  20
ENDBRANCH   5  12
BRANCH   1  27
ATOM     22  C   UNL     1      -3.308   3.947   0.884  0.00  0.00    +0.025 A 
ATOM     23  C   UNL     1      -4.385   4.692   1.323  0.00  0.00    +0.017 A 
ATOM     24  C   UNL     1      -4.237   5.563   2.388  0.00  0.00    +0.018 A 
ATOM     25  C   UNL     1      -3.012   5.687   3.019  0.00  0.00    +0.017 A 
ATOM     26  C   UNL     1      -1.933   4.941   2.587  0.00  0.00    +0.025 A 
ATOM     27  C   UNL     1      -2.079   4.066   1.519  0.00  0.00    +0.046 A 
ATOM     28 BR   UNL     1      -5.713   6.586   2.982  0.00  0.00    -0.050 Br
ENDBRANCH   1  27
TORSDOF 3
