REMARK  Name = ZINC15069060
REMARK  9 active torsions:
REMARK  status: ('A' for Active; 'I' for Inactive)
REMARK    1  A    between atoms: C_1  and  C_2
REMARK    2  A    between atoms: C_5  and  N_9
REMARK    3  A    between atoms: C_7  and  C_8
REMARK    4  A    between atoms: C_14  and  N_54
REMARK    5  A    between atoms: C_19  and  C_20
REMARK    6  A    between atoms: C_19  and  N_54
REMARK    7  A    between atoms: C_22  and  O_28
REMARK    8  A    between atoms: C_23  and  O_27
REMARK    9  A    between atoms: O_28  and  C_29
REMARK                            x       y       z     vdW  Elec       q    Type
REMARK                         _______ _______ _______ _____ _____    ______ ____
ROOT
ATOM      1  N   UNL     1       2.152  10.841  -0.408  0.00  0.00    -0.237 N 
ATOM      2  C   UNL     1       2.779   9.716  -0.800  0.00  0.00    +0.047 A 
ATOM      3  C   UNL     1       1.878   8.701  -0.755  0.00  0.00    -0.020 A 
ATOM      4  C   UNL     1       0.661   9.225  -0.323  0.00  0.00    +0.137 A 
ATOM      5  N   UNL     1       0.821  10.509  -0.114  0.00  0.00    -0.174 NA
ATOM      6  C   UNL     1       2.196   7.273  -1.121  0.00  0.00    -0.037 C 
ATOM      7  C   UNL     1       3.720   7.102  -1.128  0.00  0.00    -0.011 C 
ATOM      8  C   UNL     1       4.355   8.217  -1.963  0.00  0.00    +0.005 C 
ATOM      9  C   UNL     1       4.217   9.553  -1.224  0.00  0.00    +0.056 C 
ENDROOT
BRANCH   1  14
ATOM     10  C   UNL     1       4.477  16.003  -0.014  0.00  0.00    +0.044 C 
ATOM     11  C   UNL     1       3.860  14.632  -0.119  0.00  0.00    -0.047 A 
ATOM     12  C   UNL     1       4.612  13.512   0.181  0.00  0.00    +0.006 A 
ATOM     13  C   UNL     1       4.048  12.255   0.091  0.00  0.00    +0.028 A 
ATOM     14  C   UNL     1       2.726  12.116  -0.311  0.00  0.00    +0.066 A 
ATOM     15  C   UNL     1       1.973  13.243  -0.611  0.00  0.00    +0.031 A 
ATOM     16  C   UNL     1       2.542  14.498  -0.514  0.00  0.00    -0.046 A 
ATOM     17  C   UNL     1       1.725  15.722  -0.840  0.00  0.00    +0.044 C 
ENDBRANCH   1  14
BRANCH   6  18
ATOM     18  N   UNL     1       1.606   6.361  -0.122  0.00  0.00    +0.386 N 
ATOM     19  H   UNL     1       1.630   6.809   0.802  0.00  0.00    -0.085 HD
ATOM     20  H   UNL     1       2.150   5.491  -0.094  0.00  0.00    -0.085 HD
BRANCH  18  21
ATOM     21  C   UNL     1       0.208   6.050  -0.475  0.00  0.00    -0.046 C 
BRANCH  21  22
ATOM     22  C   UNL     1      -0.367   5.119   0.561  0.00  0.00    -0.059 A 
ATOM     23  C   UNL     1      -0.254   3.751   0.398  0.00  0.00    +0.051 A 
ATOM     24  C   UNL     1      -0.787   2.893   1.346  0.00  0.00    +0.163 A 
ATOM     25  C   UNL     1      -1.427   3.411   2.468  0.00  0.00    +0.177 A 
ATOM     26  C   UNL     1      -1.532   4.784   2.629  0.00  0.00    +0.086 A 
ATOM     27  C   UNL     1      -1.002   5.635   1.675  0.00  0.00    +0.025 A 
ATOM     28 CL   UNL     1      -2.328   5.436   4.028  0.00  0.00    -0.080 Cl
BRANCH  25  29
ATOM     29  O   UNL     1      -1.947   2.573   3.405  0.00  0.00    -0.502 OA
ATOM     30  H   UNL     1      -1.329   2.338   4.110  0.00  0.00    +0.292 HD
ENDBRANCH  25  29
BRANCH  24  31
ATOM     31  O   UNL     1      -0.682   1.547   1.184  0.00  0.00    -0.491 OA
ATOM     32  C   UNL     1      -0.013   1.086   0.008  0.00  0.00    +0.277 C 
ENDBRANCH  24  31
ENDBRANCH  21  22
ENDBRANCH  18  21
ENDBRANCH   6  18
TORSDOF 6
