REMARK  Name = ZINC63526371
REMARK  6 active torsions:
REMARK  status: ('A' for Active; 'I' for Inactive)
REMARK    1  A    between atoms: C_1  and  C_2
REMARK    2  A    between atoms: C_6  and  C_24
REMARK    3  A    between atoms: N_8  and  C_10
REMARK    4  A    between atoms: C_10  and  C_11
REMARK    5  A    between atoms: N_13  and  C_14
REMARK    6  A    between atoms: C_14  and  C_15
REMARK                            x       y       z     vdW  Elec       q    Type
REMARK                         _______ _______ _______ _____ _____    ______ ____
ROOT
ATOM      1  C   UNL     1       1.916  -2.572   2.939  0.00  0.00    +0.229 C 
ATOM      2  O   UNL     1       0.767  -2.360   3.267  0.00  0.00    -0.274 OA
ATOM      3  N   UNL     1       2.806  -3.012   3.850  0.00  0.00    -0.310 N 
ATOM      4  H   UNL     1       3.724  -3.182   3.588  0.00  0.00    +0.149 HD
ENDROOT
BRANCH   1   5
ATOM      5  C   UNL     1       2.347  -2.345   1.513  0.00  0.00    +0.198 C 
BRANCH   5  10
ATOM      6  C   UNL     1      -0.019   1.526   0.010  0.00  0.00    +0.026 C 
ATOM      7  C   UNL     1       0.002  -0.004   0.002  0.00  0.00    +0.081 C 
ATOM      8  C   UNL     1       0.768  -0.531  -1.233  0.00  0.00    +0.088 C 
ATOM      9  C   UNL     1       1.556  -1.748  -0.707  0.00  0.00    +0.084 C 
ATOM     10  N   UNL     1       1.201  -1.869   0.725  0.00  0.00    -0.230 NA
ATOM     11  N   UNL     1       0.790  -0.523   1.151  0.00  0.00    -0.249 NA
ATOM     12  C   UNL     1       1.143  -3.012  -1.464  0.00  0.00    +0.027 C 
ATOM     13  I   UNL     1       2.119   0.980  -1.984  0.00  0.00    -0.078 I 
ATOM     14  H   UNL     1       1.594   0.059   1.331  0.00  0.00    +0.141 HD
ENDBRANCH   5  10
ENDBRANCH   1   5
BRANCH   3  15
ATOM     15  C   UNL     1       2.387  -3.233   5.236  0.00  0.00    +0.151 C 
BRANCH  15  16
ATOM     16  C   UNL     1       3.580  -3.728   6.057  0.00  0.00    +0.191 C 
ATOM     17  N   UNL     1       4.684  -2.764   5.973  0.00  0.00    -0.362 N 
ATOM     18  C   UNL     1       5.699  -3.379   5.438  0.00  0.00    +0.060 A 
ATOM     19  C   UNL     1       7.064  -2.949   5.102  0.00  0.00    +0.027 A 
ATOM     20  C   UNL     1       7.919  -3.828   4.542  0.00  0.00    +0.002 A 
ATOM     21  C   UNL     1       7.561  -5.158   4.258  0.00  0.00    +0.002 A 
ATOM     22  C   UNL     1       6.337  -5.654   4.525  0.00  0.00    +0.027 A 
ATOM     23  C   UNL     1       5.321  -4.787   5.138  0.00  0.00    +0.060 A 
ATOM     24  N   UNL     1       4.087  -4.989   5.499  0.00  0.00    -0.362 N 
ATOM     25  H   UNL     1       4.662  -1.839   6.262  0.00  0.00    +0.162 HD
ATOM     26  H   UNL     1       3.593  -5.819   5.416  0.00  0.00    +0.162 HD
ENDBRANCH  15  16
ENDBRANCH   3  15
TORSDOF 4
