REMARK  Name = ZINC35574518
REMARK  4 active torsions:
REMARK  status: ('A' for Active; 'I' for Inactive)
REMARK    1  A    between atoms: C_2  and  C_9
REMARK    2  A    between atoms: C_23  and  C_25
REMARK    3  A    between atoms: C_25  and  N_26
REMARK    4  A    between atoms: N_29  and  C_32
REMARK                            x       y       z     vdW  Elec       q    Type
REMARK                         _______ _______ _______ _____ _____    ______ ____
ROOT
ATOM      1  C   UNL     1       1.149   3.576  -2.380  0.00  0.00    +0.247 C 
ATOM      2  O   UNL     1       1.164   2.366  -2.274  0.00  0.00    -0.270 OA
ATOM      3  N   UNL     1       2.308   4.258  -2.489  0.00  0.00    -0.295 N 
ATOM      4  C   UNL     1       2.314   5.727  -2.491  0.00  0.00    +0.127 C 
ATOM      5  C   UNL     1       3.252   6.215  -1.381  0.00  0.00    +0.127 C 
ATOM      6  N   UNL     1       4.531   5.501  -1.499  0.00  0.00    -0.298 N 
ATOM      7  C   UNL     1       4.525   4.032  -1.497  0.00  0.00    +0.127 C 
ATOM      8  C   UNL     1       3.587   3.544  -2.602  0.00  0.00    +0.127 C 
ATOM      9  C   UNL     1       5.707   6.193  -1.610  0.00  0.00    +0.199 A 
ATOM     10  N   UNL     1       5.700   7.548  -1.488  0.00  0.00    -0.295 N 
ATOM     11  H   UNL     1       4.867   8.017  -1.325  0.00  0.00    +0.172 HD
ATOM     12  C   UNL     1       6.856   8.237  -1.596  0.00  0.00    +0.253 A 
ATOM     13  O   UNL     1       6.867   9.452  -1.489  0.00  0.00    -0.268 OA
ATOM     14  C   UNL     1       8.046   7.527  -1.833  0.00  0.00    +0.094 A 
ATOM     15  C   UNL     1       7.992   6.168  -1.946  0.00  0.00    +0.064 A 
ATOM     16  N   UNL     1       6.828   5.534  -1.827  0.00  0.00    -0.219 NA
ENDROOT
BRANCH   1  18
ATOM     17  C   UNL     1      -1.215   3.829  -1.637  0.00  0.00    +0.033 A 
ATOM     18  C   UNL     1      -0.139   4.302  -2.389  0.00  0.00    +0.040 A 
ATOM     19  C   UNL     1      -0.283   5.464  -3.150  0.00  0.00    +0.033 A 
ATOM     20  C   UNL     1      -1.488   6.137  -3.154  0.00  0.00    +0.043 A 
ATOM     21  C   UNL     1      -2.552   5.663  -2.406  0.00  0.00    +0.040 A 
ATOM     22  C   UNL     1      -2.415   4.511  -1.650  0.00  0.00    +0.043 A 
ATOM     23 CL   UNL     1      -3.755   3.924  -0.715  0.00  0.00    -0.083 Cl
ATOM     24 CL   UNL     1      -1.669   7.582  -4.099  0.00  0.00    -0.083 Cl
ENDBRANCH   1  18
BRANCH  15  25
ATOM     25  C   UNL     1       9.254   5.383  -2.200  0.00  0.00    +0.140 C 
BRANCH  25  26
ATOM     26  N   UNL     1       9.535   4.522  -1.044  0.00  0.00    -0.300 NA
ATOM     27  C   UNL     1       9.862   5.323   0.144  0.00  0.00    +0.066 C 
ATOM     28  C   UNL     1      10.089   4.393   1.337  0.00  0.00    -0.063 C 
ATOM     29  N   UNL     1      11.188   3.466   1.033  0.00  0.00    +0.383 N 
ATOM     30  C   UNL     1      10.837   2.656  -0.140  0.00  0.00    -0.063 C 
ATOM     31  C   UNL     1      10.616   3.572  -1.346  0.00  0.00    +0.066 C 
ATOM     32  H   UNL     1      12.027   3.993   0.840  0.00  0.00    -0.081 HD
BRANCH  29  33
ATOM     33  C   UNL     1      11.418   2.585   2.186  0.00  0.00    -0.068 C 
ATOM     34  C   UNL     1      11.786   3.429   3.408  0.00  0.00    -0.015 C 
ATOM     35  C   UNL     1      12.025   2.511   4.608  0.00  0.00    -0.002 C 
ATOM     36  C   UNL     1      13.170   1.546   4.292  0.00  0.00    -0.000 C 
ATOM     37  C   UNL     1      12.803   0.703   3.070  0.00  0.00    -0.002 C 
ATOM     38  C   UNL     1      12.563   1.620   1.869  0.00  0.00    -0.015 C 
ENDBRANCH  29  33
ENDBRANCH  25  26
ENDBRANCH  15  25
TORSDOF 4
