REMARK  Name = ZINC07781001
REMARK  9 active torsions:
REMARK  status: ('A' for Active; 'I' for Inactive)
REMARK    1  A    between atoms: C_1  and  C_2
REMARK    2  A    between atoms: C_5  and  N_8
REMARK    3  A    between atoms: C_15  and  C_17
REMARK    4  A    between atoms: C_17  and  N_59
REMARK    5  A    between atoms: C_21  and  C_23
REMARK    6  A    between atoms: C_26  and  O_31
REMARK    7  A    between atoms: C_28  and  O_29
REMARK    8  A    between atoms: O_29  and  C_30
REMARK    9  A    between atoms: O_31  and  C_32
REMARK                            x       y       z     vdW  Elec       q    Type
REMARK                         _______ _______ _______ _____ _____    ______ ____
ROOT
ATOM      1  N   UNL     1       3.187  -2.421   0.482  0.00  0.00    -0.285 N 
ATOM      2  C   UNL     1       2.956  -1.145   0.051  0.00  0.00    +0.201 A 
ATOM      3  N   UNL     1       3.879  -0.505  -0.726  0.00  0.00    -0.297 N 
ATOM      4  H   UNL     1       4.704  -0.948  -0.979  0.00  0.00    +0.171 HD
ATOM      5  C   UNL     1       3.615   0.785  -1.146  0.00  0.00    +0.225 A 
ATOM      6  N   UNL     1       4.478   1.432  -1.894  0.00  0.00    -0.266 NA
ATOM      7  N   UNL     1       2.457   1.367  -0.780  0.00  0.00    -0.200 NA
ATOM      8  C   UNL     1       1.597   0.718  -0.027  0.00  0.00    +0.120 A 
ATOM      9  N   UNL     1       1.837  -0.521   0.384  0.00  0.00    -0.203 NA
ATOM     10  H   UNL     1       4.012  -2.872   0.245  0.00  0.00    +0.155 HD
ATOM     11  H   UNL     1       4.285   2.337  -2.185  0.00  0.00    +0.190 HD
ENDROOT
BRANCH   1  16
ATOM     12  C   UNL     1      -0.685  -5.084   3.660  0.00  0.00    +0.044 C 
ATOM     13  C   UNL     1       0.343  -4.376   2.816  0.00  0.00    -0.050 A 
ATOM     14  C   UNL     1       1.690  -4.590   3.046  0.00  0.00    +0.005 A 
ATOM     15  C   UNL     1       2.635  -3.944   2.274  0.00  0.00    +0.023 A 
ATOM     16  C   UNL     1       2.232  -3.078   1.265  0.00  0.00    +0.034 A 
ATOM     17  C   UNL     1       0.878  -2.862   1.040  0.00  0.00    +0.023 A 
ATOM     18  C   UNL     1      -0.062  -3.516   1.812  0.00  0.00    +0.005 A 
ENDBRANCH   1  16
BRANCH   8  19
ATOM     19  C   UNL     1       0.310   1.393   0.374  0.00  0.00    -0.000 C 
BRANCH  19  24
ATOM     20  C   UNL     1       0.931   1.373   2.722  0.00  0.00    -0.077 C 
ATOM     21  C   UNL     1       0.322   2.082   3.958  0.00  0.00    -0.020 C 
ATOM     22  C   UNL     1      -1.030   2.595   3.386  0.00  0.00    -0.012 C 
ATOM     23  C   UNL     1      -0.673   2.971   1.932  0.00  0.00    -0.034 C 
ATOM     24  N   UNL     1       0.550   2.226   1.581  0.00  0.00    +0.389 N 
ATOM     25  H   UNL     1       1.308   2.890   1.385  0.00  0.00    -0.080 HD
BRANCH  23  26
ATOM     26  C   UNL     1      -1.806   2.594   1.012  0.00  0.00    -0.019 A 
ATOM     27  C   UNL     1      -2.599   1.501   1.306  0.00  0.00    +0.009 A 
ATOM     28  C   UNL     1      -3.639   1.153   0.465  0.00  0.00    +0.046 A 
ATOM     29  C   UNL     1      -3.889   1.902  -0.677  0.00  0.00    +0.124 A 
ATOM     30  C   UNL     1      -3.095   2.999  -0.973  0.00  0.00    +0.091 A 
ATOM     31  C   UNL     1      -2.055   3.349  -0.125  0.00  0.00    +0.125 A 
BRANCH  31  32
ATOM     32  O   UNL     1      -1.278   4.426  -0.410  0.00  0.00    -0.495 OA
ATOM     33  C   UNL     1      -1.593   5.157  -1.597  0.00  0.00    +0.277 C 
ENDBRANCH  31  32
BRANCH  29  34
ATOM     34  O   UNL     1      -4.911   1.559  -1.504  0.00  0.00    -0.495 OA
ATOM     35  C   UNL     1      -5.764   0.495  -1.075  0.00  0.00    +0.277 C 
ENDBRANCH  29  34
ENDBRANCH  23  26
ENDBRANCH  19  24
ENDBRANCH   8  19
TORSDOF 6
