REMARK  Name = ZINC66214463
REMARK  10 active torsions:
REMARK  status: ('A' for Active; 'I' for Inactive)
REMARK    1  A    between atoms: C_1  and  C_2
REMARK    2  A    between atoms: C_2  and  C_3
REMARK    3  A    between atoms: C_3  and  C_4
REMARK    4  A    between atoms: N_6  and  C_7
REMARK    5  A    between atoms: C_10  and  N_13
REMARK    6  A    between atoms: C_14  and  C_16
REMARK    7  A    between atoms: C_16  and  N_17
REMARK    8  A    between atoms: N_17  and  C_18
REMARK    9  A    between atoms: C_18  and  C_19
REMARK   10  A    between atoms: C_19  and  C_20
REMARK                            x       y       z     vdW  Elec       q    Type
REMARK                         _______ _______ _______ _____ _____    ______ ____
ROOT
ATOM      1  N   UNL     1      -2.125  -8.280   0.180  0.00  0.00    -0.287 N 
ATOM      2  C   UNL     1      -3.225  -9.049   0.054  0.00  0.00    +0.200 C 
ATOM      3  O   UNL     1      -4.321  -8.534  -0.004  0.00  0.00    -0.278 OA
ATOM      4  H   UNL     1      -1.255  -8.694   0.293  0.00  0.00    +0.155 HD
ENDROOT
BRANCH   1   8
ATOM      5  C   UNL     1      -2.462  -4.125   0.078  0.00  0.00    +0.033 A 
ATOM      6  C   UNL     1      -1.347  -4.745  -0.471  0.00  0.00    +0.025 A 
ATOM      7  C   UNL     1      -1.236  -6.121  -0.438  0.00  0.00    +0.025 A 
ATOM      8  C   UNL     1      -2.238  -6.885   0.146  0.00  0.00    +0.033 A 
ATOM      9  C   UNL     1      -3.353  -6.265   0.695  0.00  0.00    +0.025 A 
ATOM     10  C   UNL     1      -3.462  -4.889   0.667  0.00  0.00    +0.025 A 
BRANCH   5  13
ATOM     11  C   UNL     1      -3.152  -2.075   1.072  0.00  0.00    +0.217 C 
ATOM     12  O   UNL     1      -3.647  -2.698   1.987  0.00  0.00    -0.275 OA
ATOM     13  N   UNL     1      -2.575  -2.730   0.044  0.00  0.00    -0.285 N 
ATOM     14  H   UNL     1      -2.239  -2.234  -0.719  0.00  0.00    +0.155 HD
BRANCH  11  15
ATOM     15  C   UNL     1      -3.181  -0.568   1.084  0.00  0.00    +0.096 C 
BRANCH  15  17
ATOM     16  C   UNL     1      -3.916   1.448   2.363  0.00  0.00    +0.004 C 
ATOM     17  C   UNL     1      -3.887  -0.082   2.351  0.00  0.00    +0.006 C 
ENDBRANCH  15  17
ENDBRANCH  11  15
ENDBRANCH   5  13
ENDBRANCH   1   8
BRANCH   2  18
ATOM     18  C   UNL     1      -3.093 -10.549  -0.014  0.00  0.00    +0.015 C 
BRANCH  18  19
ATOM     19  N   UNL     1      -4.425 -11.152  -0.149  0.00  0.00    +0.385 N 
ATOM     20  H   UNL     1      -4.991 -10.900   0.648  0.00  0.00    -0.085 HD
ATOM     21  H   UNL     1      -4.863 -10.814  -0.993  0.00  0.00    -0.085 HD
BRANCH  19  22
ATOM     22  C   UNL     1      -4.296 -12.614  -0.215  0.00  0.00    -0.078 C 
BRANCH  22  23
ATOM     23  C   UNL     1      -5.684 -13.242  -0.356  0.00  0.00    +0.011 C 
BRANCH  23  24
ATOM     24  C   UNL     1      -5.552 -14.742  -0.424  0.00  0.00    -0.075 C 
ATOM     25  C   UNL     1      -5.690 -15.414   0.673  0.00  0.00    -0.028 C 
ATOM     26  C   UNL     1      -5.576 -16.908   0.765  0.00  0.00    +0.027 C 
ATOM     27  C   UNL     1      -5.702 -17.532  -0.626  0.00  0.00    +0.004 C 
ATOM     28  C   UNL     1      -4.754 -16.793  -1.578  0.00  0.00    +0.005 C 
ATOM     29  C   UNL     1      -5.273 -15.364  -1.761  0.00  0.00    +0.030 C 
ENDBRANCH  23  24
ENDBRANCH  22  23
ENDBRANCH  19  22
ENDBRANCH  18  19
ENDBRANCH   2  18
TORSDOF 9
