REMARK  Name = ZINC21875922
REMARK  12 active torsions:
REMARK  status: ('A' for Active; 'I' for Inactive)
REMARK    1  A    between atoms: C_1  and  C_2
REMARK    2  A    between atoms: C_5  and  C_36
REMARK    3  A    between atoms: C_6  and  N_8
REMARK    4  A    between atoms: C_14  and  C_16
REMARK    5  A    between atoms: C_22  and  C_27
REMARK    6  A    between atoms: C_22  and  C_28
REMARK    7  A    between atoms: N_23  and  C_26
REMARK    8  A    between atoms: N_30  and  C_31
REMARK    9  A    between atoms: C_31  and  C_32
REMARK   10  A    between atoms: C_32  and  C_33
REMARK   11  A    between atoms: C_33  and  C_34
REMARK   12  A    between atoms: C_33  and  C_35
REMARK                            x       y       z     vdW  Elec       q    Type
REMARK                         _______ _______ _______ _____ _____    ______ ____
ROOT
ATOM      1  C   UNL     1       2.043   0.805  -0.054  0.00  0.00    +0.148 A 
ATOM      2  C   UNL     1       1.295  -0.370   0.179  0.00  0.00    +0.067 A 
ATOM      3  C   UNL     1       0.001   0.003   0.051  0.00  0.00    +0.124 A 
ATOM      4  N   UNL     1      -0.013   1.350  -0.248  0.00  0.00    -0.256 N 
ATOM      5  N   UNL     1       1.186   1.782  -0.301  0.00  0.00    -0.166 NA
ATOM      6  C   UNL     1      -1.278   2.064  -0.458  0.00  0.00    +0.179 C 
ATOM      7  C   UNL     1      -2.317   1.100  -1.021  0.00  0.00    +0.130 C 
ATOM      8  N   UNL     1      -2.372  -0.161  -0.292  0.00  0.00    -0.284 N 
ATOM      9  C   UNL     1      -1.251  -0.763   0.177  0.00  0.00    +0.265 C 
ATOM     10  O   UNL     1      -1.278  -1.873   0.673  0.00  0.00    -0.268 OA
ATOM     11  C   UNL     1      -3.672  -0.795  -0.058  0.00  0.00    +0.133 C 
ATOM     12  C   UNL     1      -3.693   1.766  -0.961  0.00  0.00    +0.044 C 
ENDROOT
BRANCH   1  19
ATOM     13  N   UNL     1       5.303   4.518   0.665  0.00  0.00    -0.327 N 
ATOM     14  C   UNL     1       6.051   3.260   0.798  0.00  0.00    +0.124 C 
ATOM     15  C   UNL     1       5.558   2.263  -0.255  0.00  0.00    +0.127 C 
ATOM     16  N   UNL     1       4.098   2.134  -0.129  0.00  0.00    -0.293 N 
ATOM     17  C   UNL     1       3.289   3.362  -0.122  0.00  0.00    +0.127 C 
ATOM     18  C   UNL     1       3.873   4.317   0.932  0.00  0.00    +0.124 C 
ATOM     19  C   UNL     1       3.516   0.922  -0.029  0.00  0.00    +0.267 C 
ATOM     20  O   UNL     1       4.203  -0.074   0.084  0.00  0.00    -0.268 OA
BRANCH  13  26
ATOM     21  C   UNL     1       6.441   6.081   5.183  0.00  0.00    +0.044 C 
ATOM     22  C   UNL     1       6.399   6.291   3.692  0.00  0.00    -0.049 A 
ATOM     23  C   UNL     1       6.884   7.465   3.145  0.00  0.00    +0.004 A 
ATOM     24  C   UNL     1       6.847   7.662   1.777  0.00  0.00    +0.005 A 
ATOM     25  C   UNL     1       6.323   6.686   0.952  0.00  0.00    -0.029 A 
ATOM     26  C   UNL     1       5.834   5.506   1.497  0.00  0.00    +0.033 A 
ATOM     27  C   UNL     1       5.869   5.313   2.873  0.00  0.00    +0.026 A 
ATOM     28  C   UNL     1       6.282   6.902  -0.539  0.00  0.00    +0.045 C 
ENDBRANCH  13  26
ENDBRANCH   1  19
BRANCH   7  29
ATOM     29  C   UNL     1      -1.978   0.814  -2.462  0.00  0.00    +0.238 C 
ATOM     30  O   UNL     1      -1.287   1.589  -3.088  0.00  0.00    -0.273 OA
ATOM     31  N   UNL     1      -2.444  -0.304  -3.054  0.00  0.00    -0.313 N 
ATOM     32  H   UNL     1      -3.071  -1.007  -2.487  0.00  0.00    +0.149 HD
BRANCH  31  33
ATOM     33  C   UNL     1      -2.115  -0.582  -4.455  0.00  0.00    +0.104 C 
BRANCH  33  34
ATOM     34  C   UNL     1      -2.763  -1.901  -4.879  0.00  0.00    +0.022 C 
BRANCH  34  35
ATOM     35  C   UNL     1      -2.420  -2.191  -6.341  0.00  0.00    -0.016 C 
ATOM     36  C   UNL     1      -2.962  -3.569  -6.729  0.00  0.00    +0.007 C 
ATOM     37  C   UNL     1      -3.053  -1.124  -7.235  0.00  0.00    +0.007 C 
ENDBRANCH  34  35
ENDBRANCH  33  34
ENDBRANCH  31  33
ENDBRANCH   7  29
TORSDOF 6
