REMARK  Name = ZINC19223908
REMARK  9 active torsions:
REMARK  status: ('A' for Active; 'I' for Inactive)
REMARK    1  A    between atoms: C_1  and  N_2
REMARK    2  A    between atoms: N_2  and  C_3
REMARK    3  A    between atoms: C_4  and  C_6
REMARK    4  A    between atoms: C_9  and  N_12
REMARK    5  A    between atoms: C_13  and  C_15
REMARK    6  A    between atoms: C_15  and  S_16
REMARK    7  A    between atoms: S_16  and  C_17
REMARK    8  A    between atoms: C_17  and  C_18
REMARK    9  A    between atoms: N_24  and  C_25
REMARK                            x       y       z     vdW  Elec       q    Type
REMARK                         _______ _______ _______ _____ _____    ______ ____
ROOT
ATOM      1  C   UNL     1       0.866 -10.663  -2.884  0.00  0.00    +0.145 C 
ENDROOT
BRANCH   1   2
ATOM      2  C   UNL     1       1.060 -11.447  -4.157  0.00  0.00    +0.146 A 
ATOM      3  N   UNL     1       0.015 -11.774  -4.896  0.00  0.00    -0.199 NA
ATOM      4  C   UNL     1       0.182 -12.466  -6.020  0.00  0.00    +0.217 A 
ATOM      5  N   UNL     1       1.403 -12.828  -6.400  0.00  0.00    -0.181 NA
ATOM      6  C   UNL     1       2.452 -12.497  -5.654  0.00  0.00    +0.224 A 
ATOM      7  N   UNL     1       2.277 -11.801  -4.533  0.00  0.00    -0.198 NA
ATOM      8  N   UNL     1       3.723 -12.872  -6.044  0.00  0.00    -0.284 N 
ATOM      9  N   UNL     1      -0.910 -12.807  -6.791  0.00  0.00    -0.327 N 
ATOM     10  H   UNL     1       4.477 -12.715  -5.454  0.00  0.00    +0.155 HD
ATOM     11  H   UNL     1      -1.801 -12.543  -6.513  0.00  0.00    +0.145 HD
ATOM     12  H   UNL     1      -0.787 -13.311  -7.611  0.00  0.00    +0.145 HD
BRANCH   8  13
ATOM     13  C   UNL     1       3.923 -13.477  -7.288  0.00  0.00    +0.034 A 
ATOM     14  C   UNL     1       3.117 -13.135  -8.367  0.00  0.00    +0.023 A 
ATOM     15  C   UNL     1       3.317 -13.735  -9.594  0.00  0.00    +0.002 A 
ATOM     16  C   UNL     1       4.318 -14.676  -9.751  0.00  0.00    +0.000 A 
ATOM     17  C   UNL     1       5.122 -15.019  -8.679  0.00  0.00    +0.002 A 
ATOM     18  C   UNL     1       4.931 -14.419  -7.450  0.00  0.00    +0.023 A 
ENDBRANCH   8  13
ENDBRANCH   1   2
BRANCH   1  19
ATOM     19  S   UNL     1       0.942  -8.888  -3.250  0.00  0.00    -0.144 S 
BRANCH  19  20
ATOM     20  C   UNL     1       0.693  -8.096  -1.637  0.00  0.00    +0.165 C 
BRANCH  20  22
ATOM     21  N   UNL     1       0.571  -5.799  -0.728  0.00  0.00    -0.285 N 
ATOM     22  C   UNL     1       0.734  -6.599  -1.801  0.00  0.00    +0.227 C 
ATOM     23  O   UNL     1       0.913  -6.113  -2.898  0.00  0.00    -0.275 OA
ATOM     24  H   UNL     1       0.516  -6.184   0.160  0.00  0.00    +0.155 HD
BRANCH  21  28
ATOM     25  C   UNL     1       0.305  -1.672  -1.228  0.00  0.00    +0.037 A 
ATOM     26  C   UNL     1      -0.253  -2.530  -2.179  0.00  0.00    +0.015 A 
ATOM     27  C   UNL     1      -0.163  -3.894  -2.011  0.00  0.00    +0.024 A 
ATOM     28  C   UNL     1       0.483  -4.418  -0.896  0.00  0.00    +0.033 A 
ATOM     29  C   UNL     1       1.040  -3.566   0.053  0.00  0.00    +0.024 A 
ATOM     30  C   UNL     1       0.958  -2.202  -0.112  0.00  0.00    +0.015 A 
BRANCH  25  34
ATOM     31  C   UNL     1      -0.919   1.764  -2.277  0.00  0.00    +0.132 C 
ATOM     32  N   UNL     1      -0.741   0.312  -2.203  0.00  0.00    -0.304 N 
ATOM     33  C   UNL     1      -1.598  -0.572  -2.996  0.00  0.00    +0.132 C 
ATOM     34  C   UNL     1       0.211  -0.210  -1.405  0.00  0.00    +0.246 C 
ATOM     35  O   UNL     1       0.993   0.523  -0.831  0.00  0.00    -0.270 OA
ENDBRANCH  25  34
ENDBRANCH  21  28
ENDBRANCH  20  22
ENDBRANCH  19  20
ENDBRANCH   1  19
TORSDOF 7
