REMARK  Name = ZINC40799035
REMARK  9 active torsions:
REMARK  status: ('A' for Active; 'I' for Inactive)
REMARK    1  A    between atoms: C_1  and  C_2
REMARK    2  A    between atoms: C_2  and  O_3
REMARK    3  A    between atoms: O_3  and  C_4
REMARK    4  A    between atoms: C_4  and  C_6
REMARK    5  A    between atoms: C_11  and  N_12
REMARK    6  A    between atoms: C_14  and  N_33
REMARK    7  A    between atoms: C_15  and  N_19
REMARK    8  A    between atoms: N_19  and  C_20
REMARK    9  A    between atoms: C_20  and  C_21
REMARK                            x       y       z     vdW  Elec       q    Type
REMARK                         _______ _______ _______ _____ _____    ______ ____
ROOT
ATOM      1  N   UNL     1       0.592  -4.373  -1.608  0.00  0.00    -0.299 N 
ATOM      2  C   UNL     1       0.887  -5.731  -1.635  0.00  0.00    +0.126 A 
ATOM      3  C   UNL     1       0.262  -6.611  -0.749  0.00  0.00    +0.104 A 
ATOM      4  C   UNL     1       0.595  -7.965  -0.820  0.00  0.00    +0.153 A 
ATOM      5  N   UNL     1       1.489  -8.363  -1.722  0.00  0.00    -0.220 NA
ATOM      6  C   UNL     1       2.057  -7.499  -2.539  0.00  0.00    +0.200 A 
ATOM      7  N   UNL     1       1.767  -6.214  -2.509  0.00  0.00    -0.333 N 
ATOM      8  H   UNL     1       0.006  -4.018  -0.921  0.00  0.00    +0.154 HD
ATOM      9  H   UNL     1       2.204  -5.611  -3.131  0.00  0.00    +0.168 HD
ENDROOT
BRANCH   4  10
ATOM     10  N   UNL     1       0.001  -8.884   0.039  0.00  0.00    -0.264 N 
ATOM     11  C   UNL     1       0.554  -9.122   1.294  0.00  0.00    +0.127 A 
ATOM     12  C   UNL     1       1.616  -8.340   1.738  0.00  0.00    +0.044 A 
ATOM     13  C   UNL     1       2.155  -8.586   2.988  0.00  0.00    +0.005 A 
ATOM     14  C   UNL     1       1.613  -9.610   3.753  0.00  0.00    +0.020 A 
ATOM     15  C   UNL     1       0.560 -10.347   3.250  0.00  0.00    +0.113 A 
ATOM     16  N   UNL     1       0.062 -10.086   2.056  0.00  0.00    -0.240 NA
BRANCH  10  17
ATOM     17  C   UNL     1      -1.206  -9.602  -0.377  0.00  0.00    +0.149 C 
BRANCH  17  18
ATOM     18  C   UNL     1      -0.816 -10.882  -1.070  0.00  0.00    -0.030 A 
ATOM     19  C   UNL     1      -0.611 -10.893  -2.437  0.00  0.00    +0.005 A 
ATOM     20  C   UNL     1      -0.253 -12.068  -3.072  0.00  0.00    +0.000 A 
ATOM     21  C   UNL     1      -0.099 -13.230  -2.341  0.00  0.00    +0.000 A 
ATOM     22  C   UNL     1      -0.303 -13.219  -0.974  0.00  0.00    +0.000 A 
ATOM     23  C   UNL     1      -0.657 -12.044  -0.338  0.00  0.00    +0.005 A 
ENDBRANCH  17  18
ENDBRANCH  10  17
ENDBRANCH   4  10
BRANCH   1  29
ATOM     24  C   UNL     1       0.551  -3.431  -3.838  0.00  0.00    +0.080 A 
ATOM     25  C   UNL     1       1.105  -2.569  -4.789  0.00  0.00    +0.017 A 
ATOM     26  C   UNL     1       2.219  -1.823  -4.475  0.00  0.00    +0.001 A 
ATOM     27  C   UNL     1       2.796  -1.922  -3.218  0.00  0.00    +0.002 A 
ATOM     28  C   UNL     1       2.262  -2.768  -2.268  0.00  0.00    +0.024 A 
ATOM     29  C   UNL     1       1.135  -3.524  -2.565  0.00  0.00    +0.046 A 
BRANCH  24  30
ATOM     30  C   UNL     1      -0.641  -4.231  -4.167  0.00  0.00    +0.341 C 
ATOM     31  O   UNL     1      -1.094  -5.010  -3.352  0.00  0.00    -0.245 OA
BRANCH  30  32
ATOM     32  O   UNL     1      -1.229  -4.099  -5.373  0.00  0.00    -0.461 OA
BRANCH  32  34
ATOM     33  C   UNL     1      -2.907  -4.620  -7.033  0.00  0.00    +0.048 C 
ATOM     34  C   UNL     1      -2.381  -4.906  -5.624  0.00  0.00    +0.229 C 
ENDBRANCH  32  34
ENDBRANCH  30  32
ENDBRANCH  24  30
ENDBRANCH   1  29
BRANCH   3  35
ATOM     35  N   UNL     1      -0.676  -6.147   0.186  0.00  0.00    -0.353 N 
ATOM     36  H   UNL     1      -0.842  -5.196   0.276  0.00  0.00    +0.143 HD
ATOM     37  H   UNL     1      -1.159  -6.778   0.743  0.00  0.00    +0.143 HD
ENDBRANCH   3  35
TORSDOF 8
