REMARK  Name = ZINC41601591
REMARK  6 active torsions:
REMARK  status: ('A' for Active; 'I' for Inactive)
REMARK    1  A    between atoms: C_1  and  C_2
REMARK    2  A    between atoms: C_2  and  C_23
REMARK    3  A    between atoms: C_4  and  N_10
REMARK    4  A    between atoms: C_6  and  C_8
REMARK    5  A    between atoms: C_6  and  C_9
REMARK    6  A    between atoms: C_15  and  C_18
REMARK                            x       y       z     vdW  Elec       q    Type
REMARK                         _______ _______ _______ _____ _____    ______ ____
ROOT
ATOM      1  N   UNL     1       1.633  -2.333  -2.511  0.00  0.00    -0.311 N 
ATOM      2  C   UNL     1       1.546  -3.624  -2.962  0.00  0.00    +0.213 A 
ATOM      3  N   UNL     1       0.853  -4.504  -2.266  0.00  0.00    -0.174 NA
ATOM      4  C   UNL     1       0.750  -5.771  -2.680  0.00  0.00    +0.301 A 
ATOM      5  O   UNL     1       0.105  -6.581  -2.032  0.00  0.00    -0.263 OA
ATOM      6  C   UNL     1       1.421  -6.181  -3.926  0.00  0.00    +0.164 A 
ATOM      7  N   UNL     1       2.107  -5.281  -4.599  0.00  0.00    -0.165 NA
ATOM      8  N   UNL     1       2.172  -3.967  -4.115  0.00  0.00    -0.248 N 
ATOM      9  H   UNL     1       2.137  -1.676  -3.016  0.00  0.00    +0.149 HD
ATOM     10  H   UNL     1       2.672  -3.298  -4.607  0.00  0.00    +0.192 HD
ENDROOT
BRANCH   1  14
ATOM     11  C   UNL     1      -0.019   1.542   0.011  0.00  0.00    -0.010 C 
ATOM     12  C   UNL     1       0.002  -0.004   0.002  0.00  0.00    -0.072 C 
ATOM     13  C   UNL     1       0.670  -0.443  -1.297  0.00  0.00    +0.009 C 
ATOM     14  C   UNL     1       0.963  -1.944  -1.265  0.00  0.00    +0.071 C 
ATOM     15  C   UNL     1       1.892  -2.223  -0.084  0.00  0.00    +0.009 C 
ATOM     16  C   UNL     1       1.233  -1.798   1.224  0.00  0.00    -0.072 C 
ATOM     17  N   UNL     1       0.711  -0.443   1.191  0.00  0.00    +0.386 N 
ATOM     18  C   UNL     1       2.314  -1.859   2.328  0.00  0.00    -0.010 C 
ATOM     19  C   UNL     1       0.143  -2.805   1.606  0.00  0.00    -0.010 C 
ATOM     20  C   UNL     1      -1.457  -0.473   0.018  0.00  0.00    -0.010 C 
ATOM     21  H   UNL     1       1.489   0.204   1.356  0.00  0.00    -0.084 HD
ATOM     22  H   UNL     1       0.093  -0.317   1.998  0.00  0.00    -0.084 HD
ENDBRANCH   1  14
BRANCH   6  23
ATOM     23  C   UNL     1       1.328  -7.572  -4.410  0.00  0.00    +0.045 A 
ATOM     24  C   UNL     1       1.882  -8.136  -5.529  0.00  0.00    +0.018 A 
ATOM     25  C   UNL     1       1.654  -9.471  -5.779  0.00  0.00    +0.008 A 
ATOM     26  C   UNL     1       0.891 -10.186  -4.912  0.00  0.00    +0.046 A 
ATOM     27  S   UNL     1       0.470  -8.960  -3.684  0.00  0.00    -0.095 S 
ENDBRANCH   6  23
TORSDOF 2
