REMARK  Name = ZINC39856024
REMARK  9 active torsions:
REMARK  status: ('A' for Active; 'I' for Inactive)
REMARK    1  A    between atoms: C_1  and  C_2
REMARK    2  A    between atoms: C_6  and  C_7
REMARK    3  A    between atoms: N_9  and  C_10
REMARK    4  A    between atoms: C_13  and  O_19
REMARK    5  A    between atoms: C_15  and  N_16
REMARK    6  A    between atoms: O_19  and  C_20
REMARK    7  A    between atoms: C_22  and  C_30
REMARK    8  A    between atoms: C_22  and  C_31
REMARK    9  A    between atoms: N_25  and  N_26
REMARK                            x       y       z     vdW  Elec       q    Type
REMARK                         _______ _______ _______ _____ _____    ______ ____
ROOT
ATOM      1  C   UNL     1      -0.026   1.501   0.010  0.00  0.00    +0.048 C 
ATOM      2  C   UNL     1       0.011  -0.006   0.002  0.00  0.00    +0.009 A 
ATOM      3  C   UNL     1       0.034  -0.840  -1.123  0.00  0.00    +0.043 A 
ATOM      4  C   UNL     1       0.065  -2.138  -0.673  0.00  0.00    +0.116 A 
ATOM      5  O   UNL     1       0.064  -2.113   0.658  0.00  0.00    -0.454 OA
ATOM      6  C   UNL     1       0.036  -0.832   1.091  0.00  0.00    +0.193 A 
ATOM      7  C   UNL     1       0.090  -3.327  -1.600  0.00  0.00    +0.081 C 
ATOM      8  C   UNL     1      -0.431  -2.909  -2.977  0.00  0.00    -0.023 C 
ATOM      9  C   UNL     1       0.328  -1.683  -3.493  0.00  0.00    +0.064 C 
ATOM     10  C   UNL     1       0.031  -0.513  -2.566  0.00  0.00    +0.073 C 
ATOM     11  N   UNL     1      -0.208   0.682  -3.009  0.00  0.00    -0.175 NA
ATOM     12  C   UNL     1      -0.245  -4.067  -3.959  0.00  0.00    +0.011 C 
ATOM     13  C   UNL     1      -1.920  -2.573  -2.872  0.00  0.00    +0.011 C 
ENDROOT
BRANCH  11  14
ATOM     14  N   UNL     1      -0.198   0.934  -4.387  0.00  0.00    -0.248 N 
ATOM     15  C   UNL     1      -0.451   2.196  -4.854  0.00  0.00    +0.187 C 
ATOM     16  N   UNL     1      -0.442   2.435  -6.165  0.00  0.00    -0.370 N 
ATOM     17  N   UNL     1      -0.707   3.185  -3.998  0.00  0.00    -0.370 N 
ATOM     18  H   UNL     1      -0.013   0.214  -5.010  0.00  0.00    +0.192 HD
ATOM     19  H   UNL     1      -0.256   1.716  -6.788  0.00  0.00    +0.159 HD
ATOM     20  H   UNL     1      -0.714   3.010  -3.044  0.00  0.00    +0.159 HD
ATOM     21  H   UNL     1      -0.886   4.079  -4.329  0.00  0.00    +0.159 HD
ATOM     22  H   UNL     1      -0.621   3.329  -6.496  0.00  0.00    +0.159 HD
ENDBRANCH  11  14
BRANCH   6  23
ATOM     23  C   UNL     1       0.030  -0.401   2.494  0.00  0.00    +0.284 C 
ATOM     24  O   UNL     1       0.001   0.785   2.766  0.00  0.00    -0.266 OA
ATOM     25  N   UNL     1       0.056  -1.319   3.480  0.00  0.00    -0.277 N 
ATOM     26  H   UNL     1      -0.002  -2.263   3.266  0.00  0.00    +0.155 HD
BRANCH  25  27
ATOM     27  C   UNL     1       0.168  -0.909   4.814  0.00  0.00    +0.064 A 
ATOM     28  C   UNL     1       0.760   0.309   5.120  0.00  0.00    +0.029 A 
ATOM     29  C   UNL     1       0.870   0.713   6.436  0.00  0.00    +0.047 A 
ATOM     30  C   UNL     1       0.389  -0.099   7.453  0.00  0.00    +0.122 A 
ATOM     31  C   UNL     1      -0.203  -1.316   7.149  0.00  0.00    +0.080 A 
ATOM     32  C   UNL     1      -0.318  -1.718   5.833  0.00  0.00    +0.151 A 
BRANCH  32  33
ATOM     33  N   UNL     1      -0.955  -3.014   5.508  0.00  0.00    +0.058 N 
ATOM     34  O   UNL     1      -1.458  -3.677   6.385  0.00  0.00    -0.126 OA
ATOM     35  O   UNL     1      -0.973  -3.410   4.366  0.00  0.00    -0.126 OA
ENDBRANCH  32  33
BRANCH  30  36
ATOM     36  O   UNL     1       0.498   0.299   8.749  0.00  0.00    -0.495 OA
ATOM     37  C   UNL     1       1.118   1.563   8.989  0.00  0.00    +0.277 C 
ENDBRANCH  30  36
ENDBRANCH  25  27
ENDBRANCH   6  23
TORSDOF 5
