REMARK  Name = ZINC40024828
REMARK  8 active torsions:
REMARK  status: ('A' for Active; 'I' for Inactive)
REMARK    1  A    between atoms: C_1  and  C_2
REMARK    2  A    between atoms: C_2  and  C_4
REMARK    3  A    between atoms: C_2  and  N_10
REMARK    4  A    between atoms: N_6  and  C_7
REMARK    5  A    between atoms: N_13  and  C_16
REMARK    6  A    between atoms: C_16  and  C_18
REMARK    7  A    between atoms: C_16  and  C_19
REMARK    8  A    between atoms: N_24  and  C_25
REMARK                            x       y       z     vdW  Elec       q    Type
REMARK                         _______ _______ _______ _____ _____    ______ ____
ROOT
ATOM      1  C   UNL     1       4.273  -3.566   0.906  0.00  0.00    +0.140 C 
ATOM      2  C   UNL     1       3.992  -3.834   2.385  0.00  0.00    +0.034 C 
ENDROOT
BRANCH   1   3
ATOM      3  C   UNL     1       5.655  -2.984   0.754  0.00  0.00    +0.237 C 
ATOM      4  O   UNL     1       5.800  -1.887   0.260  0.00  0.00    -0.274 OA
ATOM      5  N   UNL     1       6.730  -3.684   1.168  0.00  0.00    -0.239 N 
ATOM      6  C   UNL     1       7.966  -3.163   1.032  0.00  0.00    +0.306 C 
ATOM      7  O   UNL     1       8.111  -2.063   0.537  0.00  0.00    -0.252 OA
ATOM      8  N   UNL     1       9.041  -3.863   1.446  0.00  0.00    -0.294 N 
ATOM      9  H   UNL     1       6.614  -4.562   1.563  0.00  0.00    +0.159 HD
ATOM     10  H   UNL     1       8.925  -4.741   1.842  0.00  0.00    +0.151 HD
BRANCH   8  11
ATOM     11  C   UNL     1      10.384  -3.297   1.299  0.00  0.00    +0.037 C 
ATOM     12  C   UNL     1      10.665  -3.029  -0.181  0.00  0.00    +0.029 C 
ATOM     13  C   UNL     1      12.068  -2.438  -0.335  0.00  0.00    -0.008 C 
ATOM     14  C   UNL     1      13.101  -3.428   0.209  0.00  0.00    +0.007 C 
ATOM     15  C   UNL     1      12.820  -3.696   1.689  0.00  0.00    -0.008 C 
ATOM     16  C   UNL     1      11.417  -4.287   1.843  0.00  0.00    +0.029 C 
ATOM     17  C   UNL     1      12.909  -2.384   2.471  0.00  0.00    +0.007 C 
ATOM     18  C   UNL     1      11.877  -1.394   1.927  0.00  0.00    -0.008 C 
ATOM     19  C   UNL     1      12.157  -1.126   0.447  0.00  0.00    +0.007 C 
ATOM     20  C   UNL     1      10.474  -1.985   2.081  0.00  0.00    +0.029 C 
ENDBRANCH   8  11
ENDBRANCH   1   3
BRANCH   1  24
ATOM     21  N   UNL     1       0.967  -0.953   0.573  0.00  0.00    +0.389 N 
ATOM     22  C   UNL     1       0.941  -2.202  -0.200  0.00  0.00    -0.062 C 
ATOM     23  C   UNL     1       1.932  -3.198   0.405  0.00  0.00    +0.066 C 
ATOM     24  N   UNL     1       3.282  -2.616   0.383  0.00  0.00    -0.295 NA
ATOM     25  C   UNL     1       3.318  -1.352   1.133  0.00  0.00    +0.066 C 
ATOM     26  C   UNL     1       2.315  -0.371   0.521  0.00  0.00    -0.062 C 
ATOM     27  H   UNL     1       0.721  -1.147   1.532  0.00  0.00    -0.081 HD
BRANCH  21  29
ATOM     28  C   UNL     1       0.061   1.312   0.780  0.00  0.00    -0.004 C 
ATOM     29  C   UNL     1       0.002  -0.004   0.002  0.00  0.00    +0.016 C 
BRANCH  29  30
ATOM     30  C   UNL     1      -1.387  -0.582   0.096  0.00  0.00    +0.199 C 
ATOM     31  O   UNL     1      -1.657  -1.371   0.976  0.00  0.00    -0.278 OA
ATOM     32  N   UNL     1      -2.329  -0.221  -0.798  0.00  0.00    -0.314 N 
ATOM     33  H   UNL     1      -2.113   0.410  -1.502  0.00  0.00    +0.149 HD
BRANCH  32  34
ATOM     34  C   UNL     1      -3.679  -0.783  -0.706  0.00  0.00    +0.073 C 
ATOM     35  C   UNL     1      -4.343  -1.241  -2.006  0.00  0.00    +0.024 C 
ATOM     36  C   UNL     1      -4.825   0.032  -1.308  0.00  0.00    +0.024 C 
ENDBRANCH  32  34
ENDBRANCH  29  30
ENDBRANCH  21  29
ENDBRANCH   1  24
TORSDOF 6
