REMARK  Name = ZINC12872522
REMARK  8 active torsions:
REMARK  status: ('A' for Active; 'I' for Inactive)
REMARK    1  A    between atoms: C_1  and  C_2
REMARK    2  A    between atoms: C_2  and  C_3
REMARK    3  A    between atoms: C_3  and  C_4
REMARK    4  A    between atoms: C_4  and  C_5
REMARK    5  A    between atoms: C_8  and  N_11
REMARK    6  A    between atoms: C_16  and  C_34
REMARK    7  A    between atoms: C_25  and  C_33
REMARK    8  A    between atoms: C_34  and  C_35
REMARK                            x       y       z     vdW  Elec       q    Type
REMARK                         _______ _______ _______ _____ _____    ______ ____
ROOT
ATOM      1  N   UNL     1       1.070   6.588  -1.287  0.00  0.00    -0.210 N 
ATOM      2  C   UNL     1      -0.222   6.382  -1.006  0.00  0.00    +0.228 C 
ATOM      3  O   UNL     1      -1.065   7.248  -0.910  0.00  0.00    -0.275 OA
ATOM      4  C   UNL     1      -0.467   4.901  -0.827  0.00  0.00    +0.074 C 
ATOM      5  C   UNL     1      -0.802   4.614   0.652  0.00  0.00    -0.049 C 
ATOM      6  C   UNL     1       1.313   3.681   0.316  0.00  0.00    +0.050 C 
ATOM      7  C   UNL     1       0.938   4.275  -1.048  0.00  0.00    +0.088 C 
ATOM      8  C   UNL     1       1.812   5.476  -1.337  0.00  0.00    +0.229 C 
ATOM      9  O   UNL     1       2.999   5.436  -1.576  0.00  0.00    -0.275 OA
ATOM     10  C   UNL     1       1.030   2.207   0.372  0.00  0.00    -0.026 A 
ATOM     11  C   UNL     1      -0.113   1.455   0.210  0.00  0.00    +0.008 A 
ATOM     12  C   UNL     1      -0.057   0.077   0.323  0.00  0.00    -0.049 A 
ATOM     13  C   UNL     1       1.149  -0.543   0.598  0.00  0.00    +0.025 A 
ATOM     14  C   UNL     1       2.297   0.207   0.760  0.00  0.00    +0.063 A 
ATOM     15  C   UNL     1       2.249   1.595   0.647  0.00  0.00    +0.054 A 
ATOM     16  N   UNL     1       3.255   2.557   0.766  0.00  0.00    -0.285 N 
ATOM     17  C   UNL     1       2.788   3.807   0.585  0.00  0.00    +0.211 C 
ATOM     18  O   UNL     1       3.431   4.834   0.630  0.00  0.00    -0.277 OA
ATOM     19 CL   UNL     1       3.804  -0.582   1.103  0.00  0.00    -0.082 Cl
ATOM     20  C   UNL     1      -1.306  -0.747   0.147  0.00  0.00    +0.044 C 
ATOM     21  H   UNL     1       4.183   2.348   0.958  0.00  0.00    +0.155 HD
ATOM     22  N   UNL     1       0.507   4.411   1.278  0.00  0.00    +0.394 N 
ATOM     23  H   UNL     1       0.406   3.866   2.142  0.00  0.00    -0.083 HD
ATOM     24  H   UNL     1       0.942   5.316   1.493  0.00  0.00    -0.083 HD
ENDROOT
BRANCH   1  28
ATOM     25  C   UNL     1       2.655  10.385  -1.953  0.00  0.00    -0.047 A 
ATOM     26  C   UNL     1       2.194  10.041  -0.696  0.00  0.00    +0.005 A 
ATOM     27  C   UNL     1       1.668   8.784  -0.472  0.00  0.00    +0.024 A 
ATOM     28  C   UNL     1       1.603   7.865  -1.511  0.00  0.00    +0.044 A 
ATOM     29  C   UNL     1       2.071   8.212  -2.771  0.00  0.00    +0.024 A 
ATOM     30  C   UNL     1       2.591   9.473  -2.990  0.00  0.00    +0.005 A 
BRANCH  25  31
ATOM     31  C   UNL     1       3.228  11.758  -2.194  0.00  0.00    +0.035 C 
BRANCH  31  32
ATOM     32  C   UNL     1       4.734  11.736  -1.928  0.00  0.00    +0.004 C 
BRANCH  32  34
ATOM     33  C   UNL     1       6.822  13.108  -1.906  0.00  0.00    +0.004 C 
ATOM     34  C   UNL     1       5.316  13.130  -2.172  0.00  0.00    -0.003 C 
ENDBRANCH  32  34
ENDBRANCH  31  32
ENDBRANCH  25  31
ENDBRANCH   1  28
BRANCH   5  35
ATOM     35  C   UNL     1      -1.539   5.803   1.272  0.00  0.00    +0.080 C 
BRANCH  35  36
ATOM     36  C   UNL     1      -1.897   5.483   2.700  0.00  0.00    +0.209 C 
ATOM     37  O   UNL     1      -1.593   4.410   3.176  0.00  0.00    -0.276 OA
ATOM     38  N   UNL     1      -2.555   6.390   3.449  0.00  0.00    -0.329 N 
ATOM     39  H   UNL     1      -2.798   7.248   3.069  0.00  0.00    +0.145 HD
ATOM     40  H   UNL     1      -2.786   6.184   4.368  0.00  0.00    +0.145 HD
ENDBRANCH  35  36
ENDBRANCH   5  35
TORSDOF 6
