REMARK  Name = ZINC04577559
REMARK  12 active torsions:
REMARK  status: ('A' for Active; 'I' for Inactive)
REMARK    1  A    between atoms: C_1  and  C_2
REMARK    2  A    between atoms: C_2  and  C_3
REMARK    3  A    between atoms: C_3  and  C_5
REMARK    4  A    between atoms: C_3  and  C_6
REMARK    5  A    between atoms: C_6  and  C_8
REMARK    6  A    between atoms: C_6  and  N_78
REMARK    7  A    between atoms: N_10  and  C_11
REMARK    8  A    between atoms: C_11  and  C_12
REMARK    9  A    between atoms: C_12  and  C_13
REMARK   10  A    between atoms: C_13  and  C_14
REMARK   11  A    between atoms: C_14  and  C_15
REMARK   12  A    between atoms: C_15  and  C_16
REMARK                            x       y       z     vdW  Elec       q    Type
REMARK                         _______ _______ _______ _____ _____    ______ ____
ROOT
ATOM      1  C   UNL     1      -6.950   8.600  -2.934  0.00  0.00    +0.216 C 
ATOM      2  O   UNL     1      -6.705   9.152  -1.882  0.00  0.00    -0.276 OA
ATOM      3  N   UNL     1      -7.628   9.256  -3.897  0.00  0.00    -0.297 N 
ATOM      4  C   UNL     1      -7.919   8.593  -5.171  0.00  0.00    +0.136 C 
ATOM      5  C   UNL     1      -9.338   8.966  -5.620  0.00  0.00    +0.179 C 
ATOM      6  O   UNL     1      -9.600   8.388  -6.900  0.00  0.00    -0.375 OA
ATOM      7  C   UNL     1     -10.907   7.824  -7.025  0.00  0.00    +0.200 C 
ATOM      8  C   UNL     1     -11.946   8.828  -6.522  0.00  0.00    +0.257 C 
ATOM      9  O   UNL     1     -12.594   8.303  -5.362  0.00  0.00    -0.486 OA
ATOM     10  C   UNL     1     -13.775   8.875  -5.004  0.00  0.00    +0.162 A 
ATOM     11  C   UNL     1     -14.962   8.423  -5.559  0.00  0.00    +0.049 A 
ATOM     12  C   UNL     1     -16.161   9.008  -5.196  0.00  0.00    +0.004 A 
ATOM     13  C   UNL     1     -16.180  10.043  -4.280  0.00  0.00    +0.004 A 
ATOM     14  C   UNL     1     -14.999  10.498  -3.721  0.00  0.00    +0.049 A 
ATOM     15  C   UNL     1     -13.794   9.916  -4.080  0.00  0.00    +0.162 A 
ATOM     16  O   UNL     1     -12.632  10.361  -3.532  0.00  0.00    -0.486 OA
ATOM     17  C   UNL     1     -12.585  10.464  -2.107  0.00  0.00    +0.257 C 
ATOM     18  C   UNL     1     -11.200  10.950  -1.676  0.00  0.00    +0.200 C 
ATOM     19  O   UNL     1     -10.303  10.882  -2.786  0.00  0.00    -0.375 OA
ATOM     20  C   UNL     1      -8.935  10.698  -2.415  0.00  0.00    +0.179 C 
ATOM     21  C   UNL     1      -8.068  10.636  -3.674  0.00  0.00    +0.136 C 
ENDROOT
BRANCH   1  22
ATOM     22  C   UNL     1      -6.498   7.181  -3.164  0.00  0.00    +0.096 C 
BRANCH  22  23
ATOM     23  C   UNL     1      -5.758   6.675  -1.925  0.00  0.00    +0.009 C 
BRANCH  23  24
ATOM     24  C   UNL     1      -5.299   5.234  -2.158  0.00  0.00    +0.002 C 
BRANCH  24  25
ATOM     25  C   UNL     1      -4.559   4.727  -0.919  0.00  0.00    +0.019 C 
BRANCH  25  26
ATOM     26  C   UNL     1      -4.100   3.286  -1.153  0.00  0.00    +0.104 C 
BRANCH  26  29
ATOM     27  C   UNL     1      -2.893   1.549   0.057  0.00  0.00    +0.199 C 
ATOM     28  O   UNL     1      -3.032   0.824  -0.905  0.00  0.00    -0.278 OA
ATOM     29  N   UNL     1      -3.391   2.801   0.034  0.00  0.00    -0.317 N 
ATOM     30  H   UNL     1      -3.280   3.381   0.804  0.00  0.00    +0.149 HD
BRANCH  27  31
ATOM     31  C   UNL     1      -2.164   1.050   1.278  0.00  0.00    +0.016 C 
BRANCH  31  34
ATOM     32  H   UNL     1      -1.676  -0.770   0.447  0.00  0.00    -0.089 HD
ATOM     33  H   UNL     1      -1.718  -0.780   2.110  0.00  0.00    -0.089 HD
ATOM     34  N   UNL     1      -2.169  -0.424   1.269  0.00  0.00    +0.386 N 
ATOM     35  H   UNL     1      -3.140  -0.758   1.243  0.00  0.00    -0.089 HD
ENDBRANCH  31  34
BRANCH  31  36
ATOM     36  C   UNL     1      -0.729   1.579   1.267  0.00  0.00    -0.020 C 
ATOM     37  C   UNL     1      -0.013   1.086   0.008  0.00  0.00    +0.006 C 
BRANCH  36  39
ATOM     38  C   UNL     1       1.405   1.701   2.561  0.00  0.00    +0.004 C 
ATOM     39  C   UNL     1       0.011   1.072   2.506  0.00  0.00    -0.001 C 
ENDBRANCH  36  39
ENDBRANCH  31  36
ENDBRANCH  27  31
ENDBRANCH  26  29
ENDBRANCH  25  26
ENDBRANCH  24  25
ENDBRANCH  23  24
ENDBRANCH  22  23
ENDBRANCH   1  22
TORSDOF 10
