REMARK  Name = ZINC35664222
REMARK  15 active torsions:
REMARK  status: ('A' for Active; 'I' for Inactive)
REMARK    1  A    between atoms: C_1  and  C_2
REMARK    2  A    between atoms: C_2  and  O_3
REMARK    3  A    between atoms: O_3  and  C_4
REMARK    4  A    between atoms: C_4  and  C_6
REMARK    5  A    between atoms: C_7  and  C_25
REMARK    6  A    between atoms: N_8  and  C_24
REMARK    7  A    between atoms: C_12  and  C_14
REMARK    8  A    between atoms: C_18  and  O_22
REMARK    9  A    between atoms: C_19  and  O_20
REMARK   10  A    between atoms: O_20  and  C_21
REMARK   11  A    between atoms: O_22  and  C_23
REMARK   12  A    between atoms: C_25  and  N_26
REMARK   13  A    between atoms: N_35  and  C_36
REMARK   14  A    between atoms: C_36  and  C_37
REMARK   15  A    between atoms: C_36  and  C_38
REMARK                            x       y       z     vdW  Elec       q    Type
REMARK                         _______ _______ _______ _____ _____    ______ ____
ROOT
ATOM      1  C   UNL     1       0.944  -2.537  -3.035  0.00  0.00    +0.077 C 
ATOM      2  C   UNL     1       1.273  -3.845  -2.972  0.00  0.00    +0.010 C 
ATOM      3  N   UNL     1       2.253  -4.364  -3.769  0.00  0.00    -0.264 N 
ATOM      4  C   UNL     1       2.951  -3.642  -4.654  0.00  0.00    +0.307 C 
ATOM      5  O   UNL     1       3.805  -4.194  -5.319  0.00  0.00    -0.252 OA
ATOM      6  N   UNL     1       2.737  -2.323  -4.831  0.00  0.00    -0.288 N 
ATOM      7  C   UNL     1       1.694  -1.668  -4.024  0.00  0.00    +0.147 C 
ATOM      8  C   UNL     1       2.558  -5.792  -3.647  0.00  0.00    +0.139 C 
ATOM      9  H   UNL     1       3.254  -1.819  -5.478  0.00  0.00    +0.151 HD
ENDROOT
BRANCH   7  10
ATOM     10  C   UNL     1       2.345  -0.547  -3.255  0.00  0.00    +0.023 A 
ATOM     11  C   UNL     1       2.528  -0.660  -1.889  0.00  0.00    +0.009 A 
ATOM     12  C   UNL     1       3.125   0.366  -1.181  0.00  0.00    +0.004 A 
ATOM     13  C   UNL     1       3.542   1.511  -1.836  0.00  0.00    +0.049 A 
ATOM     14  C   UNL     1       3.362   1.631  -3.204  0.00  0.00    +0.162 A 
ATOM     15  C   UNL     1       2.767   0.594  -3.918  0.00  0.00    +0.167 A 
BRANCH  15  16
ATOM     16  O   UNL     1       2.593   0.705  -5.262  0.00  0.00    -0.491 OA
ATOM     17  C   UNL     1       1.422   1.389  -5.711  0.00  0.00    +0.277 C 
ENDBRANCH  15  16
BRANCH  14  18
ATOM     18  O   UNL     1       3.772   2.755  -3.850  0.00  0.00    -0.491 OA
ATOM     19  C   UNL     1       4.380   3.775  -3.054  0.00  0.00    +0.277 C 
ENDBRANCH  14  18
ENDBRANCH   7  10
BRANCH   1  20
ATOM     20  C   UNL     1      -0.072  -1.998  -2.211  0.00  0.00    +0.339 C 
ATOM     21  O   UNL     1      -0.737  -2.733  -1.506  0.00  0.00    -0.245 OA
BRANCH  20  22
ATOM     22  O   UNL     1      -0.303  -0.668  -2.207  0.00  0.00    -0.462 OA
BRANCH  22  24
ATOM     23  C   UNL     1      -1.481   1.318  -1.496  0.00  0.00    +0.048 C 
ATOM     24  C   UNL     1      -1.266  -0.180  -1.271  0.00  0.00    +0.229 C 
ENDBRANCH  22  24
ENDBRANCH  20  22
ENDBRANCH   1  20
BRANCH   2  25
ATOM     25  C   UNL     1       0.547  -4.746  -2.007  0.00  0.00    -0.026 C 
BRANCH  25  26
ATOM     26  N   UNL     1      -0.731  -5.167  -2.596  0.00  0.00    +0.384 N 
ATOM     27  C   UNL     1      -1.515  -5.842  -1.563  0.00  0.00    -0.077 C 
ATOM     28  C   UNL     1      -2.988  -5.646  -1.847  0.00  0.00    +0.000 C 
ATOM     29  C   UNL     1      -3.514  -6.837  -2.668  0.00  0.00    +0.107 C 
ATOM     30  N   UNL     1      -2.531  -7.256  -3.687  0.00  0.00    -0.287 N 
ATOM     31  C   UNL     1      -1.774  -6.302  -4.472  0.00  0.00    +0.091 C 
ATOM     32  C   UNL     1      -0.459  -5.947  -3.741  0.00  0.00    -0.059 C 
ATOM     33  C   UNL     1      -2.329  -8.572  -3.893  0.00  0.00    +0.302 C 
ATOM     34  O   UNL     1      -3.018  -9.390  -3.314  0.00  0.00    -0.253 OA
ATOM     35  N   UNL     1      -1.365  -8.982  -4.740  0.00  0.00    -0.297 N 
ATOM     36  H   UNL     1      -0.864  -8.331  -5.256  0.00  0.00    +0.150 HD
ATOM     37  H   UNL     1      -1.234  -4.341  -2.885  0.00  0.00    -0.081 HD
BRANCH  35  38
ATOM     38  C   UNL     1      -1.073 -10.411  -4.883  0.00  0.00    +0.068 C 
ATOM     39  C   UNL     1      -2.030 -11.027  -5.906  0.00  0.00    +0.027 C 
ATOM     40  C   UNL     1       0.369 -10.592  -5.359  0.00  0.00    +0.027 C 
ENDBRANCH  35  38
ENDBRANCH  25  26
ENDBRANCH   2  25
TORSDOF 9
