REMARK  Name = ZINC32106015
REMARK  7 active torsions:
REMARK  status: ('A' for Active; 'I' for Inactive)
REMARK    1  A    between atoms: C_1  and  N_2
REMARK    2  A    between atoms: C_3  and  C_5
REMARK    3  A    between atoms: C_7  and  C_27
REMARK    4  A    between atoms: N_9  and  C_21
REMARK    5  A    between atoms: N_12  and  N_13
REMARK    6  A    between atoms: N_13  and  C_14
REMARK    7  A    between atoms: N_29  and  C_30
REMARK                            x       y       z     vdW  Elec       q    Type
REMARK                         _______ _______ _______ _____ _____    ______ ____
ROOT
ATOM      1  C   UNL     1       2.782  -0.030   1.260  0.00  0.00    +0.114 C 
ATOM      2  C   UNL     1       2.596   0.783  -0.039  0.00  0.00    +0.038 C 
ATOM      3  N   UNL     1       3.595   1.878   0.070  0.00  0.00    +0.393 N 
ATOM      4  C   UNL     1       4.776   1.219   0.685  0.00  0.00    -0.023 C 
ATOM      5  C   UNL     1       4.198   0.268   1.720  0.00  0.00    +0.031 C 
ATOM      6  N   UNL     1       4.783  -0.187   2.764  0.00  0.00    -0.193 NA
ATOM      7  H   UNL     1       3.231   2.737   0.652  0.00  0.00    -0.080 HD
ENDROOT
BRANCH   3   8
ATOM      8  C   UNL     1       3.926   2.423  -1.253  0.00  0.00    -0.067 C 
ATOM      9  C   UNL     1       4.555   1.326  -2.114  0.00  0.00    -0.015 C 
ATOM     10  C   UNL     1       4.900   1.894  -3.492  0.00  0.00    -0.002 C 
ATOM     11  C   UNL     1       5.891   3.050  -3.334  0.00  0.00    -0.000 C 
ATOM     12  C   UNL     1       5.262   4.147  -2.473  0.00  0.00    -0.002 C 
ATOM     13  C   UNL     1       4.917   3.579  -1.095  0.00  0.00    -0.015 C 
ENDBRANCH   3   8
BRANCH   1  16
ATOM     14  C   UNL     1       2.585  -3.825   1.716  0.00  0.00    +0.128 C 
ATOM     15  N   UNL     1       2.743  -2.394   1.985  0.00  0.00    -0.318 N 
ATOM     16  C   UNL     1       2.619  -1.502   0.983  0.00  0.00    +0.220 C 
ATOM     17  O   UNL     1       2.377  -1.884  -0.143  0.00  0.00    -0.275 OA
ATOM     18  H   UNL     1       2.963  -2.048   3.006  0.00  0.00    +0.148 HD
ENDBRANCH   1  16
BRANCH   2  19
ATOM     19  C   UNL     1       1.201   1.348  -0.113  0.00  0.00    +0.200 C 
ATOM     20  O   UNL     1       1.034   2.548  -0.149  0.00  0.00    -0.278 OA
ATOM     21  N   UNL     1       0.139   0.518  -0.140  0.00  0.00    -0.320 N 
ATOM     22  C   UNL     1      -1.218   1.067  -0.218  0.00  0.00    +0.128 C 
ATOM     23  H   UNL     1       0.290  -0.571  -0.102  0.00  0.00    +0.148 HD
ENDBRANCH   2  19
BRANCH   6  24
ATOM     24  N   UNL     1       6.103   0.189   3.047  0.00  0.00    -0.238 N 
ATOM     25  H   UNL     1       6.636   0.875   2.372  0.00  0.00    +0.174 HD
BRANCH  24  26
ATOM     26  C   UNL     1       6.741  -0.307   4.186  0.00  0.00    +0.048 A 
ATOM     27  C   UNL     1       6.067  -1.169   5.042  0.00  0.00    +0.026 A 
ATOM     28  C   UNL     1       6.703  -1.663   6.163  0.00  0.00    +0.022 A 
ATOM     29  C   UNL     1       8.006  -1.291   6.442  0.00  0.00    +0.041 A 
ATOM     30  C   UNL     1       8.678  -0.428   5.594  0.00  0.00    +0.022 A 
ATOM     31  C   UNL     1       8.050   0.065   4.468  0.00  0.00    +0.026 A 
ATOM     32 CL   UNL     1       8.800  -1.909   7.856  0.00  0.00    -0.084 Cl
ENDBRANCH  24  26
ENDBRANCH   6  24
TORSDOF 5
