REMARK  Name = ZINC07926153
REMARK  11 active torsions:
REMARK  status: ('A' for Active; 'I' for Inactive)
REMARK    1  A    between atoms: C_1  and  C_2
REMARK    2  A    between atoms: C_2  and  C_23
REMARK    3  A    between atoms: C_4  and  N_9
REMARK    4  A    between atoms: C_6  and  C_7
REMARK    5  A    between atoms: C_6  and  C_8
REMARK    6  A    between atoms: N_9  and  C_10
REMARK    7  A    between atoms: C_10  and  N_12
REMARK    8  A    between atoms: N_12  and  C_13
REMARK    9  A    between atoms: C_13  and  C_14
REMARK   10  A    between atoms: C_14  and  S_15
REMARK   11  A    between atoms: S_15  and  C_16
REMARK                            x       y       z     vdW  Elec       q    Type
REMARK                         _______ _______ _______ _____ _____    ______ ____
ROOT
ATOM      1  N   UNL     1       6.120   7.842  -0.015  0.00  0.00    -0.324 N 
ATOM      2  H   UNL     1       6.802   7.152  -0.025  0.00  0.00    +0.148 HD
ENDROOT
BRANCH   1   6
ATOM      3  C   UNL     1       7.620  11.615   1.696  0.00  0.00    -0.010 C 
ATOM      4  C   UNL     1       8.350  10.856   0.581  0.00  0.00    -0.072 C 
ATOM      5  C   UNL     1       7.909   9.394   0.586  0.00  0.00    +0.009 C 
ATOM      6  C   UNL     1       6.509   9.258  -0.012  0.00  0.00    +0.069 C 
ATOM      7  C   UNL     1       6.542   9.774  -1.450  0.00  0.00    +0.009 C 
ATOM      8  C   UNL     1       6.965  11.241  -1.478  0.00  0.00    -0.072 C 
ATOM      9  C   UNL     1       5.798  12.120  -1.009  0.00  0.00    -0.010 C 
ATOM     10  C   UNL     1       7.255  11.614  -2.949  0.00  0.00    -0.010 C 
ATOM     11  C   UNL     1       9.858  10.888   0.917  0.00  0.00    -0.010 C 
ATOM     12  N   UNL     1       8.213  11.548  -0.729  0.00  0.00    +0.386 N 
ATOM     13  H   UNL     1       9.011  11.278  -1.316  0.00  0.00    -0.084 HD
ATOM     14  H   UNL     1       8.240  12.560  -0.557  0.00  0.00    -0.084 HD
ENDBRANCH   1   6
BRANCH   1  15
ATOM     15  C   UNL     1       4.816   7.501  -0.005  0.00  0.00    +0.131 C 
ATOM     16  S   UNL     1       3.613   8.720   0.013  0.00  0.00    -0.019 S 
BRANCH  15  17
ATOM     17  N   UNL     1       4.459   6.202  -0.008  0.00  0.00    -0.326 N 
ATOM     18  H   UNL     1       5.141   5.512  -0.018  0.00  0.00    +0.148 HD
BRANCH  17  19
ATOM     19  C   UNL     1       3.042   5.831   0.004  0.00  0.00    +0.114 C 
BRANCH  19  20
ATOM     20  C   UNL     1       2.913   4.307  -0.003  0.00  0.00    +0.093 C 
BRANCH  20  21
ATOM     21  S   UNL     1       1.158   3.848   0.011  0.00  0.00    -0.124 S 
BRANCH  21  22
ATOM     22  C   UNL     1       1.178   2.086   0.002  0.00  0.00    +0.008 A 
ATOM     23  C   UNL     1      -0.017   1.377   0.010  0.00  0.00    +0.016 A 
ATOM     24  C   UNL     1       0.002  -0.004   0.002  0.00  0.00    +0.021 A 
ATOM     25  C   UNL     1       1.209  -0.681  -0.013  0.00  0.00    +0.041 A 
ATOM     26  C   UNL     1       2.401   0.023  -0.020  0.00  0.00    +0.021 A 
ATOM     27  C   UNL     1       2.388   1.404  -0.013  0.00  0.00    +0.016 A 
ATOM     28 CL   UNL     1       1.228  -2.417  -0.021  0.00  0.00    -0.084 Cl
ENDBRANCH  21  22
ENDBRANCH  20  21
ENDBRANCH  19  20
ENDBRANCH  17  19
ENDBRANCH  15  17
ENDBRANCH   1  15
TORSDOF 7
