REMARK  Name = ZINC38965670
REMARK  7 active torsions:
REMARK  status: ('A' for Active; 'I' for Inactive)
REMARK    1  A    between atoms: C_1  and  C_2
REMARK    2  A    between atoms: C_4  and  N_9
REMARK    3  A    between atoms: N_9  and  C_10
REMARK    4  A    between atoms: N_13  and  S_14
REMARK    5  A    between atoms: S_14  and  C_17
REMARK    6  A    between atoms: C_20  and  O_23
REMARK    7  A    between atoms: O_23  and  C_24
REMARK                            x       y       z     vdW  Elec       q    Type
REMARK                         _______ _______ _______ _____ _____    ______ ____
ROOT
ATOM      1  C   UNL     1       0.158  -4.229  -2.426  0.00  0.00    +0.237 C 
ATOM      2  C   UNL     1       1.318  -4.584  -3.330  0.00  0.00    +0.192 C 
ATOM      3  N   UNL     1       2.506  -4.112  -3.094  0.00  0.00    -0.110 NA
ATOM      4  N   UNL     1       1.102  -5.393  -4.379  0.00  0.00    -0.226 NA
ATOM      5  C   UNL     1      -0.091  -5.884  -4.639  0.00  0.00    +0.089 A 
ATOM      6  C   UNL     1      -0.283  -6.736  -5.756  0.00  0.00    +0.030 A 
ATOM      7  C   UNL     1      -1.505  -7.242  -6.027  0.00  0.00    +0.002 A 
ATOM      8  C   UNL     1      -2.635  -6.963  -5.240  0.00  0.00    +0.002 A 
ATOM      9  C   UNL     1      -2.564  -6.163  -4.154  0.00  0.00    +0.027 A 
ATOM     10  C   UNL     1      -1.268  -5.572  -3.790  0.00  0.00    +0.063 A 
ATOM     11  N   UNL     1      -1.161  -4.796  -2.748  0.00  0.00    -0.359 N 
ATOM     12  H   UNL     1      -1.934  -4.597  -2.198  0.00  0.00    +0.162 HD
ENDROOT
BRANCH   3  13
ATOM     13  S   UNL     1       3.768  -4.508  -4.091  0.00  0.00    +0.100 S 
ATOM     14  O   UNL     1       3.990  -5.902  -3.931  0.00  0.00    -0.146 OA
ATOM     15  O   UNL     1       3.486  -3.921  -5.354  0.00  0.00    -0.146 OA
BRANCH  13  16
ATOM     16  C   UNL     1       5.200  -3.695  -3.466  0.00  0.00    +0.113 A 
ATOM     17  C   UNL     1       5.516  -2.421  -3.902  0.00  0.00    +0.032 A 
ATOM     18  C   UNL     1       6.640  -1.782  -3.415  0.00  0.00    +0.047 A 
ATOM     19  C   UNL     1       7.451  -2.418  -2.486  0.00  0.00    +0.120 A 
ATOM     20  C   UNL     1       7.131  -3.696  -2.050  0.00  0.00    +0.047 A 
ATOM     21  C   UNL     1       6.004  -4.329  -2.537  0.00  0.00    +0.032 A 
BRANCH  19  22
ATOM     22  O   UNL     1       8.556  -1.791  -2.006  0.00  0.00    -0.495 OA
ATOM     23  C   UNL     1       9.345  -2.507  -1.052  0.00  0.00    +0.277 C 
ENDBRANCH  19  22
ENDBRANCH  13  16
ENDBRANCH   3  13
BRANCH   1  24
ATOM     24  N   UNL     1       0.028  -2.770  -2.418  0.00  0.00    -0.318 N 
ATOM     25  H   UNL     1      -0.020  -2.283  -3.255  0.00  0.00    +0.148 HD
BRANCH  24  29
ATOM     26  C   UNL     1       0.012   1.492   0.029  0.00  0.00    +0.045 C 
ATOM     27  C   UNL     1      -0.037  -0.014   0.013  0.00  0.00    -0.035 A 
ATOM     28  C   UNL     1       0.018  -0.693  -1.189  0.00  0.00    +0.027 A 
ATOM     29  C   UNL     1      -0.027  -2.081  -1.204  0.00  0.00    +0.029 A 
ATOM     30  C   UNL     1      -0.128  -2.782  -0.009  0.00  0.00    +0.024 A 
ATOM     31  C   UNL     1      -0.183  -2.098   1.189  0.00  0.00    +0.017 A 
ATOM     32  C   UNL     1      -0.132  -0.716   1.201  0.00  0.00    +0.021 A 
ATOM     33 BR   UNL     1      -0.199   0.217   2.845  0.00  0.00    -0.050 Br
ENDBRANCH  24  29
ENDBRANCH   1  24
TORSDOF 5
