REMARK  Name = ZINC61595209
REMARK  9 active torsions:
REMARK  status: ('A' for Active; 'I' for Inactive)
REMARK    1  A    between atoms: C_1  and  C_2
REMARK    2  A    between atoms: C_2  and  C_4
REMARK    3  A    between atoms: C_2  and  N_23
REMARK    4  A    between atoms: C_4  and  C_6
REMARK    5  A    between atoms: C_4  and  S_12
REMARK    6  A    between atoms: S_12  and  C_13
REMARK    7  A    between atoms: N_19  and  C_20
REMARK    8  A    between atoms: C_20  and  C_21
REMARK    9  A    between atoms: C_20  and  C_22
REMARK                            x       y       z     vdW  Elec       q    Type
REMARK                         _______ _______ _______ _____ _____    ______ ____
ROOT
ATOM      1  C   UNL     1       0.843  -0.526   1.171  0.00  0.00    +0.076 C 
ENDROOT
BRANCH   1   2
ATOM      2  C   UNL     1       1.006  -2.023   1.112  0.00  0.00    +0.003 A 
ATOM      3  C   UNL     1       2.141  -2.754   1.003  0.00  0.00    +0.013 A 
ATOM      4  C   UNL     1       2.051  -4.133   0.967  0.00  0.00    +0.023 A 
ATOM      5  C   UNL     1       0.827  -4.714   1.043  0.00  0.00    +0.055 A 
ATOM      6  S   UNL     1      -0.247  -3.294   1.177  0.00  0.00    -0.085 S 
ATOM      7 BR   UNL     1       0.376  -6.550   1.021  0.00  0.00    -0.043 Br
ENDBRANCH   1   2
BRANCH   1   9
ATOM      8  C   UNL     1      -0.149   1.463   0.029  0.00  0.00    -0.013 C 
ATOM      9  C   UNL     1      -0.029  -0.062   0.002  0.00  0.00    -0.060 C 
BRANCH   9  10
ATOM     10  N   UNL     1       0.585  -0.482  -1.264  0.00  0.00    +0.381 N 
ATOM     11  H   UNL     1       1.503  -0.071  -1.345  0.00  0.00    -0.090 HD
ATOM     12  H   UNL     1       0.664  -1.488  -1.282  0.00  0.00    -0.090 HD
ATOM     13  H   UNL     1       0.010  -0.176  -2.035  0.00  0.00    -0.090 HD
ENDBRANCH   9  10
ENDBRANCH   1   9
BRANCH   1  14
ATOM     14  S   UNL     1       0.051  -0.065   2.736  0.00  0.00    -0.079 S 
BRANCH  14  15
ATOM     15  C   UNL     1       1.261  -0.454   3.957  0.00  0.00    +0.193 A 
ATOM     16  N   UNL     1       2.406  -1.031   3.733  0.00  0.00    -0.145 NA
ATOM     17  N   UNL     1       3.073  -1.161   4.960  0.00  0.00    -0.226 N 
ATOM     18  H   UNL     1       3.948  -1.555   5.098  0.00  0.00    +0.194 HD
ATOM     19  C   UNL     1       2.273  -0.637   5.911  0.00  0.00    +0.345 A 
ATOM     20  O   UNL     1       2.519  -0.573   7.103  0.00  0.00    -0.245 OA
ATOM     21  N   UNL     1       1.155  -0.192   5.304  0.00  0.00    -0.268 N 
BRANCH  21  22
ATOM     22  C   UNL     1       0.020   0.456   5.965  0.00  0.00    +0.088 C 
ATOM     23  C   UNL     1      -0.575  -0.495   7.006  0.00  0.00    +0.031 C 
ATOM     24  C   UNL     1       0.494   1.736   6.656  0.00  0.00    +0.031 C 
ENDBRANCH  21  22
ENDBRANCH  14  15
ENDBRANCH   1  14
TORSDOF 6
