REMARK  Name = ZINC35752488
REMARK  13 active torsions:
REMARK  status: ('A' for Active; 'I' for Inactive)
REMARK    1  A    between atoms: C_1  and  C_2
REMARK    2  A    between atoms: C_2  and  C_10
REMARK    3  A    between atoms: C_3  and  C_4
REMARK    4  A    between atoms: C_10  and  N_11
REMARK    5  A    between atoms: N_11  and  C_12
REMARK    6  A    between atoms: C_12  and  C_13
REMARK    7  A    between atoms: C_19  and  C_21
REMARK    8  A    between atoms: C_21  and  C_22
REMARK    9  A    between atoms: C_22  and  C_23
REMARK   10  A    between atoms: C_23  and  C_24
REMARK   11  A    between atoms: C_24  and  C_25
REMARK   12  A    between atoms: C_25  and  N_26
REMARK   13  A    between atoms: C_27  and  C_29
REMARK                            x       y       z     vdW  Elec       q    Type
REMARK                         _______ _______ _______ _____ _____    ______ ____
ROOT
ATOM      1  N   UNL     1      -2.393  -0.452  -1.172  0.00  0.00    -0.293 N 
ATOM      2  C   UNL     1      -3.145  -1.336  -0.487  0.00  0.00    +0.254 C 
ATOM      3  O   UNL     1      -4.358  -1.309  -0.586  0.00  0.00    -0.269 OA
ENDROOT
BRANCH   2   4
ATOM      4  C   UNL     1      -2.502  -2.330   0.378  0.00  0.00    +0.074 A 
ATOM      5  C   UNL     1      -3.084  -3.326   1.147  0.00  0.00    +0.021 A 
ATOM      6  C   UNL     1      -2.213  -4.115   1.861  0.00  0.00    +0.008 A 
ATOM      7  C   UNL     1      -0.882  -3.875   1.770  0.00  0.00    +0.046 A 
ATOM      8  S   UNL     1      -0.768  -2.579   0.707  0.00  0.00    -0.092 S 
ENDBRANCH   2   4
BRANCH   1   9
ATOM      9  C   UNL     1      -0.932  -0.552  -1.139  0.00  0.00    +0.138 C 
BRANCH   9  11
ATOM     10  C   UNL     1      -0.959   0.347   1.311  0.00  0.00    +0.040 C 
ATOM     11  C   UNL     1      -0.388   0.375  -0.083  0.00  0.00    -0.055 C 
ATOM     12  C   UNL     1       0.592   1.216  -0.381  0.00  0.00    +0.008 C 
BRANCH  12  13
ATOM     13  C   UNL     1       1.284   1.113  -1.683  0.00  0.00    -0.025 A 
ATOM     14  C   UNL     1       1.584   2.266  -2.410  0.00  0.00    +0.008 A 
ATOM     15  C   UNL     1       2.231   2.163  -3.625  0.00  0.00    +0.001 A 
ATOM     16  C   UNL     1       2.580   0.920  -4.122  0.00  0.00    +0.000 A 
ATOM     17  C   UNL     1       2.285  -0.226  -3.407  0.00  0.00    +0.001 A 
ATOM     18  C   UNL     1       1.645  -0.137  -2.188  0.00  0.00    +0.008 A 
ENDBRANCH  12  13
ENDBRANCH   9  11
ENDBRANCH   1   9
BRANCH   1  19
ATOM     19  C   UNL     1      -3.037   0.610  -1.949  0.00  0.00    +0.112 C 
BRANCH  19  20
ATOM     20  C   UNL     1      -3.295   0.114  -3.373  0.00  0.00    +0.009 C 
ATOM     21  C   UNL     1      -1.959  -0.147  -4.072  0.00  0.00    +0.024 C 
ATOM     22  C   UNL     1      -2.221  -0.676  -5.486  0.00  0.00    +0.108 C 
ATOM     23  N   UNL     1      -3.095   0.272  -6.191  0.00  0.00    -0.301 N 
ATOM     24  C   UNL     1      -4.365   0.662  -5.563  0.00  0.00    +0.108 C 
ATOM     25  C   UNL     1      -4.079   1.176  -4.149  0.00  0.00    +0.024 C 
ATOM     26  C   UNL     1      -2.738   0.773  -7.389  0.00  0.00    +0.216 C 
ATOM     27  O   UNL     1      -1.687   0.443  -7.897  0.00  0.00    -0.276 OA
BRANCH  26  28
ATOM     28  C   UNL     1      -3.646   1.744  -8.100  0.00  0.00    +0.096 C 
BRANCH  28  29
ATOM     29  C   UNL     1      -3.010   2.156  -9.430  0.00  0.00    +0.009 C 
BRANCH  29  30
ATOM     30  C   UNL     1      -3.932   3.143 -10.151  0.00  0.00    -0.001 C 
BRANCH  30  31
ATOM     31  C   UNL     1      -3.296   3.555 -11.480  0.00  0.00    -0.020 C 
BRANCH  31  32
ATOM     32  C   UNL     1      -4.217   4.541 -12.202  0.00  0.00    -0.086 C 
BRANCH  32  33
ATOM     33  N   UNL     1      -3.607   4.936 -13.478  0.00  0.00    +0.378 N 
ATOM     34  H   UNL     1      -2.716   5.375 -13.303  0.00  0.00    -0.090 HD
ATOM     35  H   UNL     1      -3.473   4.119 -14.054  0.00  0.00    -0.090 HD
ATOM     36  H   UNL     1      -4.215   5.587 -13.954  0.00  0.00    -0.090 HD
ENDBRANCH  32  33
ENDBRANCH  31  32
ENDBRANCH  30  31
ENDBRANCH  29  30
ENDBRANCH  28  29
ENDBRANCH  26  28
ENDBRANCH  19  20
ENDBRANCH   1  19
TORSDOF 12
