REMARK  Name = ZINC38651531
REMARK  10 active torsions:
REMARK  status: ('A' for Active; 'I' for Inactive)
REMARK    1  A    between atoms: C_1  and  C_2
REMARK    2  A    between atoms: C_2  and  C_3
REMARK    3  A    between atoms: C_3  and  O_4
REMARK    4  A    between atoms: O_4  and  C_5
REMARK    5  A    between atoms: C_9  and  C_11
REMARK    6  A    between atoms: C_11  and  O_13
REMARK    7  A    between atoms: O_13  and  C_14
REMARK    8  A    between atoms: C_21  and  N_34
REMARK    9  A    between atoms: C_22  and  C_32
REMARK   10  A    between atoms: C_23  and  C_25
REMARK                            x       y       z     vdW  Elec       q    Type
REMARK                         _______ _______ _______ _____ _____    ______ ____
ROOT
ATOM      1  C   UNL     1       2.836  -7.992   4.609  0.00  0.00    +0.135 A 
ATOM      2  C   UNL     1       2.316  -8.802   3.609  0.00  0.00    +0.047 A 
ATOM      3  C   UNL     1       2.378 -10.176   3.731  0.00  0.00    +0.012 A 
ATOM      4  C   UNL     1       2.957 -10.751   4.848  0.00  0.00    +0.008 A 
ATOM      5  C   UNL     1       3.478  -9.947   5.850  0.00  0.00    +0.138 A 
ATOM      6  C   UNL     1       3.422  -8.565   5.726  0.00  0.00    +0.093 A 
ATOM      7  O   UNL     1       4.050 -10.492   6.952  0.00  0.00    -0.441 OA
ATOM      8  C   UNL     1       3.788 -11.768   7.282  0.00  0.00    +0.199 C 
ATOM      9  C   UNL     1       3.295 -12.653   6.384  0.00  0.00    +0.098 C 
ATOM     10  C   UNL     1       3.014 -12.251   4.963  0.00  0.00    +0.098 C 
ENDROOT
BRANCH  10  11
ATOM     11  C   UNL     1       4.108 -12.778   4.070  0.00  0.00    -0.034 A 
ATOM     12  C   UNL     1       5.417 -12.380   4.271  0.00  0.00    +0.004 A 
ATOM     13  C   UNL     1       6.420 -12.863   3.451  0.00  0.00    +0.001 A 
ATOM     14  C   UNL     1       6.115 -13.745   2.431  0.00  0.00    +0.015 A 
ATOM     15  C   UNL     1       4.806 -14.144   2.230  0.00  0.00    +0.018 A 
ATOM     16  C   UNL     1       3.803 -13.664   3.054  0.00  0.00    +0.020 A 
ATOM     17 BR   UNL     1       4.388 -15.349   0.835  0.00  0.00    -0.050 Br
ENDBRANCH  10  11
BRANCH   8  18
ATOM     18  N   UNL     1       4.029 -12.187   8.567  0.00  0.00    -0.328 N 
ATOM     19  H   UNL     1       4.382 -11.565   9.221  0.00  0.00    +0.145 HD
ATOM     20  H   UNL     1       3.845 -13.105   8.820  0.00  0.00    +0.145 HD
ENDBRANCH   8  18
BRANCH   9  21
ATOM     21  C   UNL     1       3.036 -14.000   6.796  0.00  0.00    +0.101 C 
ATOM     22  N   UNL     1       2.830 -15.069   7.123  0.00  0.00    -0.191 NA
ENDBRANCH   9  21
BRANCH   1  23
ATOM     23  O   UNL     1       2.776  -6.640   4.490  0.00  0.00    -0.422 OA
BRANCH  23  24
ATOM     24  C   UNL     1       1.598  -6.035   4.736  0.00  0.00    +0.345 C 
ATOM     25  O   UNL     1       0.609  -6.702   4.966  0.00  0.00    -0.245 OA
BRANCH  24  30
ATOM     26  C   UNL     1       0.212  -2.549   4.970  0.00  0.00    +0.121 A 
ATOM     27  C   UNL     1       1.347  -1.792   4.708  0.00  0.00    +0.046 A 
ATOM     28  C   UNL     1       2.555  -2.414   4.455  0.00  0.00    +0.004 A 
ATOM     29  C   UNL     1       2.643  -3.791   4.463  0.00  0.00    +0.015 A 
ATOM     30  C   UNL     1       1.508  -4.560   4.727  0.00  0.00    +0.063 A 
ATOM     31  C   UNL     1       0.290  -3.931   4.987  0.00  0.00    +0.060 A 
BRANCH  26  32
ATOM     32  O   UNL     1      -0.973  -1.932   5.218  0.00  0.00    -0.492 OA
BRANCH  32  33
ATOM     33  C   UNL     1      -0.980  -0.503   5.185  0.00  0.00    +0.229 C 
BRANCH  33  35
ATOM     34  C   UNL     1      -2.399   1.536   5.449  0.00  0.00    +0.007 C 
ATOM     35  C   UNL     1      -2.392   0.007   5.484  0.00  0.00    +0.038 C 
ENDBRANCH  33  35
ENDBRANCH  32  33
ENDBRANCH  26  32
ENDBRANCH  24  30
ENDBRANCH  23  24
ENDBRANCH   1  23
TORSDOF 9
