REMARK  Name = ZINC66908715
REMARK  9 active torsions:
REMARK  status: ('A' for Active; 'I' for Inactive)
REMARK    1  A    between atoms: C_1  and  N_2
REMARK    2  A    between atoms: N_2  and  C_3
REMARK    3  A    between atoms: N_2  and  C_4
REMARK    4  A    between atoms: C_4  and  C_6
REMARK    5  A    between atoms: C_4  and  C_23
REMARK    6  A    between atoms: C_6  and  N_7
REMARK    7  A    between atoms: N_10  and  C_11
REMARK    8  A    between atoms: C_11  and  C_12
REMARK    9  A    between atoms: C_12  and  O_22
REMARK                            x       y       z     vdW  Elec       q    Type
REMARK                         _______ _______ _______ _____ _____    ______ ____
ROOT
ATOM      1  N   UNL     1      -0.313  -1.924   1.002  0.00  0.00    -0.301 N 
ATOM      2  C   UNL     1       0.319  -3.113   1.067  0.00  0.00    +0.300 C 
ATOM      3  O   UNL     1       0.071  -3.979   0.251  0.00  0.00    -0.253 OA
ATOM      4  N   UNL     1       1.225  -3.342   2.039  0.00  0.00    -0.296 N 
ATOM      5  H   UNL     1      -0.116  -1.234   1.654  0.00  0.00    +0.150 HD
ATOM      6  H   UNL     1       1.422  -2.651   2.691  0.00  0.00    +0.150 HD
ENDROOT
BRANCH   1   7
ATOM      7  C   UNL     1      -1.298  -1.675  -0.054  0.00  0.00    +0.095 C 
BRANCH   7   8
ATOM      8  C   UNL     1      -1.957  -0.314   0.175  0.00  0.00    -0.020 C 
BRANCH   8   9
ATOM      9  C   UNL     1      -2.736  -0.343   1.464  0.00  0.00    -0.052 A 
ATOM     10  C   UNL     1      -2.207   0.207   2.617  0.00  0.00    +0.009 A 
ATOM     11  C   UNL     1      -2.934   0.164   3.760  0.00  0.00    +0.045 A 
ATOM     12  S   UNL     1      -4.417  -0.673   3.223  0.00  0.00    -0.105 S 
ATOM     13  C   UNL     1      -3.969  -0.904   1.510  0.00  0.00    +0.047 A 
ENDBRANCH   8   9
BRANCH   8  15
ATOM     14  C   UNL     1      -3.538   1.266  -0.695  0.00  0.00    -0.096 C 
ATOM     15  N   UNL     1      -2.866  -0.017  -0.940  0.00  0.00    +0.382 N 
ATOM     16  C   UNL     1      -2.098   0.063  -2.190  0.00  0.00    -0.096 C 
ATOM     17  H   UNL     1      -3.556  -0.749  -1.016  0.00  0.00    -0.082 HD
ENDBRANCH   8  15
ENDBRANCH   7   8
ENDBRANCH   1   7
BRANCH   4  18
ATOM     18  C   UNL     1       1.912  -4.634   2.110  0.00  0.00    +0.145 C 
BRANCH  18  19
ATOM     19  C   UNL     1       2.780  -4.681   3.368  0.00  0.00    +0.107 C 
ATOM     20  C   UNL     1       1.918  -4.365   4.588  0.00  0.00    +0.041 C 
ATOM     21  C   UNL     1       2.748  -4.629   5.850  0.00  0.00    +0.008 C 
ATOM     22  C   UNL     1       2.953  -6.137   5.984  0.00  0.00    +0.035 C 
ATOM     23  C   UNL     1       3.479  -6.717   4.698  0.00  0.00    -0.041 A 
ATOM     24  C   UNL     1       3.397  -6.050   3.496  0.00  0.00    -0.011 A 
ATOM     25  C   UNL     1       3.896  -6.644   2.344  0.00  0.00    +0.007 A 
ATOM     26  C   UNL     1       4.477  -7.894   2.395  0.00  0.00    +0.000 A 
ATOM     27  C   UNL     1       4.563  -8.562   3.603  0.00  0.00    +0.000 A 
ATOM     28  C   UNL     1       4.066  -7.974   4.747  0.00  0.00    +0.004 A 
BRANCH  19  29
ATOM     29  O   UNL     1       3.819  -3.705   3.261  0.00  0.00    -0.382 OA
ATOM     30  H   UNL     1       4.404  -3.836   2.502  0.00  0.00    +0.211 HD
ENDBRANCH  19  29
ENDBRANCH  18  19
ENDBRANCH   4  18
TORSDOF 7
