REMARK  Name = ZINC23425709
REMARK  8 active torsions:
REMARK  status: ('A' for Active; 'I' for Inactive)
REMARK    1  A    between atoms: C_1  and  C_2
REMARK    2  A    between atoms: C_6  and  C_8
REMARK    3  A    between atoms: C_8  and  O_9
REMARK    4  A    between atoms: O_9  and  C_10
REMARK    5  A    between atoms: C_10  and  C_12
REMARK    6  A    between atoms: C_10  and  C_30
REMARK    7  A    between atoms: C_12  and  N_13
REMARK    8  A    between atoms: N_21  and  C_22
REMARK                            x       y       z     vdW  Elec       q    Type
REMARK                         _______ _______ _______ _____ _____    ______ ____
ROOT
ATOM      1  N   UNL     1      -2.147   7.506  -2.214  0.00  0.00    +0.384 N 
ATOM      2  C   UNL     1      -2.539   7.927  -3.566  0.00  0.00    -0.059 C 
ATOM      3  C   UNL     1      -3.831   7.207  -3.968  0.00  0.00    +0.091 C 
ATOM      4  N   UNL     1      -4.841   7.444  -2.925  0.00  0.00    -0.289 N 
ATOM      5  C   UNL     1      -4.474   7.175  -1.527  0.00  0.00    +0.091 C 
ATOM      6  C   UNL     1      -3.157   7.896  -1.221  0.00  0.00    -0.059 C 
ATOM      7  C   UNL     1      -6.070   7.896  -3.244  0.00  0.00    +0.306 C 
ATOM      8  O   UNL     1      -6.386   8.029  -4.410  0.00  0.00    -0.252 OA
ATOM      9  N   UNL     1      -6.949   8.202  -2.268  0.00  0.00    -0.267 N 
ATOM     10  H   UNL     1      -6.680   8.040  -1.214  0.00  0.00    +0.156 HD
ATOM     11  H   UNL     1      -2.083   6.407  -2.212  0.00  0.00    -0.082 HD
ENDROOT
BRANCH   9  12
ATOM     12  C   UNL     1      -8.206   8.726  -2.597  0.00  0.00    +0.073 A 
ATOM     13  C   UNL     1      -8.777   8.441  -3.830  0.00  0.00    +0.064 A 
ATOM     14  C   UNL     1     -10.021   8.956  -4.150  0.00  0.00    +0.125 A 
ATOM     15  C   UNL     1     -10.691   9.764  -3.246  0.00  0.00    +0.041 A 
ATOM     16  C   UNL     1     -10.122  10.053  -2.020  0.00  0.00    +0.043 A 
ATOM     17  C   UNL     1      -8.881   9.537  -1.692  0.00  0.00    +0.145 A 
ATOM     18  F   UNL     1      -8.326   9.820  -0.493  0.00  0.00    -0.204 F 
ATOM     19  F   UNL     1     -10.579   8.676  -5.348  0.00  0.00    -0.205 F 
ENDBRANCH   9  12
BRANCH   1  20
ATOM     20  C   UNL     1      -0.826   8.039  -1.859  0.00  0.00    -0.042 C 
BRANCH  20  21
ATOM     21  C   UNL     1      -0.229   7.206  -0.723  0.00  0.00    +0.132 C 
BRANCH  21  22
ATOM     22  C   UNL     1       1.105   7.784  -0.324  0.00  0.00    -0.021 A 
ATOM     23  C   UNL     1       2.232   7.498  -1.072  0.00  0.00    +0.007 A 
ATOM     24  C   UNL     1       3.455   8.032  -0.711  0.00  0.00    +0.020 A 
ATOM     25  C   UNL     1       3.553   8.842   0.406  0.00  0.00    +0.041 A 
ATOM     26  C   UNL     1       2.426   9.123   1.157  0.00  0.00    +0.020 A 
ATOM     27  C   UNL     1       1.203   8.593   0.792  0.00  0.00    +0.007 A 
ATOM     28 CL   UNL     1       5.090   9.507   0.864  0.00  0.00    -0.084 Cl
ENDBRANCH  21  22
BRANCH  21  29
ATOM     29  O   UNL     1      -0.052   5.858  -1.162  0.00  0.00    -0.369 OA
BRANCH  29  30
ATOM     30  C   UNL     1      -0.163   4.888  -0.118  0.00  0.00    +0.195 C 
BRANCH  30  36
ATOM     31  C   UNL     1      -2.039   0.746  -2.208  0.00  0.00    +0.044 C 
ATOM     32  C   UNL     1      -0.859   1.527  -1.691  0.00  0.00    -0.050 A 
ATOM     33  C   UNL     1       0.409   0.979  -1.744  0.00  0.00    +0.003 A 
ATOM     34  C   UNL     1       1.493   1.698  -1.275  0.00  0.00    +0.001 A 
ATOM     35  C   UNL     1       1.308   2.963  -0.749  0.00  0.00    +0.006 A 
ATOM     36  C   UNL     1       0.039   3.509  -0.692  0.00  0.00    -0.022 A 
ATOM     37  C   UNL     1      -1.045   2.789  -1.160  0.00  0.00    +0.009 A 
ENDBRANCH  30  36
ENDBRANCH  29  30
ENDBRANCH  21  29
ENDBRANCH  20  21
ENDBRANCH   1  20
TORSDOF 7
