REMARK  Name = ZINC12734550
REMARK  12 active torsions:
REMARK  status: ('A' for Active; 'I' for Inactive)
REMARK    1  A    between atoms: C_1  and  C_2
REMARK    2  A    between atoms: C_2  and  C_3
REMARK    3  A    between atoms: C_2  and  C_4
REMARK    4  A    between atoms: C_4  and  C_6
REMARK    5  A    between atoms: C_4  and  N_18
REMARK    6  A    between atoms: N_8  and  C_9
REMARK    7  A    between atoms: C_11  and  C_16
REMARK    8  A    between atoms: C_11  and  C_17
REMARK    9  A    between atoms: C_12  and  C_14
REMARK   10  A    between atoms: C_12  and  C_15
REMARK   11  A    between atoms: N_18  and  S_19
REMARK   12  A    between atoms: S_19  and  C_22
REMARK                            x       y       z     vdW  Elec       q    Type
REMARK                         _______ _______ _______ _____ _____    ______ ____
ROOT
ATOM      1  C   UNL     1      -0.030   0.497  -4.723  0.00  0.00    +0.165 C 
ENDROOT
BRANCH   1   2
ATOM      2  C   UNL     1      -0.668  -0.033  -3.465  0.00  0.00    +0.232 C 
ATOM      3  O   UNL     1      -1.850   0.145  -3.262  0.00  0.00    -0.274 OA
ATOM      4  N   UNL     1       0.076  -0.706  -2.564  0.00  0.00    -0.311 N 
ATOM      5  H   UNL     1       1.005  -0.908  -2.756  0.00  0.00    +0.149 HD
BRANCH   4   6
ATOM      6  C   UNL     1      -0.520  -1.132  -1.292  0.00  0.00    +0.070 C 
ATOM      7  C   UNL     1       0.248  -2.340  -0.756  0.00  0.00    +0.009 C 
ATOM      8  C   UNL     1      -0.338  -2.793   0.579  0.00  0.00    -0.072 C 
ATOM      9  C   UNL     1      -0.998  -0.419   1.065  0.00  0.00    -0.072 C 
ATOM     10  C   UNL     1      -0.406   0.005  -0.276  0.00  0.00    +0.009 C 
ATOM     11  C   UNL     1      -0.593   0.646   2.109  0.00  0.00    -0.010 C 
ATOM     12  C   UNL     1      -2.529  -0.408   0.977  0.00  0.00    -0.010 C 
ATOM     13  C   UNL     1      -1.661  -3.528   0.335  0.00  0.00    -0.010 C 
ATOM     14  C   UNL     1       0.645  -3.813   1.196  0.00  0.00    -0.010 C 
ATOM     15  N   UNL     1      -0.493  -1.715   1.593  0.00  0.00    +0.386 N 
ATOM     16  H   UNL     1       0.425  -1.548   2.021  0.00  0.00    -0.084 HD
ATOM     17  H   UNL     1      -1.150  -2.045   2.309  0.00  0.00    -0.084 HD
ENDBRANCH   4   6
ENDBRANCH   1   2
BRANCH   1  19
ATOM     18  C   UNL     1       1.445   2.283  -5.658  0.00  0.00    +0.009 C 
ATOM     19  C   UNL     1       0.685   1.815  -4.416  0.00  0.00    +0.010 C 
ATOM     20  C   UNL     1      -0.345   2.874  -4.019  0.00  0.00    +0.009 C 
ENDBRANCH   1  19
BRANCH   1  21
ATOM     21  N   UNL     1      -1.064   0.727  -5.735  0.00  0.00    -0.178 NA
ATOM     22  H   UNL     1      -1.743   1.405  -5.589  0.00  0.00    +0.149 HD
BRANCH  21  23
ATOM     23  S   UNL     1      -1.075  -0.170  -7.127  0.00  0.00    +0.059 S 
ATOM     24  O   UNL     1      -2.215   0.243  -7.867  0.00  0.00    -0.153 OA
ATOM     25  O   UNL     1       0.242  -0.109  -7.659  0.00  0.00    -0.153 OA
BRANCH  23  26
ATOM     26  C   UNL     1      -1.355  -1.847  -6.664  0.00  0.00    +0.106 A 
ATOM     27  C   UNL     1      -0.267  -2.673  -6.388  0.00  0.00    +0.029 A 
ATOM     28  C   UNL     1      -0.448  -3.971  -6.022  0.00  0.00    +0.010 A 
ATOM     29  C   UNL     1      -1.750  -4.493  -5.933  0.00  0.00    -0.018 A 
ATOM     30  C   UNL     1      -1.977  -5.830  -5.565  0.00  0.00    +0.008 A 
ATOM     31  C   UNL     1      -3.252  -6.301  -5.488  0.00  0.00    +0.001 A 
ATOM     32  C   UNL     1      -4.339  -5.476  -5.770  0.00  0.00    +0.001 A 
ATOM     33  C   UNL     1      -4.158  -4.176  -6.130  0.00  0.00    +0.008 A 
ATOM     34  C   UNL     1      -2.856  -3.654  -6.219  0.00  0.00    -0.016 A 
ATOM     35  C   UNL     1      -2.629  -2.317  -6.587  0.00  0.00    +0.037 A 
ENDBRANCH  23  26
ENDBRANCH  21  23
ENDBRANCH   1  21
TORSDOF 6
