REMARK  Name = ZINC44533902
REMARK  6 active torsions:
REMARK  status: ('A' for Active; 'I' for Inactive)
REMARK    1  A    between atoms: C_1  and  N_2
REMARK    2  A    between atoms: C_6  and  C_9
REMARK    3  A    between atoms: C_9  and  N_10
REMARK    4  A    between atoms: N_10  and  S_11
REMARK    5  A    between atoms: S_11  and  C_14
REMARK    6  A    between atoms: C_15  and  N_22
REMARK                            x       y       z     vdW  Elec       q    Type
REMARK                         _______ _______ _______ _____ _____    ______ ____
ROOT
ATOM      1  S   UNL     1       2.869  -5.386   4.035  0.00  0.00    +0.061 S 
ATOM      2  O   UNL     1       2.663  -6.779   4.227  0.00  0.00    -0.153 OA
ATOM      3  O   UNL     1       4.162  -4.825   3.857  0.00  0.00    -0.153 OA
ENDROOT
BRANCH   1   4
ATOM      4  C   UNL     1       2.154  -4.575   5.426  0.00  0.00    +0.140 A 
ATOM      5  C   UNL     1       2.636  -3.337   5.832  0.00  0.00    +0.053 A 
ATOM      6  C   UNL     1       2.070  -2.701   6.929  0.00  0.00    +0.040 A 
ATOM      7  C   UNL     1       1.029  -3.300   7.614  0.00  0.00    +0.021 A 
ATOM      8  C   UNL     1       0.552  -4.533   7.207  0.00  0.00    +0.032 A 
ATOM      9  C   UNL     1       1.110  -5.168   6.111  0.00  0.00    +0.047 A 
ATOM     10 BR   UNL     1       0.448  -6.849   5.554  0.00  0.00    -0.048 Br
ATOM     11 BR   UNL     1       0.258  -2.434   9.107  0.00  0.00    -0.050 Br
BRANCH   5  12
ATOM     12  N   UNL     1       3.688  -2.734   5.139  0.00  0.00    -0.356 N 
ATOM     13  H   UNL     1       3.848  -2.959   4.209  0.00  0.00    +0.142 HD
ATOM     14  H   UNL     1       4.258  -2.091   5.588  0.00  0.00    +0.142 HD
ENDBRANCH   5  12
ENDBRANCH   1   4
BRANCH   1  15
ATOM     15  N   UNL     1       1.978  -4.955   2.706  0.00  0.00    -0.190 NA
ATOM     16  H   UNL     1       1.469  -5.627   2.225  0.00  0.00    +0.148 HD
BRANCH  15  17
ATOM     17  C   UNL     1       1.960  -3.561   2.258  0.00  0.00    +0.107 C 
BRANCH  17  23
ATOM     18  C   UNL     1       0.522  -0.547  -1.323  0.00  0.00    -0.096 C 
ATOM     19  N   UNL     1       0.720  -1.954  -0.949  0.00  0.00    +0.378 N 
ATOM     20  C   UNL     1       1.656  -2.582  -1.890  0.00  0.00    -0.079 C 
ATOM     21  C   UNL     1       1.803  -4.067  -1.553  0.00  0.00    -0.018 C 
ATOM     22  C   UNL     1       2.338  -4.211  -0.126  0.00  0.00    +0.001 C 
ATOM     23  C   UNL     1       1.394  -3.489   0.839  0.00  0.00    -0.012 C 
ATOM     24  C   UNL     1       1.262  -2.025   0.414  0.00  0.00    -0.074 C 
ATOM     25  H   UNL     1      -0.165  -2.438  -0.984  0.00  0.00    -0.082 HD
ENDBRANCH  17  23
ENDBRANCH  15  17
ENDBRANCH   1  15
TORSDOF 5
