REMARK  Name = ZINC01304664
REMARK  4 active torsions:
REMARK  status: ('A' for Active; 'I' for Inactive)
REMARK    1  A    between atoms: C_1  and  O_2
REMARK    2  A    between atoms: O_2  and  C_3
REMARK    3  A    between atoms: C_13  and  C_17
REMARK    4  A    between atoms: C_22  and  O_23
REMARK                            x       y       z     vdW  Elec       q    Type
REMARK                         _______ _______ _______ _____ _____    ______ ____
ROOT
ATOM      1  C   UNL     1      -3.726   3.075  -5.460  0.00  0.00    +0.121 A 
ATOM      2  C   UNL     1      -3.386   1.741  -5.655  0.00  0.00    +0.047 A 
ATOM      3  C   UNL     1      -2.776   0.985  -4.670  0.00  0.00    +0.030 A 
ATOM      4  C   UNL     1      -2.509   1.617  -3.457  0.00  0.00    +0.047 A 
ATOM      5  C   UNL     1      -2.855   2.978  -3.256  0.00  0.00    +0.006 A 
ATOM      6  C   UNL     1      -3.472   3.727  -4.263  0.00  0.00    +0.056 A 
ATOM      7  C   UNL     1      -2.439   3.299  -1.908  0.00  0.00    -0.022 A 
ATOM      8  C   UNL     1      -1.890   2.180  -1.382  0.00  0.00    +0.010 A 
ATOM      9  N   UNL     1      -1.929   1.169  -2.302  0.00  0.00    -0.359 N 
ATOM     10  H   UNL     1      -1.596   0.269  -2.158  0.00  0.00    +0.166 HD
ATOM     11  C   UNL     1      -1.332   2.118   0.020  0.00  0.00    +0.011 C 
ATOM     12  C   UNL     1      -2.337   4.308   0.335  0.00  0.00    -0.076 C 
ATOM     13  C   UNL     1      -2.557   4.600  -1.156  0.00  0.00    +0.018 C 
ATOM     14  N   UNL     1      -1.113   3.499   0.506  0.00  0.00    +0.388 N 
ATOM     15  H   UNL     1      -0.348   3.927  -0.028  0.00  0.00    -0.084 HD
ATOM     16  H   UNL     1      -0.863   3.471   1.501  0.00  0.00    -0.084 HD
ENDROOT
BRANCH  11  17
ATOM     17  C   UNL     1      -0.017   1.382   0.010  0.00  0.00    -0.011 A 
ATOM     18  C   UNL     1       1.171   2.089   0.002  0.00  0.00    +0.026 A 
ATOM     19  C   UNL     1       2.378   1.414  -0.013  0.00  0.00    +0.043 A 
ATOM     20  C   UNL     1       2.400   0.031  -0.021  0.00  0.00    +0.043 A 
ATOM     21  C   UNL     1       1.215  -0.680  -0.013  0.00  0.00    +0.084 A 
ATOM     22  C   UNL     1       0.002  -0.004   0.002  0.00  0.00    +0.137 A 
ATOM     23 CL   UNL     1       1.242  -2.416  -0.022  0.00  0.00    -0.080 Cl
ATOM     24 CL   UNL     1       3.869   2.305  -0.022  0.00  0.00    -0.083 Cl
BRANCH  22  25
ATOM     25  O   UNL     1      -1.165  -0.701   0.009  0.00  0.00    -0.505 OA
ATOM     26  H   UNL     1      -1.511  -0.897  -0.872  0.00  0.00    +0.292 HD
ENDBRANCH  22  25
ENDBRANCH  11  17
BRANCH   1  28
ATOM     27  C   UNL     1      -4.566   3.043  -7.685  0.00  0.00    +0.277 C 
ATOM     28  O   UNL     1      -4.324   3.759  -6.472  0.00  0.00    -0.495 OA
ENDBRANCH   1  28
TORSDOF 3
