REMARK  Name = ZINC40744203
REMARK  11 active torsions:
REMARK  status: ('A' for Active; 'I' for Inactive)
REMARK    1  A    between atoms: C_1  and  C_2
REMARK    2  A    between atoms: C_2  and  C_3
REMARK    3  A    between atoms: C_3  and  O_4
REMARK    4  A    between atoms: O_4  and  C_5
REMARK    5  A    between atoms: C_8  and  C_12
REMARK    6  A    between atoms: C_12  and  N_13
REMARK    7  A    between atoms: N_13  and  C_14
REMARK    8  A    between atoms: C_14  and  C_15
REMARK    9  A    between atoms: C_15  and  C_16
REMARK   10  A    between atoms: C_16  and  C_17
REMARK   11  A    between atoms: C_17  and  O_18
REMARK                            x       y       z     vdW  Elec       q    Type
REMARK                         _______ _______ _______ _____ _____    ______ ____
ROOT
ATOM      1  C   UNL     1       1.341  -2.530  -2.323  0.00  0.00    +0.148 A 
ATOM      2  C   UNL     1       0.606  -2.844  -3.457  0.00  0.00    +0.061 A 
ATOM      3  C   UNL     1       1.222  -3.457  -4.531  0.00  0.00    +0.020 A 
ATOM      4  C   UNL     1       2.571  -3.757  -4.477  0.00  0.00    -0.062 A 
ATOM      5  C   UNL     1       3.306  -3.446  -3.348  0.00  0.00    +0.020 A 
ATOM      6  C   UNL     1       2.696  -2.827  -2.273  0.00  0.00    +0.061 A 
ATOM      7 BR   UNL     1       3.704  -2.394  -0.733  0.00  0.00    -0.046 Br
ATOM      8 BR   UNL     1      -1.239  -2.434  -3.531  0.00  0.00    -0.046 Br
ENDROOT
BRANCH   1   9
ATOM      9  O   UNL     1       0.738  -1.926  -1.265  0.00  0.00    -0.490 OA
BRANCH   9  10
ATOM     10  C   UNL     1       0.718  -0.497  -1.257  0.00  0.00    +0.229 C 
BRANCH  10  12
ATOM     11  C   UNL     1      -0.019   1.526   0.010  0.00  0.00    +0.007 C 
ATOM     12  C   UNL     1       0.002  -0.004   0.002  0.00  0.00    +0.038 C 
ENDBRANCH  10  12
ENDBRANCH   9  10
ENDBRANCH   1   9
BRANCH   4  13
ATOM     13  C   UNL     1       3.240  -4.426  -5.650  0.00  0.00    -0.047 C 
BRANCH  13  14
ATOM     14  N   UNL     1       3.756  -3.402  -6.568  0.00  0.00    +0.382 N 
ATOM     15  H   UNL     1       2.993  -2.830  -6.898  0.00  0.00    -0.085 HD
ATOM     16  H   UNL     1       4.426  -2.822  -6.084  0.00  0.00    -0.085 HD
BRANCH  14  17
ATOM     17  C   UNL     1       4.409  -4.054  -7.712  0.00  0.00    -0.082 C 
BRANCH  17  18
ATOM     18  C   UNL     1       4.946  -2.987  -8.668  0.00  0.00    -0.017 C 
BRANCH  18  19
ATOM     19  C   UNL     1       5.626  -3.666  -9.859  0.00  0.00    +0.026 C 
BRANCH  19  20
ATOM     20  C   UNL     1       6.163  -2.600 -10.816  0.00  0.00    +0.156 C 
BRANCH  20  21
ATOM     21  O   UNL     1       6.798  -3.234 -11.928  0.00  0.00    -0.395 OA
ATOM     22  H   UNL     1       7.162  -2.617 -12.577  0.00  0.00    +0.209 HD
ENDBRANCH  20  21
ENDBRANCH  19  20
ENDBRANCH  18  19
ENDBRANCH  17  18
ENDBRANCH  14  17
ENDBRANCH  13  14
ENDBRANCH   4  13
TORSDOF 10
