REMARK  Name = ZINC25417865
REMARK  11 active torsions:
REMARK  status: ('A' for Active; 'I' for Inactive)
REMARK    1  A    between atoms: C_1  and  C_2
REMARK    2  A    between atoms: C_2  and  C_4
REMARK    3  A    between atoms: C_2  and  N_14
REMARK    4  A    between atoms: C_7  and  S_10
REMARK    5  A    between atoms: S_10  and  N_13
REMARK    6  A    between atoms: C_15  and  C_17
REMARK    7  A    between atoms: C_17  and  C_19
REMARK    8  A    between atoms: C_17  and  N_20
REMARK    9  A    between atoms: N_20  and  C_21
REMARK   10  A    between atoms: N_20  and  C_22
REMARK   11  A    between atoms: C_22  and  C_23
REMARK                            x       y       z     vdW  Elec       q    Type
REMARK                         _______ _______ _______ _____ _____    ______ ____
ROOT
ATOM      1  N   UNL     1      -1.191   1.867   0.018  0.00  0.00    -0.310 N 
ATOM      2  C   UNL     1      -0.014   1.209   0.009  0.00  0.00    +0.200 C 
ATOM      3  O   UNL     1       0.002  -0.004   0.002  0.00  0.00    -0.278 OA
ATOM      4  H   UNL     1      -1.206   2.966   0.024  0.00  0.00    +0.149 HD
ENDROOT
BRANCH   1   6
ATOM      5  C   UNL     1      -2.830   0.756  -1.417  0.00  0.00    +0.033 C 
ATOM      6  C   UNL     1      -2.449   1.117   0.020  0.00  0.00    +0.100 C 
BRANCH   6   7
ATOM      7  C   UNL     1      -3.537   1.963   0.630  0.00  0.00    -0.027 A 
ATOM      8  C   UNL     1      -3.600   3.315   0.349  0.00  0.00    +0.007 A 
ATOM      9  C   UNL     1      -4.601   4.090   0.905  0.00  0.00    +0.029 A 
ATOM     10  C   UNL     1      -5.532   3.515   1.750  0.00  0.00    +0.105 A 
ATOM     11  C   UNL     1      -5.465   2.164   2.035  0.00  0.00    +0.029 A 
ATOM     12  C   UNL     1      -4.468   1.388   1.475  0.00  0.00    +0.007 A 
BRANCH  10  13
ATOM     13  S   UNL     1      -6.803   4.504   2.465  0.00  0.00    +0.056 S 
ATOM     14  O   UNL     1      -6.972   5.627   1.610  0.00  0.00    -0.153 OA
ATOM     15  O   UNL     1      -7.871   3.624   2.786  0.00  0.00    -0.153 OA
BRANCH  13  16
ATOM     16  N   UNL     1      -6.221   5.087   3.901  0.00  0.00    -0.204 NA
ATOM     17  H   UNL     1      -6.988   5.712   4.381  0.00  0.00    +0.144 HD
ATOM     18  H   UNL     1      -5.320   5.690   3.715  0.00  0.00    +0.144 HD
ENDBRANCH  13  16
ENDBRANCH  10  13
ENDBRANCH   6   7
ENDBRANCH   1   6
BRANCH   2  19
ATOM     19  C   UNL     1       1.280   1.980   0.001  0.00  0.00    +0.016 C 
ATOM     20  C   UNL     1       1.337   2.867  -1.245  0.00  0.00    -0.004 C 
BRANCH  19  21
ATOM     21  N   UNL     1       2.410   1.040  -0.015  0.00  0.00    +0.388 N 
ATOM     22  C   UNL     1       2.446   0.282  -1.273  0.00  0.00    -0.095 C 
ATOM     23  H   UNL     1       2.265   0.324   0.807  0.00  0.00    -0.081 HD
BRANCH  21  24
ATOM     24  C   UNL     1       3.680   1.741   0.214  0.00  0.00    -0.042 C 
BRANCH  24  25
ATOM     25  C   UNL     1       4.777   0.732   0.436  0.00  0.00    -0.064 A 
ATOM     26  C   UNL     1       5.062   0.290   1.714  0.00  0.00    +0.002 A 
ATOM     27  C   UNL     1       6.065  -0.640   1.917  0.00  0.00    +0.000 A 
ATOM     28  C   UNL     1       6.790  -1.119   0.842  0.00  0.00    +0.000 A 
ATOM     29  C   UNL     1       6.509  -0.673  -0.436  0.00  0.00    +0.000 A 
ATOM     30  C   UNL     1       5.503   0.252  -0.639  0.00  0.00    +0.002 A 
ENDBRANCH  24  25
ENDBRANCH  21  24
ENDBRANCH  19  21
ENDBRANCH   2  19
TORSDOF 8
