REMARK  Name = ZINC32943702
REMARK  4 active torsions:
REMARK  status: ('A' for Active; 'I' for Inactive)
REMARK    1  A    between atoms: C_1  and  C_2
REMARK    2  A    between atoms: N_8  and  S_9
REMARK    3  A    between atoms: S_9  and  C_12
REMARK    4  A    between atoms: C_22  and  C_24
REMARK                            x       y       z     vdW  Elec       q    Type
REMARK                         _______ _______ _______ _____ _____    ______ ____
ROOT
ATOM      1  C   UNL     1       2.516  -0.906  -3.661  0.00  0.00    +0.107 A 
ATOM      2  C   UNL     1       3.214   0.018  -4.418  0.00  0.00    +0.030 A 
ATOM      3  C   UNL     1       3.228  -0.090  -5.794  0.00  0.00    +0.018 A 
ATOM      4  C   UNL     1       2.547  -1.126  -6.422  0.00  0.00    +0.029 A 
ATOM      5  C   UNL     1       1.848  -2.060  -5.665  0.00  0.00    +0.051 A 
ATOM      6  C   UNL     1       1.841  -1.940  -4.277  0.00  0.00    +0.053 A 
ATOM      7  N   UNL     1       1.155  -3.131  -6.236  0.00  0.00    -0.270 N 
ATOM      8  C   UNL     1       0.752  -3.159  -7.638  0.00  0.00    +0.124 C 
ATOM      9  C   UNL     1       1.992  -2.918  -8.513  0.00  0.00    +0.094 C 
ATOM     10  S   UNL     1       2.578  -1.229  -8.184  0.00  0.00    -0.122 S 
ATOM     11  C   UNL     1       0.845  -4.185  -5.456  0.00  0.00    +0.217 C 
ATOM     12  O   UNL     1       1.174  -4.194  -4.288  0.00  0.00    -0.276 OA
ATOM     13  C   UNL     1       0.090  -5.354  -6.035  0.00  0.00    +0.109 C 
ENDROOT
BRANCH   1  14
ATOM     14  S   UNL     1       2.494  -0.765  -1.905  0.00  0.00    +0.061 S 
ATOM     15  O   UNL     1       3.656  -0.032  -1.542  0.00  0.00    -0.153 OA
ATOM     16  O   UNL     1       2.224  -2.065  -1.397  0.00  0.00    -0.153 OA
BRANCH  14  23
ATOM     17  C   UNL     1      -0.067  -1.925  -1.545  0.00  0.00    +0.026 C 
ATOM     18  C   UNL     1      -0.151  -0.404  -1.401  0.00  0.00    +0.077 C 
ATOM     19  C   UNL     1      -0.736  -0.050  -0.030  0.00  0.00    +0.020 C 
ATOM     20  C   UNL     1      -0.692   1.468   0.163  0.00  0.00    +0.003 C 
ATOM     21  C   UNL     1       0.761   1.947   0.120  0.00  0.00    +0.017 C 
ATOM     22  C   UNL     1       1.363   1.616  -1.249  0.00  0.00    +0.110 C 
ATOM     23  N   UNL     1       1.194   0.179  -1.505  0.00  0.00    -0.174 NA
ENDBRANCH  14  23
ENDBRANCH   1  14
TORSDOF 2
