REMARK  Name = ZINC64733489
REMARK  7 active torsions:
REMARK  status: ('A' for Active; 'I' for Inactive)
REMARK    1  A    between atoms: C_1  and  N_2
REMARK    2  A    between atoms: C_3  and  N_30
REMARK    3  A    between atoms: C_5  and  C_12
REMARK    4  A    between atoms: N_8  and  C_11
REMARK    5  A    between atoms: C_12  and  C_14
REMARK    6  A    between atoms: C_14  and  N_15
REMARK    7  A    between atoms: C_18  and  C_21
REMARK                            x       y       z     vdW  Elec       q    Type
REMARK                         _______ _______ _______ _____ _____    ______ ____
ROOT
ATOM      1  C   UNL     1      -3.632  -2.419  -0.031  0.00  0.00    +0.164 C 
ENDROOT
BRANCH   1   2
ATOM      2  N   UNL     1      -4.664  -3.452   0.129  0.00  0.00    -0.295 NA
ATOM      3  C   UNL     1      -4.620  -4.037   1.475  0.00  0.00    +0.085 C 
ATOM      4  C   UNL     1      -5.607  -5.203   1.558  0.00  0.00    +0.023 C 
ATOM      5  C   UNL     1      -7.018  -4.695   1.249  0.00  0.00    +0.020 C 
ATOM      6  C   UNL     1      -7.025  -4.047  -0.138  0.00  0.00    +0.023 C 
ATOM      7  C   UNL     1      -5.997  -2.914  -0.173  0.00  0.00    +0.085 C 
BRANCH   5   8
ATOM      8  C   UNL     1      -7.985  -5.850   1.271  0.00  0.00    -0.038 C 
ATOM      9  C   UNL     1      -9.065  -5.991   2.074  0.00  0.00    -0.001 A 
ATOM     10  C   UNL     1      -9.639  -5.144   3.127  0.00  0.00    +0.010 A 
ATOM     11  C   UNL     1     -10.752  -5.563   3.771  0.00  0.00    +0.001 A 
ATOM     12  C   UNL     1     -11.370  -6.781   3.458  0.00  0.00    +0.002 A 
ATOM     13  C   UNL     1     -10.902  -7.613   2.503  0.00  0.00    +0.026 A 
ATOM     14  C   UNL     1      -9.737  -7.273   1.763  0.00  0.00    +0.043 A 
ATOM     15  N   UNL     1      -9.098  -7.900   0.805  0.00  0.00    -0.380 N 
ATOM     16  C   UNL     1      -7.950  -7.082   0.396  0.00  0.00    +0.145 C 
ATOM     17  H   UNL     1      -9.344  -8.758   0.427  0.00  0.00    +0.160 HD
ENDBRANCH   5   8
ENDBRANCH   1   2
BRANCH   1  18
ATOM     18  C   UNL     1      -2.268  -3.057   0.044  0.00  0.00    +0.178 C 
ATOM     19  O   UNL     1      -2.166  -4.264   0.142  0.00  0.00    -0.291 OA
BRANCH  18  23
ATOM     20  C   UNL     1       2.777  -2.457  -0.104  0.00  0.00    +0.132 C 
ATOM     21  N   UNL     1       1.403  -1.949  -0.075  0.00  0.00    -0.298 N 
ATOM     22  C   UNL     1       0.261  -2.877  -0.029  0.00  0.00    +0.056 C 
ATOM     23  C   UNL     1      -1.124  -2.262   0.000  0.00  0.00    +0.061 C 
ATOM     24  C   UNL     1      -1.208  -0.884  -0.019  0.00  0.00    +0.253 C 
ATOM     25  O   UNL     1      -2.418  -0.289   0.006  0.00  0.00    -0.270 OA
ATOM     26  N   UNL     1      -0.078  -0.118  -0.062  0.00  0.00    -0.225 N 
ATOM     27  C   UNL     1       1.161  -0.624  -0.083  0.00  0.00    +0.310 C 
ATOM     28  O   UNL     1       2.104   0.142  -0.117  0.00  0.00    -0.252 OA
ATOM     29  C   UNL     1      -0.230   1.339  -0.081  0.00  0.00    +0.143 C 
BRANCH  22  30
ATOM     30  N   UNL     1       0.342  -3.753  -1.205  0.00  0.00    +0.393 N 
ATOM     31  H   UNL     1       1.245  -4.203  -1.228  0.00  0.00    -0.087 HD
ATOM     32  H   UNL     1      -0.382  -4.454  -1.153  0.00  0.00    -0.087 HD
ATOM     33  H   UNL     1       0.219  -3.204  -2.043  0.00  0.00    -0.087 HD
ENDBRANCH  22  30
ENDBRANCH  18  23
ENDBRANCH   1  18
TORSDOF 5
