REMARK  Name = ZINC33018414
REMARK  8 active torsions:
REMARK  status: ('A' for Active; 'I' for Inactive)
REMARK    1  A    between atoms: C_1  and  C_2
REMARK    2  A    between atoms: C_6  and  N_9
REMARK    3  A    between atoms: C_7  and  C_8
REMARK    4  A    between atoms: N_12  and  C_13
REMARK    5  A    between atoms: C_20  and  S_22
REMARK    6  A    between atoms: S_22  and  C_23
REMARK    7  A    between atoms: C_23  and  C_24
REMARK    8  A    between atoms: N_26  and  C_27
REMARK                            x       y       z     vdW  Elec       q    Type
REMARK                         _______ _______ _______ _____ _____    ______ ____
ROOT
ATOM      1  C   UNL     1       1.106  -1.370  -0.310  0.00  0.00    +0.036 A 
ATOM      2  C   UNL     1       0.836  -0.004  -0.348  0.00  0.00    +0.025 A 
ATOM      3  C   UNL     1       1.843   0.925  -0.306  0.00  0.00    +0.031 A 
ATOM      4  C   UNL     1       3.196   0.523  -0.222  0.00  0.00    +0.080 A 
ATOM      5  C   UNL     1       3.435  -0.869  -0.185  0.00  0.00    +0.042 A 
ATOM      6  C   UNL     1       2.425  -1.797  -0.228  0.00  0.00    +0.040 A 
ATOM      7  S   UNL     1       5.207  -0.947  -0.083  0.00  0.00    -0.061 S 
ATOM      8  C   UNL     1       5.511   0.814  -0.094  0.00  0.00    +0.136 A 
ATOM      9  N   UNL     1       4.296   1.308  -0.172  0.00  0.00    -0.233 NA
ENDROOT
BRANCH   1  13
ATOM     10  N   UNL     1      -0.804  -4.330  -1.121  0.00  0.00    -0.269 N 
ATOM     11  C   UNL     1       0.230  -3.474  -0.997  0.00  0.00    +0.308 C 
ATOM     12  O   UNL     1       1.315  -3.760  -1.464  0.00  0.00    -0.252 OA
ATOM     13  N   UNL     1       0.060  -2.301  -0.355  0.00  0.00    -0.269 N 
ATOM     14  H   UNL     1      -1.804  -4.040  -0.766  0.00  0.00    +0.156 HD
ATOM     15  H   UNL     1      -0.899  -2.075   0.133  0.00  0.00    +0.156 HD
BRANCH  10  21
ATOM     16  C   UNL     1      -1.896  -9.120  -1.319  0.00  0.00    +0.044 C 
ATOM     17  C   UNL     1      -1.122  -7.926  -1.817  0.00  0.00    -0.046 A 
ATOM     18  C   UNL     1      -0.213  -8.075  -2.849  0.00  0.00    +0.004 A 
ATOM     19  C   UNL     1       0.499  -6.982  -3.309  0.00  0.00    +0.002 A 
ATOM     20  C   UNL     1       0.305  -5.739  -2.738  0.00  0.00    +0.023 A 
ATOM     21  C   UNL     1      -0.606  -5.588  -1.701  0.00  0.00    +0.038 A 
ATOM     22  C   UNL     1      -1.315  -6.688  -1.238  0.00  0.00    -0.026 A 
ATOM     23  C   UNL     1      -2.300  -6.529  -0.108  0.00  0.00    +0.046 C 
ENDBRANCH  10  21
ENDBRANCH   1  13
BRANCH   8  24
ATOM     24  S   UNL     1       7.049   1.671  -0.020  0.00  0.00    -0.089 S 
BRANCH  24  25
ATOM     25  C   UNL     1       6.460   3.381  -0.082  0.00  0.00    +0.172 C 
BRANCH  25  26
ATOM     26  C   UNL     1       7.637   4.321  -0.030  0.00  0.00    +0.227 C 
ATOM     27  O   UNL     1       8.764   3.877   0.042  0.00  0.00    -0.275 OA
ATOM     28  N   UNL     1       7.438   5.653  -0.063  0.00  0.00    -0.285 N 
ATOM     29  H   UNL     1       6.415   6.057  -0.039  0.00  0.00    +0.155 HD
BRANCH  28  30
ATOM     30  C   UNL     1       8.533   6.523  -0.129  0.00  0.00    +0.034 A 
ATOM     31  C   UNL     1       8.484   7.752   0.517  0.00  0.00    +0.026 A 
ATOM     32  C   UNL     1       9.568   8.606   0.456  0.00  0.00    +0.040 A 
ATOM     33  C   UNL     1      10.698   8.243  -0.258  0.00  0.00    +0.124 A 
ATOM     34  C   UNL     1      10.746   7.021  -0.907  0.00  0.00    +0.040 A 
ATOM     35  C   UNL     1       9.667   6.161  -0.844  0.00  0.00    +0.026 A 
ATOM     36  F   UNL     1      11.755   9.082  -0.320  0.00  0.00    -0.205 F 
ENDBRANCH  28  30
ENDBRANCH  25  26
ENDBRANCH  24  25
ENDBRANCH   8  24
TORSDOF 6
