REMARK  Name = ZINC34829768
REMARK  10 active torsions:
REMARK  status: ('A' for Active; 'I' for Inactive)
REMARK    1  A    between atoms: C_1  and  C_2
REMARK    2  A    between atoms: C_2  and  C_3
REMARK    3  A    between atoms: C_3  and  C_4
REMARK    4  A    between atoms: C_4  and  C_5
REMARK    5  A    between atoms: C_8  and  C_11
REMARK    6  A    between atoms: C_18  and  C_20
REMARK    7  A    between atoms: C_21  and  C_23
REMARK    8  A    between atoms: C_23  and  N_24
REMARK    9  A    between atoms: C_32  and  C_34
REMARK   10  A    between atoms: C_37  and  C_40
REMARK                            x       y       z     vdW  Elec       q    Type
REMARK                         _______ _______ _______ _____ _____    ______ ____
ROOT
ATOM      1  C   UNL     1      -6.943  -3.658   0.022  0.00  0.00    +0.247 C 
ATOM      2  O   UNL     1      -7.474  -3.897   1.089  0.00  0.00    -0.270 OA
ATOM      3  N   UNL     1      -7.572  -3.969  -1.129  0.00  0.00    -0.292 N 
ATOM      4  C   UNL     1      -6.939  -3.691  -2.426  0.00  0.00    +0.127 C 
ATOM      5  C   UNL     1      -7.894  -2.832  -3.264  0.00  0.00    +0.126 C 
ATOM      6  N   UNL     1      -9.225  -3.454  -3.244  0.00  0.00    -0.300 N 
ATOM      7  C   UNL     1      -9.858  -3.731  -1.947  0.00  0.00    +0.130 C 
ATOM      8  C   UNL     1      -8.901  -4.596  -1.109  0.00  0.00    +0.091 C 
ATOM      9  C   UNL     1      -9.409  -4.678   0.332  0.00  0.00    +0.029 C 
ATOM     10  C   UNL     1      -9.854  -3.765  -4.395  0.00  0.00    +0.199 C 
ATOM     11  O   UNL     1     -10.953  -4.278  -4.366  0.00  0.00    -0.278 OA
ENDROOT
BRANCH   1  15
ATOM     12  C   UNL     1      -3.103  -1.846  -0.079  0.00  0.00    -0.047 A 
ATOM     13  C   UNL     1      -3.982  -1.541   0.946  0.00  0.00    +0.004 A 
ATOM     14  C   UNL     1      -5.230  -2.126   0.984  0.00  0.00    +0.013 A 
ATOM     15  C   UNL     1      -5.606  -3.027  -0.013  0.00  0.00    +0.037 A 
ATOM     16  C   UNL     1      -4.715  -3.330  -1.044  0.00  0.00    +0.013 A 
ATOM     17  C   UNL     1      -3.471  -2.734  -1.074  0.00  0.00    +0.004 A 
BRANCH  12  18
ATOM     18  C   UNL     1      -1.740  -1.203  -0.114  0.00  0.00    +0.035 C 
BRANCH  18  19
ATOM     19  C   UNL     1      -1.815   0.107  -0.902  0.00  0.00    +0.004 C 
BRANCH  19  21
ATOM     20  C   UNL     1      -0.506   2.069  -1.726  0.00  0.00    +0.004 C 
ATOM     21  C   UNL     1      -0.431   0.759  -0.939  0.00  0.00    -0.003 C 
ENDBRANCH  19  21
ENDBRANCH  18  19
ENDBRANCH  12  18
ENDBRANCH   1  15
BRANCH  10  22
ATOM     22  C   UNL     1      -9.193  -3.474  -5.718  0.00  0.00    +0.020 C 
BRANCH  22  23
ATOM     23  N   UNL     1     -10.075  -3.902  -6.811  0.00  0.00    +0.393 N 
ATOM     24  C   UNL     1     -11.309  -3.106  -6.776  0.00  0.00    -0.072 C 
ATOM     25  C   UNL     1     -12.354  -3.767  -7.692  0.00  0.00    +0.024 C 
ATOM     26  C   UNL     1     -11.680  -4.084  -8.987  0.00  0.00    -0.010 A 
ATOM     27  C   UNL     1     -10.338  -4.078  -9.224  0.00  0.00    -0.047 A 
ATOM     28  C   UNL     1      -9.933  -4.403 -10.516  0.00  0.00    +0.010 A 
ATOM     29  C   UNL     1     -10.856  -4.706 -11.458  0.00  0.00    +0.045 A 
ATOM     30  S   UNL     1     -12.384  -4.544 -10.544  0.00  0.00    -0.101 S 
ATOM     31  C   UNL     1      -9.378  -3.728  -8.091  0.00  0.00    -0.005 C 
ATOM     32  H   UNL     1     -10.306  -4.877  -6.689  0.00  0.00    -0.080 HD
BRANCH  31  33
ATOM     33  C   UNL     1      -8.181  -4.641  -8.143  0.00  0.00    -0.057 A 
ATOM     34  C   UNL     1      -8.271  -5.928  -7.646  0.00  0.00    +0.002 A 
ATOM     35  C   UNL     1      -7.173  -6.766  -7.694  0.00  0.00    +0.003 A 
ATOM     36  C   UNL     1      -5.984  -6.317  -8.238  0.00  0.00    -0.050 A 
ATOM     37  C   UNL     1      -5.894  -5.030  -8.735  0.00  0.00    +0.003 A 
ATOM     38  C   UNL     1      -6.993  -4.194  -8.691  0.00  0.00    +0.002 A 
ATOM     39  C   UNL     1      -4.786  -7.230  -8.289  0.00  0.00    +0.044 C 
ENDBRANCH  31  33
ENDBRANCH  22  23
ENDBRANCH  10  22
TORSDOF 7
