REMARK  Name = ZINC14018129
REMARK  5 active torsions:
REMARK  status: ('A' for Active; 'I' for Inactive)
REMARK    1  A    between atoms: C_5  and  C_7
REMARK    2  A    between atoms: N_9  and  N_10
REMARK    3  A    between atoms: N_10  and  C_11
REMARK    4  A    between atoms: C_11  and  N_13
REMARK    5  A    between atoms: C_14  and  C_16
REMARK                            x       y       z     vdW  Elec       q    Type
REMARK                         _______ _______ _______ _____ _____    ______ ____
ROOT
ATOM      1  N   UNL     1      -4.734   2.526   0.040  0.00  0.00    -0.245 N 
ATOM      2  H   UNL     1      -5.495   3.127   0.047  0.00  0.00    +0.172 HD
ENDROOT
BRANCH   1   5
ATOM      3  C   UNL     1      -6.188   0.641   0.038  0.00  0.00    +0.261 C 
ATOM      4  O   UNL     1      -7.142   1.395   0.047  0.00  0.00    -0.269 OA
ATOM      5  N   UNL     1      -4.936   1.140   0.034  0.00  0.00    -0.231 N 
ATOM      6  H   UNL     1      -4.175   0.538   0.027  0.00  0.00    +0.173 HD
BRANCH   3  11
ATOM      7  C   UNL     1      -5.514  -3.053   0.015  0.00  0.00    +0.001 A 
ATOM      8  C   UNL     1      -6.801  -3.562   0.019  0.00  0.00    +0.001 A 
ATOM      9  C   UNL     1      -7.889  -2.709   0.030  0.00  0.00    +0.016 A 
ATOM     10  C   UNL     1      -7.698  -1.341   0.036  0.00  0.00    +0.030 A 
ATOM     11  C   UNL     1      -6.401  -0.821   0.032  0.00  0.00    +0.052 A 
ATOM     12  C   UNL     1      -5.308  -1.689   0.016  0.00  0.00    +0.014 A 
ATOM     13 BR   UNL     1      -9.187  -0.175   0.050  0.00  0.00    -0.050 Br
ENDBRANCH   3  11
ENDBRANCH   1   5
BRANCH   1  14
ATOM     14  C   UNL     1      -3.482   3.024   0.036  0.00  0.00    +0.153 C 
ATOM     15  S   UNL     1      -3.234   4.718   0.044  0.00  0.00    -0.017 S 
BRANCH  14  16
ATOM     16  N   UNL     1      -2.424   2.189   0.026  0.00  0.00    -0.262 N 
ATOM     17  C   UNL     1      -1.172   2.688   0.022  0.00  0.00    +0.256 C 
ATOM     18  O   UNL     1      -0.996   3.892   0.028  0.00  0.00    -0.269 OA
ATOM     19  H   UNL     1      -2.564   1.229   0.022  0.00  0.00    +0.157 HD
BRANCH  17  20
ATOM     20  C   UNL     1      -0.022   1.780   0.012  0.00  0.00    +0.074 A 
ATOM     21  C   UNL     1       1.331   2.083   0.001  0.00  0.00    +0.021 A 
ATOM     22  C   UNL     1       2.208   1.027  -0.013  0.00  0.00    +0.008 A 
ATOM     23  C   UNL     1       1.719  -0.241  -0.016  0.00  0.00    +0.046 A 
ATOM     24  S   UNL     1       0.002  -0.004   0.002  0.00  0.00    -0.092 S 
ENDBRANCH  17  20
ENDBRANCH  14  16
ENDBRANCH   1  14
TORSDOF 5
