REMARK  Name = ZINC40988949
REMARK  9 active torsions:
REMARK  status: ('A' for Active; 'I' for Inactive)
REMARK    1  A    between atoms: C_1  and  N_2
REMARK    2  A    between atoms: N_2  and  C_3
REMARK    3  A    between atoms: N_2  and  C_4
REMARK    4  A    between atoms: C_4  and  C_6
REMARK    5  A    between atoms: C_4  and  C_27
REMARK    6  A    between atoms: C_6  and  N_7
REMARK    7  A    between atoms: C_8  and  C_10
REMARK    8  A    between atoms: N_13  and  C_15
REMARK    9  A    between atoms: C_30  and  C_33
REMARK                            x       y       z     vdW  Elec       q    Type
REMARK                         _______ _______ _______ _____ _____    ______ ____
ROOT
ATOM      1  N   UNL     1      -1.766   1.531  -1.169  0.00  0.00    -0.311 N 
ATOM      2  C   UNL     1      -2.260   2.263  -2.188  0.00  0.00    +0.264 C 
ATOM      3  O   UNL     1      -2.936   1.731  -3.047  0.00  0.00    -0.268 OA
ATOM      4  H   UNL     1      -1.227   1.956  -0.484  0.00  0.00    +0.149 HD
ENDROOT
BRANCH   2   5
ATOM      5  C   UNL     1      -1.980   3.712  -2.260  0.00  0.00    +0.150 A 
ATOM      6  C   UNL     1      -2.425   4.604  -3.249  0.00  0.00    +0.006 A 
ATOM      7  C   UNL     1      -1.926   5.817  -2.909  0.00  0.00    +0.044 A 
ATOM      8  N   UNL     1      -1.223   5.654  -1.776  0.00  0.00    -0.263 N 
ATOM      9  N   UNL     1      -1.265   4.421  -1.404  0.00  0.00    -0.166 NA
ATOM     10  C   UNL     1      -2.157   7.075  -3.706  0.00  0.00    +0.055 C 
ATOM     11  C   UNL     1      -2.652   6.677  -5.103  0.00  0.00    +0.006 C 
ATOM     12  C   UNL     1      -3.811   5.685  -4.974  0.00  0.00    +0.005 C 
ATOM     13  C   UNL     1      -3.280   4.341  -4.458  0.00  0.00    +0.039 C 
BRANCH   8  14
ATOM     14  C   UNL     1      -0.516   6.722  -1.065  0.00  0.00    +0.130 C 
ATOM     15  C   UNL     1       0.978   6.375  -0.957  0.00  0.00    +0.051 C 
ATOM     16  C   UNL     1       1.668   7.320   0.056  0.00  0.00    +0.168 C 
ATOM     17  S   UNL     1       0.297   7.755   1.202  0.00  0.00    -0.029 S 
ATOM     18  O   UNL     1       0.544   7.157   2.467  0.00  0.00    -0.174 OA
ATOM     19  O   UNL     1       0.056   9.153   1.124  0.00  0.00    -0.174 OA
ATOM     20  C   UNL     1      -1.086   6.860   0.376  0.00  0.00    +0.192 C 
ENDBRANCH   8  14
ENDBRANCH   2   5
BRANCH   1  21
ATOM     21  C   UNL     1      -2.044   0.095  -1.098  0.00  0.00    +0.094 C 
BRANCH  21  22
ATOM     22  C   UNL     1      -1.281  -0.514   0.081  0.00  0.00    -0.021 C 
BRANCH  22  23
ATOM     23  C   UNL     1      -1.799   0.070   1.370  0.00  0.00    -0.059 A 
ATOM     24  C   UNL     1      -2.967  -0.414   1.928  0.00  0.00    +0.002 A 
ATOM     25  C   UNL     1      -3.442   0.122   3.111  0.00  0.00    +0.012 A 
ATOM     26  C   UNL     1      -2.748   1.141   3.735  0.00  0.00    +0.055 A 
ATOM     27  C   UNL     1      -1.579   1.625   3.178  0.00  0.00    +0.012 A 
ATOM     28  C   UNL     1      -1.102   1.086   1.997  0.00  0.00    +0.002 A 
BRANCH  26  29
ATOM     29  C   UNL     1      -3.266   1.726   5.024  0.00  0.00    +0.417 C 
ATOM     30  F   UNL     1      -2.733   1.017   6.105  0.00  0.00    -0.166 F 
ATOM     31  F   UNL     1      -2.884   3.069   5.113  0.00  0.00    -0.166 F 
ATOM     32  F   UNL     1      -4.662   1.636   5.049  0.00  0.00    -0.166 F 
ENDBRANCH  26  29
ENDBRANCH  22  23
BRANCH  22  34
ATOM     33  C   UNL     1      -0.970  -2.540  -1.166  0.00  0.00    -0.096 C 
ATOM     34  N   UNL     1      -1.476  -1.970   0.090  0.00  0.00    +0.382 N 
ATOM     35  C   UNL     1      -0.744  -2.555   1.222  0.00  0.00    -0.096 C 
ATOM     36  H   UNL     1      -2.459  -2.178   0.182  0.00  0.00    -0.082 HD
ENDBRANCH  22  34
ENDBRANCH  21  22
ENDBRANCH   1  21
TORSDOF 7
