REMARK  Name = ZINC22473213
REMARK  9 active torsions:
REMARK  status: ('A' for Active; 'I' for Inactive)
REMARK    1  A    between atoms: C_4  and  C_7
REMARK    2  A    between atoms: C_7  and  N_8
REMARK    3  A    between atoms: N_8  and  C_9
REMARK    4  A    between atoms: C_9  and  C_10
REMARK    5  A    between atoms: C_10  and  C_11
REMARK    6  A    between atoms: C_11  and  N_12
REMARK    7  A    between atoms: C_15  and  O_16
REMARK    8  A    between atoms: C_24  and  C_26
REMARK    9  A    between atoms: C_27  and  C_28
REMARK                            x       y       z     vdW  Elec       q    Type
REMARK                         _______ _______ _______ _____ _____    ______ ____
ROOT
ATOM      1  N   UNL     1       3.581   1.741  -0.023  0.00  0.00    -0.294 N 
ATOM      2  C   UNL     1       2.424   1.051  -0.015  0.00  0.00    +0.240 C 
ATOM      3  O   UNL     1       2.440  -0.166  -0.022  0.00  0.00    -0.271 OA
ENDROOT
BRANCH   2   4
ATOM      4  C   UNL     1       1.146   1.766   0.001  0.00  0.00    +0.068 C 
ATOM      5  C   UNL     1      -0.013   1.076   0.008  0.00  0.00    +0.013 C 
BRANCH   5   6
ATOM      6  C   UNL     1      -1.297   1.794   0.018  0.00  0.00    -0.025 A 
ATOM      7  C   UNL     1      -1.320   3.193   0.031  0.00  0.00    +0.008 A 
ATOM      8  C   UNL     1      -2.528   3.858   0.035  0.00  0.00    +0.001 A 
ATOM      9  C   UNL     1      -3.715   3.147   0.037  0.00  0.00    +0.000 A 
ATOM     10  C   UNL     1      -3.700   1.763   0.029  0.00  0.00    +0.001 A 
ATOM     11  C   UNL     1      -2.501   1.082   0.020  0.00  0.00    +0.008 A 
ENDBRANCH   5   6
ENDBRANCH   2   4
BRANCH   1  12
ATOM     12  C   UNL     1       3.562   3.205  -0.015  0.00  0.00    +0.143 C 
BRANCH  12  16
ATOM     13  C   UNL     1       3.581   4.608   4.020  0.00  0.00    +0.000 A 
ATOM     14  C   UNL     1       4.774   4.397   3.356  0.00  0.00    +0.000 A 
ATOM     15  C   UNL     1       4.768   3.943   2.050  0.00  0.00    +0.005 A 
ATOM     16  C   UNL     1       3.568   3.700   1.409  0.00  0.00    -0.030 A 
ATOM     17  C   UNL     1       2.374   3.916   2.071  0.00  0.00    +0.005 A 
ATOM     18  C   UNL     1       2.381   4.365   3.378  0.00  0.00    +0.000 A 
ENDBRANCH  12  16
ENDBRANCH   1  12
BRANCH   1  19
ATOM     19  C   UNL     1       4.860   1.025  -0.039  0.00  0.00    +0.110 C 
BRANCH  19  20
ATOM     20  C   UNL     1       5.291   0.784  -1.487  0.00  0.00    +0.040 C 
BRANCH  20  21
ATOM     21  C   UNL     1       6.626   0.037  -1.504  0.00  0.00    +0.114 C 
BRANCH  21  22
ATOM     22  N   UNL     1       7.039  -0.194  -2.890  0.00  0.00    -0.384 N 
ATOM     23  C   UNL     1       8.219  -0.853  -3.157  0.00  0.00    +0.053 A 
ATOM     24  C   UNL     1       9.022  -1.303  -2.140  0.00  0.00    +0.113 A 
ATOM     25  C   UNL     1      10.216  -1.970  -2.443  0.00  0.00    +0.286 A 
ATOM     26  O   UNL     1      10.605  -2.188  -3.710  0.00  0.00    -0.425 OA
ATOM     27  C   UNL     1       9.866  -1.774  -4.761  0.00  0.00    +0.141 A 
ATOM     28  C   UNL     1       8.652  -1.103  -4.542  0.00  0.00    +0.041 A 
ATOM     29  C   UNL     1       7.882  -0.679  -5.625  0.00  0.00    +0.013 A 
ATOM     30  C   UNL     1       8.316  -0.929  -6.909  0.00  0.00    +0.001 A 
ATOM     31  C   UNL     1       9.511  -1.598  -7.125  0.00  0.00    +0.004 A 
ATOM     32  C   UNL     1      10.289  -2.010  -6.063  0.00  0.00    +0.047 A 
ATOM     33  H   UNL     1       6.407   0.160  -3.718  0.00  0.00    +0.160 HD
BRANCH  25  34
ATOM     34  O   UNL     1      10.921  -2.365  -1.531  0.00  0.00    -0.480 OA
ATOM     35  H   UNL     1      11.862  -2.891  -1.751  0.00  0.00    +0.295 HD
ENDBRANCH  25  34
ENDBRANCH  21  22
ENDBRANCH  20  21
ENDBRANCH  19  20
ENDBRANCH   1  19
TORSDOF 9
