REMARK  Name = ZINC64787655
REMARK  7 active torsions:
REMARK  status: ('A' for Active; 'I' for Inactive)
REMARK    1  A    between atoms: C_1  and  C_2
REMARK    2  A    between atoms: C_5  and  C_8
REMARK    3  A    between atoms: C_13  and  C_24
REMARK    4  A    between atoms: C_13  and  C_25
REMARK    5  A    between atoms: C_16  and  C_18
REMARK    6  A    between atoms: N_26  and  C_33
REMARK    7  A    between atoms: N_29  and  C_32
REMARK                            x       y       z     vdW  Elec       q    Type
REMARK                         _______ _______ _______ _____ _____    ______ ____
ROOT
ATOM      1  C   UNL     1      -1.718  -5.740   0.069  0.00  0.00    +0.064 A 
ATOM      2  C   UNL     1      -2.304  -6.991   0.161  0.00  0.00    +0.089 A 
ATOM      3  C   UNL     1      -1.267  -7.898   0.682  0.00  0.00    +0.083 A 
ATOM      4  C   UNL     1      -0.167  -7.154   0.862  0.00  0.00    +0.078 A 
ATOM      5  N   UNL     1      -0.432  -5.853   0.489  0.00  0.00    -0.331 N 
ATOM      6  C   UNL     1       0.574  -4.783   0.563  0.00  0.00    +0.064 C 
ATOM      7  C   UNL     1       1.716  -5.263   1.467  0.00  0.00    +0.189 C 
ATOM      8  O   UNL     1       2.133  -6.571   1.066  0.00  0.00    -0.364 OA
ATOM      9  C   UNL     1       1.182  -7.602   1.377  0.00  0.00    +0.197 C 
ATOM     10  C   UNL     1       1.114  -4.484  -0.837  0.00  0.00    +0.036 C 
ATOM     11  C   UNL     1      -0.057  -3.521   1.155  0.00  0.00    +0.036 C 
ATOM     12  N   UNL     1      -1.611  -9.242   0.868  0.00  0.00    -0.294 N 
ATOM     13  C   UNL     1      -2.852  -9.670   0.576  0.00  0.00    +0.332 A 
ATOM     14  O   UNL     1      -3.109 -10.845   0.752  0.00  0.00    -0.246 OA
ATOM     15  N   UNL     1      -3.820  -8.875   0.102  0.00  0.00    -0.263 N 
ATOM     16  C   UNL     1      -3.624  -7.558  -0.125  0.00  0.00    +0.266 A 
ATOM     17  O   UNL     1      -4.522  -6.860  -0.557  0.00  0.00    -0.267 OA
ATOM     18  C   UNL     1      -5.136  -9.453  -0.181  0.00  0.00    +0.157 C 
ATOM     19  C   UNL     1      -0.616 -10.185   1.383  0.00  0.00    +0.154 C 
ENDROOT
BRANCH   1  24
ATOM     20  C   UNL     1      -4.270  -0.927  -1.780  0.00  0.00    +0.044 C 
ATOM     21  C   UNL     1      -3.602  -2.188  -1.296  0.00  0.00    -0.050 A 
ATOM     22  C   UNL     1      -4.020  -2.780  -0.117  0.00  0.00    +0.004 A 
ATOM     23  C   UNL     1      -3.413  -3.934   0.332  0.00  0.00    +0.010 A 
ATOM     24  C   UNL     1      -2.373  -4.505  -0.406  0.00  0.00    -0.001 A 
ATOM     25  C   UNL     1      -1.956  -3.902  -1.594  0.00  0.00    +0.010 A 
ATOM     26  C   UNL     1      -2.576  -2.751  -2.035  0.00  0.00    +0.004 A 
ENDBRANCH   1  24
BRANCH   9  27
ATOM     27  C   UNL     1       1.591  -8.880   0.694  0.00  0.00    -0.013 A 
ATOM     28  C   UNL     1       1.582  -8.960  -0.686  0.00  0.00    +0.006 A 
ATOM     29  C   UNL     1       1.957 -10.133  -1.314  0.00  0.00    +0.000 A 
ATOM     30  C   UNL     1       2.343 -11.226  -0.561  0.00  0.00    +0.000 A 
ATOM     31  C   UNL     1       2.354 -11.147   0.819  0.00  0.00    +0.000 A 
ATOM     32  C   UNL     1       1.982  -9.972   1.446  0.00  0.00    +0.006 A 
ENDBRANCH   9  27
TORSDOF 2
