REMARK  Name = ZINC63571383
REMARK  7 active torsions:
REMARK  status: ('A' for Active; 'I' for Inactive)
REMARK    1  A    between atoms: C_1  and  C_2
REMARK    2  A    between atoms: C_2  and  O_3
REMARK    3  A    between atoms: O_3  and  C_4
REMARK    4  A    between atoms: C_4  and  C_6
REMARK    5  A    between atoms: C_6  and  C_7
REMARK    6  A    between atoms: C_7  and  N_13
REMARK    7  A    between atoms: C_29  and  C_31
REMARK                            x       y       z     vdW  Elec       q    Type
REMARK                         _______ _______ _______ _____ _____    ______ ____
ROOT
ATOM      1  N   UNL     1      -1.646  -5.210  -0.677  0.00  0.00    -0.293 N 
ATOM      2  C   UNL     1      -0.398  -4.720  -0.817  0.00  0.00    +0.303 C 
ATOM      3  O   UNL     1       0.054  -3.959   0.017  0.00  0.00    -0.253 OA
ATOM      4  N   UNL     1       0.349  -5.073  -1.882  0.00  0.00    -0.276 N 
ATOM      5  C   UNL     1      -0.246  -5.885  -2.948  0.00  0.00    +0.114 C 
ATOM      6  C   UNL     1       0.570  -7.179  -3.124  0.00  0.00    +0.052 C 
ATOM      7  C   UNL     1       2.024  -6.776  -3.127  0.00  0.00    -0.035 C 
ATOM      8  C   UNL     1       3.006  -7.040  -3.980  0.00  0.00    -0.001 A 
ATOM      9  C   UNL     1       3.065  -7.907  -5.168  0.00  0.00    +0.010 A 
ATOM     10  C   UNL     1       4.249  -7.929  -5.835  0.00  0.00    +0.001 A 
ATOM     11  C   UNL     1       5.366  -7.185  -5.445  0.00  0.00    +0.002 A 
ATOM     12  C   UNL     1       5.404  -6.369  -4.361  0.00  0.00    +0.026 A 
ATOM     13  C   UNL     1       4.220  -6.269  -3.574  0.00  0.00    +0.043 A 
ATOM     14  N   UNL     1       3.986  -5.592  -2.489  0.00  0.00    -0.375 N 
ATOM     15  C   UNL     1       2.627  -5.895  -2.039  0.00  0.00    +0.131 C 
ATOM     16  C   UNL     1       1.751  -4.634  -1.965  0.00  0.00    +0.137 C 
ATOM     17  H   UNL     1      -2.034  -5.756  -1.378  0.00  0.00    +0.151 HD
ATOM     18  H   UNL     1       4.608  -4.989  -2.051  0.00  0.00    +0.160 HD
ENDROOT
BRANCH  16  19
ATOM     19  C   UNL     1       2.109  -3.833  -0.740  0.00  0.00    +0.010 A 
ATOM     20  C   UNL     1       2.737  -4.445   0.328  0.00  0.00    +0.008 A 
ATOM     21  C   UNL     1       3.065  -3.711   1.452  0.00  0.00    +0.000 A 
ATOM     22  C   UNL     1       2.765  -2.362   1.509  0.00  0.00    +0.003 A 
ATOM     23  C   UNL     1       2.137  -1.747   0.443  0.00  0.00    +0.039 A 
ATOM     24  C   UNL     1       1.813  -2.482  -0.686  0.00  0.00    +0.128 A 
ATOM     25  F   UNL     1       1.203  -1.881  -1.731  0.00  0.00    -0.205 F 
ENDBRANCH  16  19
BRANCH   1  26
ATOM     26  C   UNL     1      -2.416  -4.917   0.534  0.00  0.00    +0.046 C 
ATOM     27  C   UNL     1      -3.748  -5.669   0.486  0.00  0.00    +0.026 C 
ATOM     28  C   UNL     1      -4.541  -5.221  -0.744  0.00  0.00    +0.002 C 
ATOM     29  C   UNL     1      -4.807  -3.717  -0.659  0.00  0.00    +0.000 C 
ATOM     30  C   UNL     1      -3.475  -2.966  -0.611  0.00  0.00    +0.002 C 
ATOM     31  C   UNL     1      -2.682  -3.413   0.619  0.00  0.00    +0.026 C 
BRANCH  26  32
ATOM     32  C   UNL     1      -1.622  -5.365   1.764  0.00  0.00    +0.146 C 
BRANCH  32  33
ATOM     33  C   UNL     1      -1.227  -6.811   1.608  0.00  0.00    +0.309 C 
ATOM     34  O   UNL     1      -1.608  -7.441   0.649  0.00  0.00    -0.251 OA
BRANCH  33  35
ATOM     35  O   UNL     1      -0.452  -7.398   2.533  0.00  0.00    -0.465 OA
BRANCH  35  37
ATOM     36  C   UNL     1       0.765  -9.264   3.470  0.00  0.00    +0.048 C 
ATOM     37  C   UNL     1      -0.117  -8.771   2.321  0.00  0.00    +0.229 C 
ENDBRANCH  35  37
ENDBRANCH  33  35
ENDBRANCH  32  33
ENDBRANCH  26  32
ENDBRANCH   1  26
TORSDOF 6
