REMARK  Name = ZINC37450742
REMARK  6 active torsions:
REMARK  status: ('A' for Active; 'I' for Inactive)
REMARK    1  A    between atoms: C_1  and  C_2
REMARK    2  A    between atoms: C_3  and  C_9
REMARK    3  A    between atoms: N_5  and  C_7
REMARK    4  A    between atoms: C_10  and  C_11
REMARK    5  A    between atoms: N_13  and  C_14
REMARK    6  A    between atoms: C_15  and  C_19
REMARK                            x       y       z     vdW  Elec       q    Type
REMARK                         _______ _______ _______ _____ _____    ______ ____
ROOT
ATOM      1  C   UNL     1       0.883  -0.440  -4.771  0.00  0.00    +0.241 C 
ATOM      2  O   UNL     1       0.063   0.381  -5.139  0.00  0.00    -0.270 OA
ATOM      3  N   UNL     1       1.780  -0.935  -5.647  0.00  0.00    -0.276 N 
ATOM      4  H   UNL     1       2.434  -1.589  -5.354  0.00  0.00    +0.156 HD
ENDROOT
BRANCH   3   5
ATOM      5  C   UNL     1       1.769  -0.510  -6.963  0.00  0.00    +0.086 A 
ATOM      6  C   UNL     1       2.606  -0.911  -7.999  0.00  0.00    +0.092 A 
ATOM      7  C   UNL     1       2.371  -0.302  -9.290  0.00  0.00    +0.024 A 
ATOM      8  C   UNL     1       1.365   0.588  -9.344  0.00  0.00    +0.048 A 
ATOM      9  S   UNL     1       0.736   0.602  -7.679  0.00  0.00    -0.081 S 
BRANCH   6  10
ATOM     10  C   UNL     1       3.635  -1.866  -7.800  0.00  0.00    +0.389 C 
ATOM     11  O   UNL     1       4.354  -2.195  -8.736  0.00  0.00    -0.241 OA
ATOM     12  O   UNL     1       3.805  -2.361  -6.693  0.00  0.00    -0.241 OA
ENDBRANCH   6  10
ENDBRANCH   3   5
BRANCH   1  14
ATOM     13  C   UNL     1      -0.004  -0.378  -2.545  0.00  0.00    +0.018 C 
ATOM     14  C   UNL     1       0.895  -0.875  -3.423  0.00  0.00    +0.068 C 
BRANCH  13  17
ATOM     15  C   UNL     1      -0.018   1.503   0.010  0.00  0.00    +0.068 C 
ATOM     16  C   UNL     1       0.002  -0.004   0.002  0.00  0.00    +0.069 A 
ATOM     17  C   UNL     1       0.008  -0.829  -1.148  0.00  0.00    +0.034 A 
ATOM     18  C   UNL     1       0.028  -2.142  -0.706  0.00  0.00    +0.134 A 
ATOM     19  N   UNL     1       0.034  -2.112   0.638  0.00  0.00    -0.255 N 
ATOM     20  N   UNL     1       0.023  -0.776   1.053  0.00  0.00    -0.175 NA
ATOM     21  C   UNL     1       0.053  -3.281   1.520  0.00  0.00    +0.174 C 
ATOM     22 CL   UNL     1       0.043  -3.562  -1.704  0.00  0.00    -0.062 Cl
ENDBRANCH  13  17
ENDBRANCH   1  14
TORSDOF 4
