REMARK  Name = ZINC63281369
REMARK  6 active torsions:
REMARK  status: ('A' for Active; 'I' for Inactive)
REMARK    1  A    between atoms: C_8  and  C_11
REMARK    2  A    between atoms: N_13  and  C_14
REMARK    3  A    between atoms: C_14  and  C_15
REMARK    4  A    between atoms: C_15  and  N_16
REMARK    5  A    between atoms: C_17  and  C_19
REMARK    6  A    between atoms: C_19  and  C_20
REMARK                            x       y       z     vdW  Elec       q    Type
REMARK                         _______ _______ _______ _____ _____    ______ ____
ROOT
ATOM      1  C   UNL     1       7.330  -4.245  -0.091  0.00  0.00    +0.123 C 
ENDROOT
BRANCH   1   2
ATOM      2  N   UNL     1       8.107  -5.487  -0.105  0.00  0.00    -0.314 N 
ATOM      3  C   UNL     1       9.454  -5.439  -0.118  0.00  0.00    +0.217 C 
ATOM      4  O   UNL     1      10.023  -4.368  -0.119  0.00  0.00    -0.275 OA
ATOM      5  H   UNL     1       7.652  -6.343  -0.105  0.00  0.00    +0.149 HD
BRANCH   3   6
ATOM      6  C   UNL     1      10.253  -6.717  -0.132  0.00  0.00    +0.129 C 
BRANCH   6   7
ATOM      7  C   UNL     1      11.724  -6.389  -0.145  0.00  0.00    -0.033 C 
ATOM      8  C   UNL     1      12.550  -6.314   0.923  0.00  0.00    -0.001 A 
ATOM      9  C   UNL     1      12.335  -6.508   2.362  0.00  0.00    +0.010 A 
ATOM     10  C   UNL     1      13.380  -6.361   3.208  0.00  0.00    +0.001 A 
ATOM     11  C   UNL     1      14.661  -6.030   2.745  0.00  0.00    +0.002 A 
ATOM     12  C   UNL     1      14.937  -5.837   1.438  0.00  0.00    +0.026 A 
ATOM     13  C   UNL     1      13.912  -5.965   0.460  0.00  0.00    +0.043 A 
ATOM     14  N   UNL     1      13.928  -5.830  -0.844  0.00  0.00    -0.380 N 
ATOM     15  C   UNL     1      12.577  -6.083  -1.356  0.00  0.00    +0.145 C 
ATOM     16  H   UNL     1      14.704  -5.603  -1.380  0.00  0.00    +0.160 HD
ENDBRANCH   6   7
ENDBRANCH   3   6
ENDBRANCH   1   2
BRANCH   1  17
ATOM     17  C   UNL     1       5.837  -4.578  -0.078  0.00  0.00    +0.123 C 
BRANCH  17  20
ATOM     18  C   UNL     1       3.713  -3.383  -0.051  0.00  0.00    +0.260 C 
ATOM     19  O   UNL     1       3.143  -4.458  -0.051  0.00  0.00    -0.269 OA
ATOM     20  N   UNL     1       5.060  -3.336  -0.065  0.00  0.00    -0.309 N 
ATOM     21  H   UNL     1       5.515  -2.479  -0.065  0.00  0.00    +0.149 HD
BRANCH  18  29
ATOM     22  C   UNL     1      -0.016   1.360   0.009  0.00  0.00    +0.001 A 
ATOM     23  C   UNL     1       1.169   2.084   0.002  0.00  0.00    +0.002 A 
ATOM     24  C   UNL     1       2.385   1.439  -0.013  0.00  0.00    +0.026 A 
ATOM     25  C   UNL     1       2.430   0.047  -0.021  0.00  0.00    +0.047 A 
ATOM     26  C   UNL     1       1.227  -0.684  -0.013  0.00  0.00    +0.000 A 
ATOM     27  C   UNL     1       0.002  -0.004   0.002  0.00  0.00    +0.010 A 
ATOM     28  C   UNL     1       1.577  -2.056  -0.024  0.00  0.00    +0.040 A 
ATOM     29  C   UNL     1       2.933  -2.137  -0.038  0.00  0.00    +0.103 A 
ATOM     30  N   UNL     1       3.463  -0.861  -0.036  0.00  0.00    -0.351 N 
ATOM     31  H   UNL     1       4.408  -0.641  -0.045  0.00  0.00    +0.166 HD
ENDBRANCH  18  29
ENDBRANCH  17  20
ENDBRANCH   1  17
TORSDOF 6
