REMARK  Name = ZINC32573465
REMARK  8 active torsions:
REMARK  status: ('A' for Active; 'I' for Inactive)
REMARK    1  A    between atoms: C_1  and  C_2
REMARK    2  A    between atoms: C_6  and  C_8
REMARK    3  A    between atoms: C_13  and  O_14
REMARK    4  A    between atoms: O_14  and  C_15
REMARK    5  A    between atoms: C_15  and  C_16
REMARK    6  A    between atoms: N_19  and  C_21
REMARK    7  A    between atoms: C_21  and  C_23
REMARK    8  A    between atoms: C_21  and  C_24
REMARK                            x       y       z     vdW  Elec       q    Type
REMARK                         _______ _______ _______ _____ _____    ______ ____
ROOT
ATOM      1  C   UNL     1      -0.018   1.503   0.010  0.00  0.00    +0.070 C 
ATOM      2  C   UNL     1       0.002  -0.004   0.002  0.00  0.00    +0.087 A 
ATOM      3  C   UNL     1       0.008  -0.823  -1.148  0.00  0.00    +0.131 A 
ATOM      4  C   UNL     1       0.028  -2.142  -0.710  0.00  0.00    +0.157 A 
ATOM      5  N   UNL     1       0.034  -2.928  -1.836  0.00  0.00    -0.323 N 
ATOM      6  C   UNL     1       0.017  -2.089  -2.920  0.00  0.00    +0.144 A 
ATOM      7  N   UNL     1       0.002  -0.846  -2.506  0.00  0.00    -0.224 NA
ATOM      8  N   UNL     1       0.034  -2.112   0.650  0.00  0.00    -0.243 N 
ATOM      9  N   UNL     1       0.023  -0.772   1.057  0.00  0.00    -0.172 NA
ATOM     10  H   UNL     1       0.048  -3.897  -1.860  0.00  0.00    +0.169 HD
ENDROOT
BRANCH   6  11
ATOM     11  C   UNL     1       0.017  -2.519  -4.334  0.00  0.00    +0.059 A 
ATOM     12  C   UNL     1       0.028  -3.877  -4.654  0.00  0.00    +0.015 A 
ATOM     13  C   UNL     1       0.027  -4.273  -5.975  0.00  0.00    +0.001 A 
ATOM     14  C   UNL     1       0.014  -3.328  -6.986  0.00  0.00    +0.004 A 
ATOM     15  C   UNL     1       0.003  -1.980  -6.682  0.00  0.00    +0.046 A 
ATOM     16  C   UNL     1      -0.002  -1.566  -5.359  0.00  0.00    +0.132 A 
BRANCH  16  17
ATOM     17  O   UNL     1      -0.018  -0.242  -5.059  0.00  0.00    -0.482 OA
BRANCH  17  18
ATOM     18  C   UNL     1      -0.036   0.672  -6.157  0.00  0.00    +0.324 C 
BRANCH  18  19
ATOM     19  C   UNL     1      -0.054   2.085  -5.635  0.00  0.00    +0.248 C 
ATOM     20  O   UNL     1      -0.051   2.290  -4.439  0.00  0.00    -0.272 OA
ATOM     21  N   UNL     1      -0.072   3.122  -6.495  0.00  0.00    -0.327 N 
ATOM     22  H   UNL     1      -0.074   2.959  -7.452  0.00  0.00    +0.145 HD
ATOM     23  H   UNL     1      -0.083   4.032  -6.159  0.00  0.00    +0.145 HD
ENDBRANCH  18  19
ENDBRANCH  17  18
ENDBRANCH  16  17
ENDBRANCH   6  11
BRANCH   8  24
ATOM     24  C   UNL     1       0.054  -3.279   1.536  0.00  0.00    +0.109 C 
ATOM     25  C   UNL     1      -1.191  -3.266   2.424  0.00  0.00    +0.033 C 
BRANCH  24  26
ATOM     26  C   UNL     1       1.307  -3.232   2.413  0.00  0.00    +0.013 C 
ATOM     27  C   UNL     1       2.387  -4.286   2.160  0.00  0.00    +0.006 C 
ATOM     28  C   UNL     1       1.512  -4.371   3.413  0.00  0.00    +0.006 C 
ENDBRANCH  24  26
ENDBRANCH   8  24
TORSDOF 6
