REMARK  Name = ZINC12602932
REMARK  5 active torsions:
REMARK  status: ('A' for Active; 'I' for Inactive)
REMARK    1  A    between atoms: C_1  and  O_2
REMARK    2  A    between atoms: O_2  and  C_3
REMARK    3  A    between atoms: C_3  and  C_5
REMARK    4  A    between atoms: C_21  and  C_33
REMARK    5  A    between atoms: C_24  and  N_27
REMARK                            x       y       z     vdW  Elec       q    Type
REMARK                         _______ _______ _______ _____ _____    ______ ____
ROOT
ATOM      1  C   UNL     1       2.091   5.734  -3.538  0.00  0.00    +0.049 C 
ATOM      2  C   UNL     1       2.120   7.194  -4.012  0.00  0.00    +0.033 C 
ATOM      3  C   UNL     1       1.091   7.965  -3.225  0.00  0.00    -0.022 A 
ATOM      4  C   UNL     1       0.937   9.394  -3.072  0.00  0.00    +0.003 A 
ATOM      5  C   UNL     1       1.651  10.486  -3.576  0.00  0.00    +0.010 A 
ATOM      6  C   UNL     1       1.211  11.736  -3.215  0.00  0.00    +0.001 A 
ATOM      7  C   UNL     1       0.113  11.920  -2.390  0.00  0.00    +0.002 A 
ATOM      8  C   UNL     1      -0.612  10.858  -1.878  0.00  0.00    +0.026 A 
ATOM      9  C   UNL     1      -0.189   9.578  -2.228  0.00  0.00    +0.047 A 
ATOM     10  N   UNL     1      -0.663   8.338  -1.906  0.00  0.00    -0.359 N 
ATOM     11  H   UNL     1      -1.543   8.238  -1.254  0.00  0.00    +0.166 HD
ATOM     12  C   UNL     1       0.107   7.378  -2.504  0.00  0.00    +0.007 A 
ATOM     13  C   UNL     1      -0.060   5.882  -2.415  0.00  0.00    -0.017 C 
ATOM     14  N   UNL     1       0.704   5.258  -3.505  0.00  0.00    +0.399 N 
ATOM     15  C   UNL     1       0.631   3.795  -3.427  0.00  0.00    -0.031 C 
ATOM     16  C   UNL     1      -0.825   3.351  -3.591  0.00  0.00    +0.008 C 
ATOM     17  C   UNL     1      -1.680   3.989  -2.494  0.00  0.00    +0.054 C 
ATOM     18  C   UNL     1      -1.538   5.513  -2.559  0.00  0.00    +0.009 C 
ATOM     19  H   UNL     1       0.243   5.562  -4.456  0.00  0.00    -0.079 HD
ENDROOT
BRANCH  15  20
ATOM     20  C   UNL     1       1.469   3.189  -4.524  0.00  0.00    -0.026 A 
ATOM     21  C   UNL     1       2.327   2.143  -4.241  0.00  0.00    +0.005 A 
ATOM     22  C   UNL     1       3.091   1.584  -5.248  0.00  0.00    +0.000 A 
ATOM     23  C   UNL     1       3.006   2.077  -6.537  0.00  0.00    +0.003 A 
ATOM     24  C   UNL     1       2.154   3.126  -6.821  0.00  0.00    +0.038 A 
ATOM     25  C   UNL     1       1.383   3.684  -5.814  0.00  0.00    +0.125 A 
ATOM     26  F   UNL     1       0.549   4.710  -6.090  0.00  0.00    -0.205 F 
ENDBRANCH  15  20
BRANCH  17  27
ATOM     27  N   UNL     1      -1.228   3.510  -1.180  0.00  0.00    -0.299 NA
ATOM     28  C   UNL     1      -1.349   2.050  -1.082  0.00  0.00    +0.084 C 
ATOM     29  C   UNL     1      -0.737   1.574   0.237  0.00  0.00    +0.015 C 
ATOM     30  C   UNL     1      -1.465   2.245   1.405  0.00  0.00    +0.002 C 
ATOM     31  C   UNL     1      -1.365   3.766   1.252  0.00  0.00    +0.015 C 
ATOM     32  C   UNL     1      -1.960   4.178  -0.097  0.00  0.00    +0.084 C 
ENDBRANCH  17  27
BRANCH   1  33
ATOM     33  C   UNL     1       2.686   5.643  -2.156  0.00  0.00    +0.294 C 
ATOM     34  O   UNL     1       2.101   5.045  -1.284  0.00  0.00    -0.253 OA
BRANCH  33  36
ATOM     35  C   UNL     1       4.380   6.096  -0.542  0.00  0.00    +0.280 C 
ATOM     36  O   UNL     1       3.867   6.225  -1.894  0.00  0.00    -0.469 OA
ENDBRANCH  33  36
ENDBRANCH   1  33
TORSDOF 4
