REMARK  Name = ZINC39935738
REMARK  8 active torsions:
REMARK  status: ('A' for Active; 'I' for Inactive)
REMARK    1  A    between atoms: C_1  and  C_2
REMARK    2  A    between atoms: C_2  and  N_3
REMARK    3  A    between atoms: C_4  and  C_24
REMARK    4  A    between atoms: C_8  and  S_10
REMARK    5  A    between atoms: S_10  and  C_11
REMARK    6  A    between atoms: C_11  and  C_12
REMARK    7  A    between atoms: C_27  and  O_30
REMARK    8  A    between atoms: O_30  and  C_31
REMARK                            x       y       z     vdW  Elec       q    Type
REMARK                         _______ _______ _______ _____ _____    ______ ____
ROOT
ATOM      1  N   UNL     1       0.301  -0.591  -1.251  0.00  0.00    +0.410 N 
ATOM      2  C   UNL     1       0.895  -1.943  -1.134  0.00  0.00    +0.049 C 
ATOM      3  N   UNL     1       0.021  -2.800  -1.978  0.00  0.00    -0.267 NA
ATOM      4  N   UNL     1      -0.302  -1.925  -3.116  0.00  0.00    -0.262 NA
ATOM      5  C   UNL     1      -0.463  -0.581  -2.515  0.00  0.00    +0.077 C 
ATOM      6  H   UNL     1       0.513  -3.625  -2.285  0.00  0.00    +0.139 HD
ATOM      7  H   UNL     1      -1.153  -2.222  -3.570  0.00  0.00    +0.140 HD
ATOM      8  H   UNL     1       1.030   0.106  -1.281  0.00  0.00    -0.075 HD
ENDROOT
BRANCH   2   9
ATOM      9  C   UNL     1       0.868  -2.409   0.299  0.00  0.00    -0.046 A 
ATOM     10  C   UNL     1      -0.306  -2.894   0.846  0.00  0.00    +0.007 A 
ATOM     11  C   UNL     1      -0.333  -3.321   2.159  0.00  0.00    +0.046 A 
ATOM     12  C   UNL     1       0.819  -3.263   2.930  0.00  0.00    +0.120 A 
ATOM     13  C   UNL     1       1.995  -2.775   2.380  0.00  0.00    +0.046 A 
ATOM     14  C   UNL     1       2.019  -2.355   1.064  0.00  0.00    +0.007 A 
BRANCH  12  15
ATOM     15  O   UNL     1       0.794  -3.681   4.223  0.00  0.00    -0.495 OA
ATOM     16  C   UNL     1       2.017  -3.592   4.957  0.00  0.00    +0.277 C 
ENDBRANCH  12  15
ENDBRANCH   2   9
BRANCH   1  18
ATOM     17  C   UNL     1      -1.153   1.087  -0.217  0.00  0.00    -0.017 C 
ATOM     18  C   UNL     1      -0.597  -0.335  -0.117  0.00  0.00    -0.076 C 
ENDBRANCH   1  18
BRANCH   5  19
ATOM     19  S   UNL     1       0.201   0.684  -3.633  0.00  0.00    -0.152 S 
BRANCH  19  20
ATOM     20  C   UNL     1       1.925   0.181  -3.889  0.00  0.00    +0.143 C 
BRANCH  20  21
ATOM     21  C   UNL     1       2.602   1.161  -4.813  0.00  0.00    +0.120 A 
ATOM     22  N   UNL     1       3.906   0.951  -5.132  0.00  0.00    -0.310 N 
ATOM     23  H   UNL     1       4.372   0.184  -4.765  0.00  0.00    +0.170 HD
ATOM     24  C   UNL     1       4.559   1.801  -5.957  0.00  0.00    +0.259 A 
ATOM     25  O   UNL     1       5.726   1.625  -6.252  0.00  0.00    -0.267 OA
ATOM     26  C   UNL     1       3.803   2.947  -6.484  0.00  0.00    +0.065 A 
ATOM     27  C   UNL     1       4.382   3.881  -7.341  0.00  0.00    +0.015 A 
ATOM     28  C   UNL     1       3.627   4.936  -7.805  0.00  0.00    +0.001 A 
ATOM     29  C   UNL     1       2.298   5.074  -7.426  0.00  0.00    +0.002 A 
ATOM     30  C   UNL     1       1.708   4.163  -6.580  0.00  0.00    +0.028 A 
ATOM     31  C   UNL     1       2.451   3.085  -6.097  0.00  0.00    +0.078 A 
ATOM     32  N   UNL     1       1.908   2.160  -5.266  0.00  0.00    -0.233 NA
ENDBRANCH  20  21
ENDBRANCH  19  20
ENDBRANCH   5  19
TORSDOF 6
