REMARK  Name = ZINC55090585
REMARK  6 active torsions:
REMARK  status: ('A' for Active; 'I' for Inactive)
REMARK    1  A    between atoms: C_1  and  C_2
REMARK    2  A    between atoms: C_2  and  C_3
REMARK    3  A    between atoms: C_2  and  C_4
REMARK    4  A    between atoms: C_2  and  N_5
REMARK    5  A    between atoms: C_11  and  C_13
REMARK    6  A    between atoms: C_19  and  N_21
REMARK                            x       y       z     vdW  Elec       q    Type
REMARK                         _______ _______ _______ _____ _____    ______ ____
ROOT
ATOM      1  N   UNL     1       1.381  -1.388   0.055  0.00  0.00    -0.295 NA
ATOM      2  C   UNL     1       1.127  -2.671  -0.614  0.00  0.00    +0.104 C 
ATOM      3  C   UNL     1       1.376  -2.517  -2.118  0.00  0.00    +0.123 C 
ATOM      4  N   UNL     1       2.727  -1.970  -2.314  0.00  0.00    -0.299 N 
ATOM      5  C   UNL     1       3.103  -0.758  -1.569  0.00  0.00    +0.123 C 
ATOM      6  C   UNL     1       2.785  -0.982  -0.086  0.00  0.00    +0.104 C 
ATOM      7  C   UNL     1       3.598  -2.562  -3.155  0.00  0.00    +0.217 C 
ATOM      8  O   UNL     1       3.305  -3.609  -3.693  0.00  0.00    -0.275 OA
ENDROOT
BRANCH   7   9
ATOM      9  C   UNL     1       4.936  -1.923  -3.427  0.00  0.00    +0.061 C 
ATOM     10  C   UNL     1       4.779  -0.852  -4.508  0.00  0.00    +0.011 C 
ATOM     11  C   UNL     1       6.138  -0.203  -4.784  0.00  0.00    +0.001 C 
ATOM     12  C   UNL     1       7.124  -1.270  -5.263  0.00  0.00    -0.002 C 
ATOM     13  C   UNL     1       7.281  -2.342  -4.182  0.00  0.00    -0.016 C 
ATOM     14  C   UNL     1       5.923  -2.990  -3.906  0.00  0.00    -0.063 C 
BRANCH  14  15
ATOM     15  N   UNL     1       6.073  -4.019  -2.868  0.00  0.00    +0.380 N 
ATOM     16  H   UNL     1       5.177  -4.447  -2.686  0.00  0.00    -0.090 HD
ATOM     17  H   UNL     1       6.723  -4.723  -3.184  0.00  0.00    -0.090 HD
ATOM     18  H   UNL     1       6.421  -3.595  -2.022  0.00  0.00    -0.090 HD
ENDBRANCH  14  15
ENDBRANCH   7   9
BRANCH   1  20
ATOM     19  C   UNL     1       1.167  -0.065   2.104  0.00  0.00    +0.027 C 
ATOM     20  C   UNL     1       0.989  -1.445   1.470  0.00  0.00    +0.014 C 
ATOM     21  C   UNL     1       1.869  -2.460   2.202  0.00  0.00    +0.027 C 
ATOM     22  C   UNL     1      -0.477  -1.871   1.576  0.00  0.00    +0.027 C 
ENDBRANCH   1  20
TORSDOF 3
