REMARK  Name = ZINC03344718
REMARK  10 active torsions:
REMARK  status: ('A' for Active; 'I' for Inactive)
REMARK    1  A    between atoms: C_1  and  C_2
REMARK    2  A    between atoms: C_2  and  O_3
REMARK    3  A    between atoms: O_3  and  C_4
REMARK    4  A    between atoms: C_4  and  C_6
REMARK    5  A    between atoms: C_7  and  C_30
REMARK    6  A    between atoms: C_8  and  C_27
REMARK    7  A    between atoms: C_10  and  N_11
REMARK    8  A    between atoms: C_12  and  C_14
REMARK    9  A    between atoms: C_14  and  N_55
REMARK   10  A    between atoms: C_20  and  C_22
REMARK                            x       y       z     vdW  Elec       q    Type
REMARK                         _______ _______ _______ _____ _____    ______ ____
ROOT
ATOM      1  N   UNL     1      -1.323  -2.127   2.599  0.00  0.00    -0.281 N 
ATOM      2  C   UNL     1      -1.330  -3.031   3.598  0.00  0.00    +0.201 C 
ATOM      3  O   UNL     1      -1.400  -4.215   3.345  0.00  0.00    -0.278 OA
ATOM      4  H   UNL     1      -1.267  -1.180   2.802  0.00  0.00    +0.155 HD
ENDROOT
BRANCH   1   9
ATOM      5  C   UNL     1      -1.402  -1.774   0.120  0.00  0.00    +0.091 A 
ATOM      6  C   UNL     1      -1.478  -2.438  -1.095  0.00  0.00    -0.015 A 
ATOM      7  C   UNL     1      -1.546  -3.805  -1.070  0.00  0.00    +0.079 A 
ATOM      8  S   UNL     1      -1.505  -4.167   0.675  0.00  0.00    -0.068 S 
ATOM      9  C   UNL     1      -1.396  -2.549   1.286  0.00  0.00    +0.087 A 
ATOM     10  C   UNL     1      -1.484  -1.681  -2.398  0.00  0.00    +0.046 C 
BRANCH   7  11
ATOM     11  C   UNL     1      -1.632  -4.737  -2.196  0.00  0.00    +0.248 C 
ATOM     12  O   UNL     1      -1.649  -4.313  -3.337  0.00  0.00    -0.270 OA
ATOM     13  N   UNL     1      -1.692  -6.064  -1.968  0.00  0.00    -0.325 N 
ATOM     14  H   UNL     1      -1.678  -6.402  -1.059  0.00  0.00    +0.145 HD
ATOM     15  H   UNL     1      -1.748  -6.682  -2.714  0.00  0.00    +0.145 HD
ENDBRANCH   7  11
BRANCH   5  16
ATOM     16  C   UNL     1      -1.326  -0.311   0.182  0.00  0.00    +0.342 C 
ATOM     17  O   UNL     1      -2.345   0.349   0.243  0.00  0.00    -0.245 OA
BRANCH  16  18
ATOM     18  O   UNL     1      -0.125   0.303   0.170  0.00  0.00    -0.461 OA
BRANCH  18  20
ATOM     19  C   UNL     1       1.317   2.265   0.209  0.00  0.00    +0.048 C 
ATOM     20  C   UNL     1      -0.125   1.754   0.233  0.00  0.00    +0.229 C 
ENDBRANCH  18  20
ENDBRANCH  16  18
ENDBRANCH   5  16
ENDBRANCH   1   9
BRANCH   2  21
ATOM     21  C   UNL     1      -1.250  -2.571   5.031  0.00  0.00    +0.019 C 
BRANCH  21  29
ATOM     22  C   UNL     1      -2.566  -4.435   5.843  0.00  0.00    -0.059 C 
ATOM     23  C   UNL     1      -2.488  -5.740   6.642  0.00  0.00    +0.089 C 
ATOM     24  N   UNL     1      -2.034  -5.426   8.005  0.00  0.00    -0.299 N 
ATOM     25  C   UNL     1      -0.820  -4.613   8.164  0.00  0.00    +0.089 C 
ATOM     26  C   UNL     1      -0.962  -3.352   7.305  0.00  0.00    -0.059 C 
ATOM     27  C   UNL     1      -2.713  -5.873   9.081  0.00  0.00    +0.282 C 
ATOM     28  O   UNL     1      -2.286  -5.663  10.200  0.00  0.00    -0.267 OA
ATOM     29  N   UNL     1      -1.253  -3.757   5.912  0.00  0.00    +0.387 N 
ATOM     30  H   UNL     1      -0.525  -4.409   5.596  0.00  0.00    -0.081 HD
BRANCH  27  31
ATOM     31  C   UNL     1      -3.967  -6.612   8.901  0.00  0.00    +0.189 A 
ATOM     32  C   UNL     1      -4.817  -7.004   9.895  0.00  0.00    +0.054 A 
ATOM     33  C   UNL     1      -5.881  -7.676   9.274  0.00  0.00    +0.042 A 
ATOM     34  C   UNL     1      -5.638  -7.666   7.945  0.00  0.00    +0.196 A 
ATOM     35  O   UNL     1      -4.486  -7.019   7.724  0.00  0.00    -0.458 OA
ENDBRANCH  27  31
ENDBRANCH  21  29
ENDBRANCH   2  21
TORSDOF 8
