REMARK  Name = ZINC62777002
REMARK  6 active torsions:
REMARK  status: ('A' for Active; 'I' for Inactive)
REMARK    1  A    between atoms: C_1  and  C_2
REMARK    2  A    between atoms: C_2  and  C_3
REMARK    3  A    between atoms: C_3  and  N_4
REMARK    4  A    between atoms: N_4  and  C_5
REMARK    5  A    between atoms: C_5  and  C_7
REMARK    6  A    between atoms: C_5  and  C_13
REMARK                            x       y       z     vdW  Elec       q    Type
REMARK                         _______ _______ _______ _____ _____    ______ ____
ROOT
ATOM      1  C   UNL     1       1.472  -2.466   2.424  0.00  0.00    +0.012 C 
ENDROOT
BRANCH   1   2
ATOM      2  C   UNL     1       1.387  -3.970   2.480  0.00  0.00    -0.033 A 
ATOM      3  C   UNL     1       1.202  -4.706   1.324  0.00  0.00    +0.026 A 
ATOM      4  C   UNL     1       1.130  -6.058   1.410  0.00  0.00    +0.056 A 
ATOM      5  S   UNL     1       1.325  -6.327   3.164  0.00  0.00    -0.074 S 
ATOM      6  C   UNL     1       1.496  -4.622   3.664  0.00  0.00    +0.058 A 
ATOM      7 BR   UNL     1       1.759  -3.909   5.396  0.00  0.00    -0.042 Br
ATOM      8 BR   UNL     1       0.884  -7.327   0.030  0.00  0.00    -0.043 Br
ENDBRANCH   1   2
BRANCH   1   9
ATOM      9  C   UNL     1       2.918  -2.048   2.352  0.00  0.00    +0.053 A 
ATOM     10  C   UNL     1       3.779  -1.880   3.442  0.00  0.00    +0.042 A 
ATOM     11  C   UNL     1       4.987  -1.501   2.964  0.00  0.00    +0.105 A 
ATOM     12  N   UNL     1       4.894  -1.431   1.619  0.00  0.00    -0.285 N 
ATOM     13  N   UNL     1       3.587  -1.783   1.259  0.00  0.00    -0.180 NA
ATOM     14  H   UNL     1       5.607  -1.183   1.010  0.00  0.00    +0.188 HD
ENDBRANCH   1   9
BRANCH   1  15
ATOM     15  N   UNL     1       0.762  -1.980   1.234  0.00  0.00    +0.387 N 
ATOM     16  H   UNL     1      -0.185  -2.329   1.241  0.00  0.00    -0.084 HD
ATOM     17  H   UNL     1       1.234  -2.305   0.403  0.00  0.00    -0.084 HD
BRANCH  15  18
ATOM     18  C   UNL     1       0.742  -0.511   1.242  0.00  0.00    -0.081 C 
BRANCH  18  20
ATOM     19  C   UNL     1      -0.019   1.526   0.010  0.00  0.00    +0.002 C 
ATOM     20  C   UNL     1       0.002  -0.004   0.002  0.00  0.00    -0.022 C 
ENDBRANCH  18  20
ENDBRANCH  15  18
ENDBRANCH   1  15
TORSDOF 5
