REMARK  Name = ZINC39630582
REMARK  14 active torsions:
REMARK  status: ('A' for Active; 'I' for Inactive)
REMARK    1  A    between atoms: C_1  and  C_2
REMARK    2  A    between atoms: C_2  and  C_3
REMARK    3  A    between atoms: C_2  and  C_4
REMARK    4  A    between atoms: C_2  and  C_31
REMARK    5  A    between atoms: C_4  and  N_5
REMARK    6  A    between atoms: C_6  and  C_8
REMARK    7  A    between atoms: C_19  and  C_21
REMARK    8  A    between atoms: C_23  and  O_29
REMARK    9  A    between atoms: C_25  and  O_27
REMARK   10  A    between atoms: O_27  and  C_28
REMARK   11  A    between atoms: O_29  and  C_30
REMARK   12  A    between atoms: C_31  and  N_32
REMARK   13  A    between atoms: N_32  and  C_33
REMARK   14  A    between atoms: N_32  and  C_34
REMARK                            x       y       z     vdW  Elec       q    Type
REMARK                         _______ _______ _______ _____ _____    ______ ____
ROOT
ATOM      1  C   UNL     1      -2.740   0.128   4.424  0.00  0.00    +0.100 C 
ATOM      2  C   UNL     1      -2.678   1.663   4.258  0.00  0.00    +0.121 C 
ATOM      3  N   UNL     1      -4.090   2.080   4.095  0.00  0.00    -0.296 N 
ATOM      4  C   UNL     1      -4.840   1.224   5.045  0.00  0.00    +0.115 C 
ATOM      5  C   UNL     1      -4.160  -0.155   4.944  0.00  0.00    -0.004 C 
ATOM      6  C   UNL     1      -4.097  -0.816   6.318  0.00  0.00    -0.010 C 
ATOM      7  C   UNL     1      -5.518  -1.141   6.788  0.00  0.00    -0.082 C 
ATOM      8  N   UNL     1      -6.162  -2.038   5.821  0.00  0.00    +0.379 N 
ATOM      9  C   UNL     1      -6.302  -1.360   4.526  0.00  0.00    -0.082 C 
ATOM     10  C   UNL     1      -4.915  -1.044   3.960  0.00  0.00    -0.010 C 
ATOM     11  C   UNL     1      -4.582   3.024   3.268  0.00  0.00    +0.247 C 
ATOM     12  O   UNL     1      -3.851   3.571   2.466  0.00  0.00    -0.270 OA
ATOM     13  H   UNL     1      -5.598  -2.867   5.706  0.00  0.00    -0.086 HD
ATOM     14  H   UNL     1      -7.074  -2.299   6.163  0.00  0.00    -0.086 HD
ENDROOT
BRANCH  11  15
ATOM     15  C   UNL     1      -6.012   3.396   3.338  0.00  0.00    +0.044 A 
ATOM     16  C   UNL     1      -6.749   3.128   4.492  0.00  0.00    +0.059 A 
ATOM     17  C   UNL     1      -8.088   3.478   4.553  0.00  0.00    +0.124 A 
ATOM     18  C   UNL     1      -8.696   4.093   3.468  0.00  0.00    +0.091 A 
ATOM     19  C   UNL     1      -7.967   4.361   2.319  0.00  0.00    +0.124 A 
ATOM     20  C   UNL     1      -6.626   4.020   2.252  0.00  0.00    +0.059 A 
BRANCH  19  21
ATOM     21  O   UNL     1      -8.568   4.964   1.260  0.00  0.00    -0.495 OA
ATOM     22  C   UNL     1      -9.951   5.293   1.399  0.00  0.00    +0.277 C 
ENDBRANCH  19  21
BRANCH  17  23
ATOM     23  O   UNL     1      -8.806   3.217   5.676  0.00  0.00    -0.495 OA
ATOM     24  C   UNL     1     -10.182   3.605   5.671  0.00  0.00    +0.277 C 
ENDBRANCH  17  23
ENDBRANCH  11  15
BRANCH   1  26
ATOM     25  N   UNL     1      -1.971  -1.781   3.052  0.00  0.00    -0.315 N 
ATOM     26  C   UNL     1      -2.522  -0.552   3.097  0.00  0.00    +0.218 C 
ATOM     27  O   UNL     1      -2.842   0.007   2.069  0.00  0.00    -0.275 OA
ATOM     28  H   UNL     1      -1.714  -2.228   3.874  0.00  0.00    +0.149 HD
BRANCH  25  29
ATOM     29  C   UNL     1      -1.758  -2.442   1.762  0.00  0.00    +0.108 C 
BRANCH  29  31
ATOM     30  C   UNL     1       0.219  -3.644   2.704  0.00  0.00    +0.010 C 
ATOM     31  C   UNL     1      -1.124  -3.815   1.991  0.00  0.00    -0.034 C 
ATOM     32  C   UNL     1      -2.054  -4.669   2.855  0.00  0.00    +0.010 C 
BRANCH  31  33
ATOM     33  C   UNL     1      -0.902  -4.505   0.644  0.00  0.00    -0.072 C 
BRANCH  33  34
ATOM     34  N   UNL     1      -0.287  -5.821   0.864  0.00  0.00    +0.376 N 
ATOM     35  C   UNL     1      -1.337  -6.817   1.117  0.00  0.00    -0.097 C 
ATOM     36  C   UNL     1       0.478  -6.209  -0.329  0.00  0.00    -0.097 C 
ATOM     37  H   UNL     1       0.332  -5.775   1.659  0.00  0.00    -0.083 HD
ENDBRANCH  33  34
ENDBRANCH  31  33
ENDBRANCH  29  31
ENDBRANCH  25  29
ENDBRANCH   1  26
TORSDOF 8
