REMARK  Name = ZINC09874667
REMARK  7 active torsions:
REMARK  status: ('A' for Active; 'I' for Inactive)
REMARK    1  A    between atoms: C_1  and  O_2
REMARK    2  A    between atoms: O_2  and  C_3
REMARK    3  A    between atoms: C_5  and  N_11
REMARK    4  A    between atoms: C_7  and  O_9
REMARK    5  A    between atoms: O_9  and  C_10
REMARK    6  A    between atoms: C_17  and  C_20
REMARK    7  A    between atoms: C_17  and  N_58
REMARK                            x       y       z     vdW  Elec       q    Type
REMARK                         _______ _______ _______ _____ _____    ______ ____
ROOT
ATOM      1  N   UNL     1      -2.179   0.694  -2.772  0.00  0.00    -0.269 N 
ATOM      2  C   UNL     1      -1.665   0.346  -1.575  0.00  0.00    +0.306 C 
ATOM      3  O   UNL     1      -1.657  -0.820  -1.233  0.00  0.00    -0.252 OA
ATOM      4  N   UNL     1      -1.161   1.292  -0.758  0.00  0.00    -0.285 N 
ATOM      5  C   UNL     1      -0.686   0.943   0.588  0.00  0.00    +0.108 C 
ATOM      6  C   UNL     1      -1.383   1.847   1.610  0.00  0.00    +0.016 C 
ATOM      7  C   UNL     1      -1.163   3.311   1.223  0.00  0.00    +0.015 C 
ATOM      8  C   UNL     1      -1.772   3.576  -0.155  0.00  0.00    +0.016 C 
ATOM      9  C   UNL     1      -1.077   2.692  -1.195  0.00  0.00    +0.108 C 
ATOM     10  H   UNL     1      -2.125   1.614  -3.074  0.00  0.00    +0.156 HD
ENDROOT
BRANCH   7  16
ATOM     11  C   UNL     1      -1.646   5.596   1.858  0.00  0.00    -0.077 C 
ATOM     12  C   UNL     1      -2.447   6.464   2.832  0.00  0.00    -0.019 C 
ATOM     13  C   UNL     1      -1.944   6.221   4.258  0.00  0.00    -0.004 C 
ATOM     14  C   UNL     1      -2.074   4.731   4.589  0.00  0.00    -0.019 C 
ATOM     15  C   UNL     1      -1.284   3.914   3.565  0.00  0.00    -0.077 C 
ATOM     16  N   UNL     1      -1.834   4.175   2.217  0.00  0.00    +0.389 N 
ATOM     17  H   UNL     1      -2.838   3.962   2.220  0.00  0.00    -0.080 HD
ENDBRANCH   7  16
BRANCH   1  20
ATOM     18  C   UNL     1      -4.507  -0.899  -5.138  0.00  0.00    +0.125 A 
ATOM     19  C   UNL     1      -3.902   0.060  -4.339  0.00  0.00    +0.069 A 
ATOM     20  C   UNL     1      -2.790  -0.273  -3.578  0.00  0.00    +0.042 A 
ATOM     21  C   UNL     1      -2.280  -1.563  -3.622  0.00  0.00    +0.069 A 
ATOM     22  C   UNL     1      -2.890  -2.522  -4.417  0.00  0.00    +0.125 A 
ATOM     23  C   UNL     1      -4.001  -2.189  -5.177  0.00  0.00    +0.091 A 
BRANCH  18  25
ATOM     24  C   UNL     1      -6.168  -1.610  -6.683  0.00  0.00    +0.277 C 
ATOM     25  O   UNL     1      -5.596  -0.573  -5.883  0.00  0.00    -0.495 OA
ENDBRANCH  18  25
BRANCH  22  26
ATOM     26  O   UNL     1      -2.394  -3.787  -4.455  0.00  0.00    -0.495 OA
ATOM     27  C   UNL     1      -3.068  -4.722  -5.300  0.00  0.00    +0.277 C 
ENDBRANCH  22  26
ENDBRANCH   1  20
BRANCH   7  28
ATOM     28  C   UNL     1       0.316   3.600   1.183  0.00  0.00    +0.200 C 
ATOM     29  O   UNL     1       1.097   2.834   1.705  0.00  0.00    -0.278 OA
ATOM     30  N   UNL     1       0.769   4.709   0.566  0.00  0.00    -0.330 N 
ATOM     31  H   UNL     1       0.141   5.357   0.210  0.00  0.00    +0.145 HD
ATOM     32  H   UNL     1       1.723   4.859   0.477  0.00  0.00    +0.145 HD
ENDBRANCH   7  28
TORSDOF 5
