REMARK  Name = ZINC19971299
REMARK  5 active torsions:
REMARK  status: ('A' for Active; 'I' for Inactive)
REMARK    1  A    between atoms: C_1  and  C_2
REMARK    2  A    between atoms: C_4  and  C_11
REMARK    3  A    between atoms: C_6  and  N_8
REMARK    4  A    between atoms: C_11  and  C_13
REMARK    5  A    between atoms: C_11  and  N_20
REMARK                            x       y       z     vdW  Elec       q    Type
REMARK                         _______ _______ _______ _____ _____    ______ ____
ROOT
ATOM      1  C   UNL     1      -1.293  -0.775   0.011  0.00  0.00    -0.012 C 
ENDROOT
BRANCH   1   5
ATOM      2  C   UNL     1       1.151   3.592   0.010  0.00  0.00    +0.044 C 
ATOM      3  C   UNL     1       1.171   2.085   0.002  0.00  0.00    -0.048 A 
ATOM      4  C   UNL     1      -0.017   1.378   0.010  0.00  0.00    +0.005 A 
ATOM      5  C   UNL     1       0.002  -0.004   0.002  0.00  0.00    -0.055 A 
ATOM      6  C   UNL     1       1.209  -0.679  -0.013  0.00  0.00    +0.035 A 
ATOM      7  C   UNL     1       2.396   0.028  -0.021  0.00  0.00    +0.127 A 
ATOM      8  C   UNL     1       2.377   1.411  -0.015  0.00  0.00    +0.036 A 
BRANCH   7   9
ATOM      9  N   UNL     1       3.688  -0.694  -0.036  0.00  0.00    +0.056 N 
ATOM     10  O   UNL     1       3.704  -1.912  -0.042  0.00  0.00    -0.126 OA
ATOM     11  O   UNL     1       4.734  -0.071  -0.044  0.00  0.00    -0.126 OA
ENDBRANCH   7   9
ENDBRANCH   1   5
BRANCH   1  12
ATOM     12  C   UNL     1      -1.584  -1.252   1.411  0.00  0.00    -0.045 A 
ATOM     13  C   UNL     1      -1.207  -2.523   1.800  0.00  0.00    +0.003 A 
ATOM     14  C   UNL     1      -1.474  -2.960   3.084  0.00  0.00    +0.000 A 
ATOM     15  C   UNL     1      -2.118  -2.126   3.979  0.00  0.00    +0.001 A 
ATOM     16  C   UNL     1      -2.495  -0.855   3.590  0.00  0.00    +0.014 A 
ATOM     17  C   UNL     1      -2.224  -0.415   2.307  0.00  0.00    +0.015 A 
ATOM     18  I   UNL     1      -2.788   1.515   1.718  0.00  0.00    -0.044 I 
ENDBRANCH   1  12
BRANCH   1  19
ATOM     19  N   UNL     1      -1.179  -1.933  -0.887  0.00  0.00    +0.385 N 
ATOM     20  H   UNL     1      -2.124  -2.495  -0.880  0.00  0.00    -0.089 HD
ATOM     21  H   UNL     1      -0.362  -2.584  -0.544  0.00  0.00    -0.089 HD
ATOM     22  H   UNL     1      -0.967  -1.585  -1.909  0.00  0.00    -0.089 HD
ENDBRANCH   1  19
TORSDOF 4
