REMARK  Name = ZINC63818157
REMARK  7 active torsions:
REMARK  status: ('A' for Active; 'I' for Inactive)
REMARK    1  A    between atoms: C_1  and  O_2
REMARK    2  A    between atoms: O_2  and  C_3
REMARK    3  A    between atoms: C_6  and  C_9
REMARK    4  A    between atoms: C_11  and  C_16
REMARK    5  A    between atoms: N_18  and  C_19
REMARK    6  A    between atoms: C_19  and  C_20
REMARK    7  A    between atoms: C_20  and  C_21
REMARK                            x       y       z     vdW  Elec       q    Type
REMARK                         _______ _______ _______ _____ _____    ______ ____
ROOT
ATOM      1  C   UNL     1       1.711  -2.248   6.650  0.00  0.00    +0.229 C 
ATOM      2  O   UNL     1       2.818  -1.892   6.992  0.00  0.00    -0.274 OA
ATOM      3  N   UNL     1       0.647  -1.987   7.436  0.00  0.00    -0.314 N 
ATOM      4  H   UNL     1      -0.239  -2.272   7.162  0.00  0.00    +0.149 HD
ENDROOT
BRANCH   1   6
ATOM      5  C   UNL     1       2.587  -2.550   4.310  0.00  0.00    +0.123 C 
ATOM      6  C   UNL     1       1.524  -2.981   5.347  0.00  0.00    +0.171 C 
ATOM      7  S   UNL     1       1.904  -4.775   5.536  0.00  0.00    -0.051 S 
ATOM      8  N   UNL     1       3.544  -4.747   4.800  0.00  0.00    -0.199 NA
ATOM      9  N   UNL     1       3.360  -3.684   3.796  0.00  0.00    -0.238 NA
ATOM     10  H   UNL     1       4.242  -4.487   5.481  0.00  0.00    +0.154 HD
ATOM     11  H   UNL     1       4.249  -3.379   3.429  0.00  0.00    +0.142 HD
BRANCH   5  15
ATOM     12  C   UNL     1       0.626  -0.618   1.042  0.00  0.00    +0.120 A 
ATOM     13  C   UNL     1       1.202   0.138   2.051  0.00  0.00    +0.046 A 
ATOM     14  C   UNL     1       1.835  -0.488   3.107  0.00  0.00    +0.009 A 
ATOM     15  C   UNL     1       1.895  -1.869   3.158  0.00  0.00    -0.027 A 
ATOM     16  C   UNL     1       1.322  -2.625   2.152  0.00  0.00    +0.009 A 
ATOM     17  C   UNL     1       0.682  -2.003   1.098  0.00  0.00    +0.046 A 
BRANCH  12  19
ATOM     18  C   UNL     1      -0.017   1.425   0.010  0.00  0.00    +0.277 C 
ATOM     19  O   UNL     1       0.002  -0.004   0.002  0.00  0.00    -0.495 OA
ENDBRANCH  12  19
ENDBRANCH   5  15
ENDBRANCH   1   6
BRANCH   3  20
ATOM     20  C   UNL     1       0.828  -1.274   8.702  0.00  0.00    +0.108 C 
BRANCH  20  21
ATOM     21  C   UNL     1      -0.527  -1.109   9.394  0.00  0.00    +0.052 C 
BRANCH  21  22
ATOM     22  C   UNL     1      -0.340  -0.376  10.697  0.00  0.00    -0.040 C 
ATOM     23  C   UNL     1      -0.482   0.952  10.910  0.00  0.00    +0.000 A 
ATOM     24  C   UNL     1      -0.838   2.069  10.026  0.00  0.00    +0.030 A 
ATOM     25  C   UNL     1      -0.901   3.319  10.540  0.00  0.00    +0.042 A 
ATOM     26  C   UNL     1      -0.634   3.574  11.893  0.00  0.00    +0.022 A 
ATOM     27  C   UNL     1      -0.300   2.600  12.766  0.00  0.00    +0.027 A 
ATOM     28  C   UNL     1      -0.205   1.248  12.334  0.00  0.00    +0.043 A 
ATOM     29  N   UNL     1       0.096   0.145  12.976  0.00  0.00    -0.380 N 
ATOM     30  C   UNL     1       0.038  -0.976  12.032  0.00  0.00    +0.144 C 
ATOM     31 CL   UNL     1      -1.322   4.642   9.498  0.00  0.00    -0.084 Cl
ATOM     32  H   UNL     1       0.316   0.082  13.919  0.00  0.00    +0.160 HD
ENDBRANCH  21  22
ENDBRANCH  20  21
ENDBRANCH   3  20
TORSDOF 6
