REMARK  Name = ZINC36128576
REMARK  11 active torsions:
REMARK  status: ('A' for Active; 'I' for Inactive)
REMARK    1  A    between atoms: C_1  and  N_2
REMARK    2  A    between atoms: N_2  and  C_3
REMARK    3  A    between atoms: C_4  and  C_6
REMARK    4  A    between atoms: N_11  and  C_12
REMARK    5  A    between atoms: C_12  and  C_13
REMARK    6  A    between atoms: C_13  and  C_14
REMARK    7  A    between atoms: N_16  and  C_17
REMARK    8  A    between atoms: N_16  and  C_18
REMARK    9  A    between atoms: C_18  and  C_19
REMARK   10  A    between atoms: C_19  and  C_20
REMARK   11  A    between atoms: C_20  and  N_21
REMARK                            x       y       z     vdW  Elec       q    Type
REMARK                         _______ _______ _______ _____ _____    ______ ____
ROOT
ATOM      1  C   UNL     1      -1.279  -2.781  -3.045  0.00  0.00    -0.069 C 
ENDROOT
BRANCH   1   6
ATOM      2  C   UNL     1      -0.119  -2.186  -1.003  0.00  0.00    +0.019 C 
ATOM      3  C   UNL     1       1.083  -2.773  -0.220  0.00  0.00    -0.008 C 
ATOM      4  C   UNL     1       1.163  -4.224  -0.747  0.00  0.00    -0.020 C 
ATOM      5  C   UNL     1       0.448  -4.197  -2.111  0.00  0.00    -0.078 C 
ATOM      6  N   UNL     1       0.014  -2.802  -2.348  0.00  0.00    +0.388 N 
ATOM      7  H   UNL     1       0.710  -2.310  -2.889  0.00  0.00    -0.081 HD
BRANCH   2  11
ATOM      8  C   UNL     1      -0.603   1.545  -0.308  0.00  0.00    +0.131 C 
ATOM      9  N   UNL     1      -0.608   0.088  -0.161  0.00  0.00    -0.309 N 
ATOM     10  C   UNL     1      -1.258  -0.529   0.998  0.00  0.00    +0.131 C 
ATOM     11  C   UNL     1      -0.014  -0.686  -1.092  0.00  0.00    +0.202 C 
ATOM     12  O   UNL     1       0.605  -0.174  -2.001  0.00  0.00    -0.277 OA
ENDBRANCH   2  11
ENDBRANCH   1   6
BRANCH   1  13
ATOM     13  C   UNL     1      -1.099  -3.303  -4.471  0.00  0.00    +0.077 C 
BRANCH  13  14
ATOM     14  C   UNL     1      -2.426  -3.281  -5.186  0.00  0.00    +0.214 C 
ATOM     15  O   UNL     1      -3.418  -2.887  -4.610  0.00  0.00    -0.276 OA
ATOM     16  N   UNL     1      -2.510  -3.700  -6.464  0.00  0.00    -0.305 N 
ATOM     17  C   UNL     1      -1.311  -4.176  -7.159  0.00  0.00    +0.132 C 
BRANCH  16  18
ATOM     18  C   UNL     1      -3.800  -3.679  -7.158  0.00  0.00    +0.105 C 
BRANCH  18  19
ATOM     19  C   UNL     1      -3.981  -2.330  -7.857  0.00  0.00    -0.001 C 
BRANCH  19  20
ATOM     20  C   UNL     1      -5.328  -2.308  -8.582  0.00  0.00    -0.085 C 
BRANCH  20  21
ATOM     21  N   UNL     1      -5.502  -1.012  -9.253  0.00  0.00    +0.378 N 
ATOM     22  H   UNL     1      -5.477  -0.273  -8.568  0.00  0.00    -0.090 HD
ATOM     23  H   UNL     1      -4.758  -0.877  -9.921  0.00  0.00    -0.090 HD
ATOM     24  H   UNL     1      -6.390  -0.998  -9.731  0.00  0.00    -0.090 HD
ENDBRANCH  20  21
ENDBRANCH  19  20
ENDBRANCH  18  19
ENDBRANCH  16  18
ENDBRANCH  13  14
ENDBRANCH   1  13
TORSDOF 8
