REMARK  Name = ZINC08400213
REMARK  9 active torsions:
REMARK  status: ('A' for Active; 'I' for Inactive)
REMARK    1  A    between atoms: C_1  and  C_2
REMARK    2  A    between atoms: C_2  and  C_3
REMARK    3  A    between atoms: C_9  and  S_19
REMARK    4  A    between atoms: N_10  and  C_13
REMARK    5  A    between atoms: S_19  and  C_20
REMARK    6  A    between atoms: C_20  and  C_21
REMARK    7  A    between atoms: N_23  and  N_24
REMARK    8  A    between atoms: C_25  and  C_26
REMARK    9  A    between atoms: C_31  and  O_32
REMARK                            x       y       z     vdW  Elec       q    Type
REMARK                         _______ _______ _______ _____ _____    ______ ____
ROOT
ATOM      1  C   UNL     1       0.764   0.539  -1.905  0.00  0.00    -0.008 A 
ATOM      2  C   UNL     1       2.076   0.395  -2.147  0.00  0.00    +0.026 A 
ATOM      3  C   UNL     1       2.518  -0.631  -3.075  0.00  0.00    +0.073 A 
ATOM      4  C   UNL     1       1.485  -1.399  -3.647  0.00  0.00    +0.116 A 
ATOM      5  S   UNL     1       0.015  -0.722  -2.918  0.00  0.00    -0.073 S 
ATOM      6  N   UNL     1       1.729  -2.375  -4.513  0.00  0.00    -0.216 NA
ATOM      7  C   UNL     1       2.962  -2.665  -4.875  0.00  0.00    +0.178 A 
ATOM      8  N   UNL     1       4.024  -1.970  -4.368  0.00  0.00    -0.255 N 
ATOM      9  C   UNL     1       3.845  -0.969  -3.486  0.00  0.00    +0.267 A 
ATOM     10  O   UNL     1       4.803  -0.358  -3.044  0.00  0.00    -0.267 OA
ENDROOT
BRANCH   8  11
ATOM     11  C   UNL     1       5.322  -2.305  -4.774  0.00  0.00    +0.052 A 
ATOM     12  C   UNL     1       5.887  -1.685  -5.880  0.00  0.00    +0.026 A 
ATOM     13  C   UNL     1       7.167  -2.017  -6.278  0.00  0.00    +0.002 A 
ATOM     14  C   UNL     1       7.886  -2.966  -5.576  0.00  0.00    +0.000 A 
ATOM     15  C   UNL     1       7.327  -3.586  -4.474  0.00  0.00    +0.002 A 
ATOM     16  C   UNL     1       6.049  -3.254  -4.067  0.00  0.00    +0.026 A 
ENDBRANCH   8  11
BRANCH   1  18
ATOM     17  C   UNL     1      -0.247   2.799  -1.770  0.00  0.00    +0.009 C 
ATOM     18  C   UNL     1       0.087   1.526  -0.990  0.00  0.00    +0.039 C 
ENDBRANCH   1  18
BRANCH   7  19
ATOM     19  S   UNL     1       3.246  -3.967  -6.028  0.00  0.00    -0.078 S 
BRANCH  19  20
ATOM     20  C   UNL     1       1.583  -4.584  -6.412  0.00  0.00    +0.174 C 
BRANCH  20  21
ATOM     21  C   UNL     1       1.683  -5.716  -7.401  0.00  0.00    +0.242 C 
ATOM     22  O   UNL     1       2.770  -6.073  -7.807  0.00  0.00    -0.273 OA
ATOM     23  N   UNL     1       0.566  -6.333  -7.834  0.00  0.00    -0.206 N 
ATOM     24  H   UNL     1      -0.302  -6.048  -7.510  0.00  0.00    +0.177 HD
BRANCH  23  25
ATOM     25  N   UNL     1       0.659  -7.386  -8.754  0.00  0.00    -0.188 NA
ATOM     26  C   UNL     1      -0.416  -7.980  -9.171  0.00  0.00    +0.142 C 
BRANCH  26  27
ATOM     27  C   UNL     1      -0.318  -9.088 -10.139  0.00  0.00    +0.036 A 
ATOM     28  C   UNL     1      -1.474  -9.726 -10.595  0.00  0.00    +0.013 A 
ATOM     29  C   UNL     1      -1.375 -10.761 -11.500  0.00  0.00    +0.001 A 
ATOM     30  C   UNL     1      -0.135 -11.171 -11.960  0.00  0.00    +0.004 A 
ATOM     31  C   UNL     1       1.016 -10.548 -11.515  0.00  0.00    +0.046 A 
ATOM     32  C   UNL     1       0.934  -9.503 -10.610  0.00  0.00    +0.125 A 
BRANCH  32  33
ATOM     33  O   UNL     1       2.064  -8.886 -10.178  0.00  0.00    -0.506 OA
ATOM     34  H   UNL     1       2.451  -9.285  -9.386  0.00  0.00    +0.292 HD
ENDBRANCH  32  33
ENDBRANCH  26  27
ENDBRANCH  23  25
ENDBRANCH  20  21
ENDBRANCH  19  20
ENDBRANCH   7  19
TORSDOF 8
