REMARK  Name = ZINC45401920
REMARK  4 active torsions:
REMARK  status: ('A' for Active; 'I' for Inactive)
REMARK    1  A    between atoms: C_5  and  C_6
REMARK    2  A    between atoms: N_14  and  C_15
REMARK    3  A    between atoms: N_18  and  C_21
REMARK    4  A    between atoms: C_21  and  C_22
REMARK                            x       y       z     vdW  Elec       q    Type
REMARK                         _______ _______ _______ _____ _____    ______ ____
ROOT
ATOM      1  C   UNL     1      -1.286  -0.786   0.011  0.00  0.00    +0.108 C 
ATOM      2  C   UNL     1      -1.596  -1.303  -1.410  0.00  0.00    +0.029 C 
ATOM      3  C   UNL     1      -2.177  -2.717  -1.147  0.00  0.00    +0.021 C 
ATOM      4  C   UNL     1      -1.336  -3.178   0.070  0.00  0.00    +0.110 C 
ATOM      5  N   UNL     1      -1.152  -1.960   0.886  0.00  0.00    -0.279 N 
ATOM      6  C   UNL     1      -0.902  -1.928   2.210  0.00  0.00    +0.303 C 
ATOM      7  O   UNL     1      -0.767  -0.861   2.778  0.00  0.00    -0.253 OA
ATOM      8  N   UNL     1      -0.802  -3.079   2.905  0.00  0.00    -0.297 N 
ATOM      9  H   UNL     1      -0.909  -3.930   2.452  0.00  0.00    +0.151 HD
ENDROOT
BRANCH   8  10
ATOM     10  C   UNL     1      -0.530  -3.044   4.344  0.00  0.00    +0.071 C 
ATOM     11  C   UNL     1       0.980  -2.953   4.578  0.00  0.00    +0.004 C 
ATOM     12  C   UNL     1       1.262  -2.998   6.081  0.00  0.00    -0.076 C 
ATOM     13  N   UNL     1       0.753  -4.255   6.641  0.00  0.00    +0.385 N 
ATOM     14  C   UNL     1      -0.705  -4.317   6.484  0.00  0.00    -0.076 C 
ATOM     15  C   UNL     1      -1.062  -4.323   4.996  0.00  0.00    +0.004 C 
ATOM     16  H   UNL     1       1.175  -5.033   6.157  0.00  0.00    -0.081 HD
BRANCH  13  17
ATOM     17  C   UNL     1       1.094  -4.328   8.068  0.00  0.00    +0.018 C 
BRANCH  17  18
ATOM     18  C   UNL     1       0.682  -5.670   8.616  0.00  0.00    +0.194 C 
ATOM     19  O   UNL     1       0.155  -6.486   7.888  0.00  0.00    -0.278 OA
ATOM     20  N   UNL     1       0.898  -5.964   9.913  0.00  0.00    -0.331 N 
ATOM     21  H   UNL     1       1.319  -5.312  10.495  0.00  0.00    +0.145 HD
ATOM     22  H   UNL     1       0.632  -6.828  10.265  0.00  0.00    +0.145 HD
ENDBRANCH  17  18
ENDBRANCH  13  17
ENDBRANCH   8  10
BRANCH   1  27
ATOM     23  C   UNL     1      -0.017   1.378   0.010  0.00  0.00    +0.013 A 
ATOM     24  C   UNL     1       1.160   2.051   0.002  0.00  0.00    +0.045 A 
ATOM     25  S   UNL     1       2.348   0.719  -0.017  0.00  0.00    -0.105 S 
ATOM     26  C   UNL     1       1.196  -0.645  -0.013  0.00  0.00    +0.050 A 
ATOM     27  C   UNL     1       0.002  -0.004   0.002  0.00  0.00    -0.020 A 
ENDBRANCH   1  27
TORSDOF 4
