REMARK  Name = ZINC43223116
REMARK  4 active torsions:
REMARK  status: ('A' for Active; 'I' for Inactive)
REMARK    1  A    between atoms: C_10  and  N_12
REMARK    2  A    between atoms: C_13  and  C_15
REMARK    3  A    between atoms: C_20  and  C_22
REMARK    4  A    between atoms: N_24  and  C_25
REMARK                            x       y       z     vdW  Elec       q    Type
REMARK                         _______ _______ _______ _____ _____    ______ ____
ROOT
ATOM      1  C   UNL     1       6.269   1.814   1.377  0.00  0.00    +0.068 C 
ATOM      2  C   UNL     1       7.419   0.876   1.801  0.00  0.00    -0.069 C 
ATOM      3  N   UNL     1       8.524   1.190   0.858  0.00  0.00    +0.380 N 
ATOM      4  C   UNL     1       8.465   2.666   0.705  0.00  0.00    -0.069 C 
ATOM      5  C   UNL     1       6.954   2.994   0.657  0.00  0.00    +0.068 C 
ATOM      6  H   UNL     1       9.411   0.911   1.249  0.00  0.00    -0.086 HD
ATOM      7  H   UNL     1       8.370   0.736  -0.030  0.00  0.00    -0.086 HD
ENDROOT
BRANCH   1   9
ATOM      8  N   UNL     1       4.649   0.018   0.860  0.00  0.00    -0.308 N 
ATOM      9  C   UNL     1       5.330   1.101   0.438  0.00  0.00    +0.215 C 
ATOM     10  O   UNL     1       5.189   1.502  -0.698  0.00  0.00    -0.276 OA
ATOM     11  H   UNL     1       4.762  -0.302   1.769  0.00  0.00    +0.149 HD
BRANCH   8  21
ATOM     12  C   UNL     1      -0.017   1.375   0.010  0.00  0.00    +0.000 A 
ATOM     13  C   UNL     1       1.174   2.078   0.002  0.00  0.00    +0.000 A 
ATOM     14  C   UNL     1       2.372   1.395  -0.016  0.00  0.00    +0.006 A 
ATOM     15  C   UNL     1       2.393   0.006  -0.025  0.00  0.00    -0.024 A 
ATOM     16  C   UNL     1       1.208  -0.694  -0.013  0.00  0.00    -0.042 A 
ATOM     17  C   UNL     1       0.002  -0.004   0.002  0.00  0.00    +0.004 A 
ATOM     18  C   UNL     1       1.155  -2.199  -0.005  0.00  0.00    +0.035 C 
ATOM     19  C   UNL     1       2.493  -2.786  -0.452  0.00  0.00    +0.007 C 
ATOM     20  C   UNL     1       3.607  -2.135   0.376  0.00  0.00    +0.027 C 
ATOM     21  C   UNL     1       3.736  -0.675  -0.053  0.00  0.00    +0.103 C 
ENDBRANCH   8  21
ENDBRANCH   1   9
BRANCH   5  22
ATOM     22  C   UNL     1       6.674   4.285   1.383  0.00  0.00    +0.215 C 
ATOM     23  O   UNL     1       5.990   4.281   2.385  0.00  0.00    -0.276 OA
ATOM     24  N   UNL     1       7.182   5.443   0.917  0.00  0.00    -0.308 N 
ATOM     25  H   UNL     1       7.729   5.446   0.116  0.00  0.00    +0.149 HD
BRANCH  24  26
ATOM     26  C   UNL     1       6.909   6.698   1.623  0.00  0.00    +0.104 C 
ATOM     27  C   UNL     1       8.005   7.738   1.307  0.00  0.00    +0.032 C 
ATOM     28  C   UNL     1       7.211   9.062   1.297  0.00  0.00    +0.037 C 
ATOM     29  C   UNL     1       5.795   8.672   0.932  0.00  0.00    -0.042 A 
ATOM     30  C   UNL     1       5.620   7.312   1.121  0.00  0.00    -0.024 A 
ATOM     31  C   UNL     1       4.394   6.729   0.851  0.00  0.00    +0.006 A 
ATOM     32  C   UNL     1       3.342   7.501   0.395  0.00  0.00    +0.000 A 
ATOM     33  C   UNL     1       3.514   8.859   0.207  0.00  0.00    +0.000 A 
ATOM     34  C   UNL     1       4.742   9.445   0.473  0.00  0.00    +0.004 A 
ENDBRANCH  24  26
ENDBRANCH   5  22
TORSDOF 4
