REMARK  Name = ZINC06600965
REMARK  15 active torsions:
REMARK  status: ('A' for Active; 'I' for Inactive)
REMARK    1  A    between atoms: C_1  and  C_2
REMARK    2  A    between atoms: C_2  and  O_3
REMARK    3  A    between atoms: O_3  and  C_4
REMARK    4  A    between atoms: C_7  and  N_10
REMARK    5  A    between atoms: N_10  and  C_11
REMARK    6  A    between atoms: C_11  and  C_13
REMARK    7  A    between atoms: C_11  and  C_20
REMARK    8  A    between atoms: N_22  and  C_23
REMARK    9  A    between atoms: C_23  and  C_24
REMARK   10  A    between atoms: C_24  and  C_25
REMARK   11  A    between atoms: C_25  and  C_26
REMARK   12  A    between atoms: C_25  and  C_27
REMARK   13  A    between atoms: C_28  and  C_30
REMARK   14  A    between atoms: C_31  and  N_38
REMARK   15  A    between atoms: C_32  and  C_35
REMARK                            x       y       z     vdW  Elec       q    Type
REMARK                         _______ _______ _______ _____ _____    ______ ____
ROOT
ATOM      1  N   UNL     1       3.240   1.936   1.084  0.00  0.00    -0.251 N 
ATOM      2  C   UNL     1       3.789   3.092   0.662  0.00  0.00    +0.262 C 
ATOM      3  O   UNL     1       4.704   3.596   1.287  0.00  0.00    -0.269 OA
ENDROOT
BRANCH   1   7
ATOM      4  C   UNL     1       4.825  -0.036   4.397  0.00  0.00    +0.121 A 
ATOM      5  C   UNL     1       5.053  -0.530   3.122  0.00  0.00    +0.047 A 
ATOM      6  C   UNL     1       4.529   0.122   2.024  0.00  0.00    +0.027 A 
ATOM      7  C   UNL     1       3.772   1.273   2.197  0.00  0.00    +0.038 A 
ATOM      8  C   UNL     1       3.547   1.770   3.474  0.00  0.00    +0.027 A 
ATOM      9  C   UNL     1       4.069   1.114   4.571  0.00  0.00    +0.047 A 
BRANCH   4  10
ATOM     10  O   UNL     1       5.342  -0.679   5.478  0.00  0.00    -0.492 OA
BRANCH  10  12
ATOM     11  C   UNL     1       5.726  -0.970   7.846  0.00  0.00    +0.048 C 
ATOM     12  C   UNL     1       5.067  -0.115   6.762  0.00  0.00    +0.225 C 
ENDBRANCH  10  12
ENDBRANCH   4  10
ENDBRANCH   1   7
BRANCH   2  13
ATOM     13  C   UNL     1       3.285   3.743  -0.549  0.00  0.00    +0.116 A 
ATOM     14  C   UNL     1       3.624   4.982  -1.095  0.00  0.00    +0.076 A 
ATOM     15  C   UNL     1       2.924   5.259  -2.269  0.00  0.00    +0.155 A 
ATOM     16  N   UNL     1       2.062   4.378  -2.726  0.00  0.00    -0.203 NA
ATOM     17  S   UNL     1       2.082   3.161  -1.726  0.00  0.00    +0.019 S 
BRANCH  15  18
ATOM     18  C   UNL     1       3.149   6.525  -2.990  0.00  0.00    +0.262 C 
ATOM     19  O   UNL     1       3.949   7.335  -2.561  0.00  0.00    -0.269 OA
ATOM     20  N   UNL     1       2.469   6.785  -4.124  0.00  0.00    -0.324 N 
ATOM     21  H   UNL     1       1.832   6.139  -4.466  0.00  0.00    +0.145 HD
ATOM     22  H   UNL     1       2.617   7.618  -4.598  0.00  0.00    +0.145 HD
ENDBRANCH  15  18
BRANCH  14  23
ATOM     23  N   UNL     1       4.555   5.844  -0.530  0.00  0.00    -0.355 N 
ATOM     24  H   UNL     1       5.011   5.597   0.289  0.00  0.00    +0.142 HD
ATOM     25  H   UNL     1       4.750   6.694  -0.956  0.00  0.00    +0.142 HD
ENDBRANCH  14  23
ENDBRANCH   2  13
BRANCH   1  26
ATOM     26  C   UNL     1       2.086   1.373   0.378  0.00  0.00    +0.197 C 
BRANCH  26  27
ATOM     27  C   UNL     1       1.757   0.019   0.954  0.00  0.00    -0.018 A 
ATOM     28  C   UNL     1       1.681  -1.084   0.124  0.00  0.00    +0.009 A 
ATOM     29  C   UNL     1       1.374  -2.325   0.649  0.00  0.00    +0.038 A 
ATOM     30  C   UNL     1       1.153  -2.465   2.009  0.00  0.00    +0.123 A 
ATOM     31  C   UNL     1       1.230  -1.359   2.839  0.00  0.00    +0.038 A 
ATOM     32  C   UNL     1       1.532  -0.119   2.311  0.00  0.00    +0.009 A 
ATOM     33  F   UNL     1       0.857  -3.678   2.524  0.00  0.00    -0.205 F 
ENDBRANCH  26  27
BRANCH  26  34
ATOM     34  C   UNL     1       0.900   2.289   0.542  0.00  0.00    +0.238 C 
ATOM     35  O   UNL     1       1.009   3.312   1.184  0.00  0.00    -0.273 OA
ATOM     36  N   UNL     1      -0.280   1.972  -0.026  0.00  0.00    -0.313 N 
ATOM     37  H   UNL     1      -0.366   1.153  -0.540  0.00  0.00    +0.149 HD
BRANCH  36  38
ATOM     38  C   UNL     1      -1.432   2.862   0.133  0.00  0.00    +0.104 C 
BRANCH  38  39
ATOM     39  C   UNL     1      -2.637   2.274  -0.604  0.00  0.00    +0.022 C 
BRANCH  39  40
ATOM     40  C   UNL     1      -3.840   3.204  -0.438  0.00  0.00    -0.016 C 
ATOM     41  C   UNL     1      -3.554   4.537  -1.132  0.00  0.00    +0.007 C 
ATOM     42  C   UNL     1      -5.076   2.557  -1.068  0.00  0.00    +0.007 C 
ENDBRANCH  39  40
ENDBRANCH  38  39
ENDBRANCH  36  38
ENDBRANCH  26  34
ENDBRANCH   1  26
TORSDOF 12
