REMARK  Name = ZINC63908332
REMARK  6 active torsions:
REMARK  status: ('A' for Active; 'I' for Inactive)
REMARK    1  A    between atoms: C_1  and  C_2
REMARK    2  A    between atoms: C_3  and  C_15
REMARK    3  A    between atoms: C_4  and  C_8
REMARK    4  A    between atoms: N_17  and  C_18
REMARK    5  A    between atoms: C_18  and  C_19
REMARK    6  A    between atoms: C_19  and  C_20
REMARK                            x       y       z     vdW  Elec       q    Type
REMARK                         _______ _______ _______ _____ _____    ______ ____
ROOT
ATOM      1  C   UNL     1      -2.622  -0.502  -0.073  0.00  0.00    +0.245 C 
ATOM      2  O   UNL     1      -2.979   0.659   0.012  0.00  0.00    -0.270 OA
ATOM      3  N   UNL     1      -3.539  -1.480  -0.208  0.00  0.00    -0.311 N 
ATOM      4  H   UNL     1      -3.261  -2.410  -0.203  0.00  0.00    +0.149 HD
ENDROOT
BRANCH   1   7
ATOM      5  C   UNL     1      -0.393   1.547  -0.013  0.00  0.00    +0.089 C 
ATOM      6  C   UNL     1      -0.222   0.050   0.002  0.00  0.00    +0.132 C 
ATOM      7  C   UNL     1      -1.242  -0.824  -0.030  0.00  0.00    +0.078 C 
ATOM      8  C   UNL     1      -0.646  -2.220  -0.011  0.00  0.00    +0.162 C 
ATOM      9  N   UNL     1       0.774  -1.971  -0.371  0.00  0.00    -0.144 NA
ATOM     10  O   UNL     1       0.971  -0.572   0.043  0.00  0.00    -0.410 OA
ATOM     11  H   UNL     1       1.389  -2.590   0.136  0.00  0.00    +0.168 HD
BRANCH   8  12
ATOM     12  C   UNL     1      -0.755  -2.829   1.363  0.00  0.00    -0.004 A 
ATOM     13  C   UNL     1      -1.022  -2.026   2.456  0.00  0.00    +0.007 A 
ATOM     14  C   UNL     1      -1.122  -2.585   3.716  0.00  0.00    +0.000 A 
ATOM     15  C   UNL     1      -0.956  -3.948   3.884  0.00  0.00    +0.001 A 
ATOM     16  C   UNL     1      -0.690  -4.751   2.792  0.00  0.00    +0.020 A 
ATOM     17  C   UNL     1      -0.595  -4.193   1.529  0.00  0.00    +0.046 A 
ATOM     18 CL   UNL     1      -0.268  -5.203   0.155  0.00  0.00    -0.083 Cl
ENDBRANCH   8  12
ENDBRANCH   1   7
BRANCH   3  19
ATOM     19  C   UNL     1      -4.956  -1.141  -0.362  0.00  0.00    +0.109 C 
BRANCH  19  20
ATOM     20  C   UNL     1      -5.777  -2.425  -0.495  0.00  0.00    +0.052 C 
BRANCH  20  21
ATOM     21  C   UNL     1      -7.234  -2.076  -0.653  0.00  0.00    -0.040 C 
ATOM     22  C   UNL     1      -7.919  -1.952  -1.812  0.00  0.00    -0.001 A 
ATOM     23  C   UNL     1      -7.528  -2.100  -3.219  0.00  0.00    +0.010 A 
ATOM     24  C   UNL     1      -8.458  -1.909  -4.183  0.00  0.00    +0.001 A 
ATOM     25  C   UNL     1      -9.783  -1.574  -3.871  0.00  0.00    +0.002 A 
ATOM     26  C   UNL     1     -10.218  -1.421  -2.603  0.00  0.00    +0.026 A 
ATOM     27  C   UNL     1      -9.325  -1.599  -1.510  0.00  0.00    +0.043 A 
ATOM     28  N   UNL     1      -9.501  -1.507  -0.215  0.00  0.00    -0.380 N 
ATOM     29  C   UNL     1      -8.228  -1.798   0.453  0.00  0.00    +0.144 C 
ATOM     30  H   UNL     1     -10.336  -1.287   0.229  0.00  0.00    +0.160 HD
ENDBRANCH  20  21
ENDBRANCH  19  20
ENDBRANCH   3  19
TORSDOF 5
