REMARK  Name = ZINC49560653
REMARK  11 active torsions:
REMARK  status: ('A' for Active; 'I' for Inactive)
REMARK    1  A    between atoms: C_1  and  C_2
REMARK    2  A    between atoms: C_2  and  C_4
REMARK    3  A    between atoms: C_2  and  N_9
REMARK    4  A    between atoms: C_4  and  C_5
REMARK    5  A    between atoms: C_5  and  N_6
REMARK    6  A    between atoms: N_6  and  C_7
REMARK    7  A    between atoms: N_6  and  C_8
REMARK    8  A    between atoms: N_9  and  S_10
REMARK    9  A    between atoms: S_10  and  C_13
REMARK   10  A    between atoms: C_14  and  N_21
REMARK   11  A    between atoms: N_21  and  N_22
REMARK                            x       y       z     vdW  Elec       q    Type
REMARK                         _______ _______ _______ _____ _____    ______ ____
ROOT
ATOM      1  S   UNL     1      -0.139  -0.902   2.549  0.00  0.00    +0.078 S 
ATOM      2  O   UNL     1       0.814  -1.354   3.502  0.00  0.00    -0.151 OA
ATOM      3  O   UNL     1      -1.030   0.173   2.814  0.00  0.00    -0.151 OA
ENDROOT
BRANCH   1   4
ATOM      4  C   UNL     1      -1.137  -2.294   2.137  0.00  0.00    +0.222 A 
ATOM      5  C   UNL     1      -2.393  -2.257   1.645  0.00  0.00    +0.179 A 
ATOM      6  N   UNL     1      -2.812  -3.520   1.462  0.00  0.00    -0.203 NA
ATOM      7  C   UNL     1      -1.864  -4.339   1.822  0.00  0.00    +0.181 A 
ATOM      8  N   UNL     1      -0.771  -3.638   2.256  0.00  0.00    -0.276 N 
ATOM      9  C   UNL     1       0.320  -4.373   2.666  0.00  0.00    +0.102 A 
ATOM     10  C   UNL     1       0.297  -5.705   2.633  0.00  0.00    +0.067 A 
ATOM     11  S   UNL     1      -1.343  -6.029   2.003  0.00  0.00    -0.058 S 
BRANCH   5  12
ATOM     12  N   UNL     1      -3.134  -1.097   1.371  0.00  0.00    -0.265 N 
ATOM     13  H   UNL     1      -2.746  -0.223   1.536  0.00  0.00    +0.168 HD
BRANCH  12  14
ATOM     14  N   UNL     1      -4.401  -1.198   0.871  0.00  0.00    -0.255 NA
ATOM     15  H   UNL     1      -4.983  -1.760   1.474  0.00  0.00    +0.140 HD
ATOM     16  H   UNL     1      -4.807  -0.286   0.726  0.00  0.00    +0.140 HD
ENDBRANCH  12  14
ENDBRANCH   5  12
ENDBRANCH   1   4
BRANCH   1  17
ATOM     17  N   UNL     1       0.711  -0.489   1.189  0.00  0.00    -0.186 NA
ATOM     18  H   UNL     1       1.677  -0.569   1.178  0.00  0.00    +0.148 HD
BRANCH  17  20
ATOM     19  C   UNL     1      -0.019   1.526   0.010  0.00  0.00    +0.025 C 
ATOM     20  C   UNL     1       0.002  -0.004   0.002  0.00  0.00    +0.072 C 
BRANCH  20  21
ATOM     21  C   UNL     1       0.718  -0.497  -1.257  0.00  0.00    +0.001 C 
BRANCH  21  22
ATOM     22  C   UNL     1       0.630  -2.023  -1.329  0.00  0.00    -0.078 C 
BRANCH  22  23
ATOM     23  N   UNL     1       1.318  -2.497  -2.537  0.00  0.00    +0.376 N 
ATOM     24  C   UNL     1       2.752  -2.195  -2.435  0.00  0.00    -0.097 C 
ATOM     25  C   UNL     1       1.132  -3.948  -2.670  0.00  0.00    -0.097 C 
ATOM     26  H   UNL     1       0.933  -2.033  -3.347  0.00  0.00    -0.083 HD
ENDBRANCH  22  23
ENDBRANCH  21  22
ENDBRANCH  20  21
ENDBRANCH  17  20
ENDBRANCH   1  17
TORSDOF 8
