REMARK  Name = ZINC38648624
REMARK  6 active torsions:
REMARK  status: ('A' for Active; 'I' for Inactive)
REMARK    1  A    between atoms: C_1  and  C_2
REMARK    2  A    between atoms: N_15  and  C_27
REMARK    3  A    between atoms: C_16  and  C_18
REMARK    4  A    between atoms: C_21  and  C_24
REMARK    5  A    between atoms: C_24  and  C_25
REMARK    6  A    between atoms: C_24  and  C_26
REMARK                            x       y       z     vdW  Elec       q    Type
REMARK                         _______ _______ _______ _____ _____    ______ ____
ROOT
ATOM      1  C   UNL     1      -0.018   1.503   0.010  0.00  0.00    +0.044 C 
ATOM      2  C   UNL     1       0.002  -0.004   0.002  0.00  0.00    -0.050 A 
ATOM      3  C   UNL     1       0.006  -0.689  -1.205  0.00  0.00    +0.007 A 
ATOM      4  C   UNL     1       0.021  -2.065  -1.235  0.00  0.00    +0.047 A 
ATOM      5  C   UNL     1       0.035  -2.790  -0.043  0.00  0.00    +0.139 A 
ATOM      6  C   UNL     1       0.037  -2.086   1.172  0.00  0.00    +0.065 A 
ATOM      7  C   UNL     1       0.023  -0.692   1.183  0.00  0.00    +0.018 A 
ATOM      8  C   UNL     1       0.068  -2.849   2.446  0.00  0.00    +0.199 A 
ATOM      9  O   UNL     1      -0.097  -2.332   3.537  0.00  0.00    -0.287 OA
ATOM     10  C   UNL     1       0.314  -4.283   2.265  0.00  0.00    +0.072 A 
ATOM     11  C   UNL     1       0.294  -4.850   1.022  0.00  0.00    +0.199 A 
ATOM     12  O   UNL     1       0.043  -4.141  -0.096  0.00  0.00    -0.450 OA
ATOM     13  C   UNL     1       0.583  -6.288   1.166  0.00  0.00    +0.283 C 
ATOM     14  O   UNL     1       0.643  -7.081   0.247  0.00  0.00    -0.267 OA
ATOM     15  N   UNL     1       0.770  -6.596   2.465  0.00  0.00    -0.279 N 
ATOM     16  C   UNL     1       0.614  -5.362   3.253  0.00  0.00    +0.145 C 
ENDROOT
BRANCH  15  17
ATOM     17  C   UNL     1       1.076  -7.926   2.999  0.00  0.00    +0.100 C 
ATOM     18  C   UNL     1      -0.055  -8.898   2.625  0.00  0.00    +0.047 C 
ATOM     19  C   UNL     1       0.433 -10.345   2.922  0.00  0.00    +0.168 C 
ATOM     20  S   UNL     1       2.174 -10.243   2.327  0.00  0.00    -0.029 S 
ATOM     21  O   UNL     1       3.025 -10.865   3.279  0.00  0.00    -0.174 OA
ATOM     22  O   UNL     1       2.223 -10.658   0.968  0.00  0.00    -0.174 OA
ATOM     23  C   UNL     1       2.416  -8.422   2.405  0.00  0.00    +0.188 C 
ENDBRANCH  15  17
BRANCH  16  24
ATOM     24  C   UNL     1      -0.527  -5.508   4.226  0.00  0.00    -0.022 A 
ATOM     25  C   UNL     1      -1.669  -6.194   3.855  0.00  0.00    +0.006 A 
ATOM     26  C   UNL     1      -2.715  -6.327   4.748  0.00  0.00    +0.004 A 
ATOM     27  C   UNL     1      -2.620  -5.776   6.012  0.00  0.00    -0.045 A 
ATOM     28  C   UNL     1      -1.479  -5.091   6.383  0.00  0.00    +0.004 A 
ATOM     29  C   UNL     1      -0.430  -4.961   5.492  0.00  0.00    +0.006 A 
BRANCH  27  30
ATOM     30  C   UNL     1      -3.762  -5.921   6.985  0.00  0.00    +0.013 C 
ATOM     31  C   UNL     1      -3.277  -6.660   8.234  0.00  0.00    +0.012 C 
ATOM     32  C   UNL     1      -4.274  -4.534   7.380  0.00  0.00    +0.012 C 
ENDBRANCH  27  30
ENDBRANCH  16  24
TORSDOF 3
