REMARK  Name = ZINC55135563
REMARK  5 active torsions:
REMARK  status: ('A' for Active; 'I' for Inactive)
REMARK    1  A    between atoms: C_1  and  C_2
REMARK    2  A    between atoms: C_5  and  C_12
REMARK    3  A    between atoms: C_9  and  N_11
REMARK    4  A    between atoms: N_14  and  C_15
REMARK    5  A    between atoms: C_15  and  C_16
REMARK                            x       y       z     vdW  Elec       q    Type
REMARK                         _______ _______ _______ _____ _____    ______ ____
ROOT
ATOM      1  C   UNL     1      -0.019   1.526   0.010  0.00  0.00    +0.006 C 
ATOM      2  C   UNL     1       0.002  -0.004   0.002  0.00  0.00    -0.028 C 
ATOM      3  C   UNL     1      -1.433  -0.534   0.013  0.00  0.00    +0.014 C 
ATOM      4  C   UNL     1      -2.149  -0.040   1.272  0.00  0.00    +0.075 C 
ATOM      5  C   UNL     1      -1.409  -0.547   2.511  0.00  0.00    +0.011 C 
ATOM      6  C   UNL     1       0.026  -0.018   2.500  0.00  0.00    -0.015 C 
ATOM      7  C   UNL     1       0.742  -0.511   1.242  0.00  0.00    -0.072 C 
ENDROOT
BRANCH   7   8
ATOM      8  N   UNL     1       2.120  -0.002   1.231  0.00  0.00    +0.380 N 
ATOM      9  H   UNL     1       2.107   1.006   1.237  0.00  0.00    -0.090 HD
ATOM     10  H   UNL     1       2.608  -0.337   2.049  0.00  0.00    -0.090 HD
ATOM     11  H   UNL     1       2.592  -0.328   0.401  0.00  0.00    -0.090 HD
ENDBRANCH   7   8
BRANCH   4  12
ATOM     12  C   UNL     1      -3.563  -0.562   1.282  0.00  0.00    +0.216 C 
ATOM     13  O   UNL     1      -3.959  -1.260   0.373  0.00  0.00    -0.276 OA
ATOM     14  N   UNL     1      -4.388  -0.253   2.303  0.00  0.00    -0.315 N 
ATOM     15  H   UNL     1      -4.071   0.305   3.030  0.00  0.00    +0.149 HD
BRANCH  14  16
ATOM     16  C   UNL     1      -5.762  -0.760   2.313  0.00  0.00    +0.110 C 
BRANCH  16  17
ATOM     17  C   UNL     1      -6.478  -0.267   3.572  0.00  0.00    +0.032 C 
ATOM     18  C   UNL     1      -7.874  -0.894   3.646  0.00  0.00    +0.009 C 
ATOM     19  C   UNL     1      -8.610  -0.333   4.867  0.00  0.00    +0.028 C 
ATOM     20  C   UNL     1      -8.663   1.194   4.764  0.00  0.00    +0.160 C 
ATOM     21  O   UNL     1      -7.334   1.710   4.668  0.00  0.00    -0.379 OA
ATOM     22  C   UNL     1      -6.613   1.257   3.520  0.00  0.00    +0.164 C 
ENDBRANCH  16  17
ENDBRANCH  14  16
ENDBRANCH   4  12
TORSDOF 4
