REMARK  Name = ZINC03232673
REMARK  4 active torsions:
REMARK  status: ('A' for Active; 'I' for Inactive)
REMARK    1  A    between atoms: C_10  and  N_11
REMARK    2  A    between atoms: C_10  and  N_63
REMARK    3  A    between atoms: N_14  and  C_28
REMARK    4  A    between atoms: C_15  and  C_17
REMARK                            x       y       z     vdW  Elec       q    Type
REMARK                         _______ _______ _______ _____ _____    ______ ____
ROOT
ATOM      1  N   UNL     1       4.830   4.990   1.256  0.00  0.00    -0.257 N 
ATOM      2  C   UNL     1       4.378   6.245   1.054  0.00  0.00    +0.181 A 
ATOM      3  S   UNL     1       3.699   6.857  -0.394  0.00  0.00    -0.011 S 
ATOM      4  N   UNL     1       4.555   6.928   2.203  0.00  0.00    -0.272 N 
ATOM      5  C   UNL     1       5.133   6.085   3.122  0.00  0.00    +0.181 A 
ATOM      6  N   UNL     1       5.304   4.925   2.574  0.00  0.00    -0.153 NA
ENDROOT
BRANCH   5   7
ATOM      7  C   UNL     1       5.506   6.451   4.535  0.00  0.00    +0.278 C 
ATOM      8  C   UNL     1       7.029   6.607   4.645  0.00  0.00    +0.281 C 
ATOM      9  O   UNL     1       7.349   6.941   6.000  0.00  0.00    -0.484 OA
ATOM     10  C   UNL     1       6.742   6.205   6.971  0.00  0.00    +0.162 A 
ATOM     11  C   UNL     1       7.258   6.220   8.258  0.00  0.00    +0.049 A 
ATOM     12  C   UNL     1       6.650   5.481   9.256  0.00  0.00    +0.004 A 
ATOM     13  C   UNL     1       5.528   4.725   8.973  0.00  0.00    +0.004 A 
ATOM     14  C   UNL     1       5.010   4.705   7.692  0.00  0.00    +0.049 A 
ATOM     15  C   UNL     1       5.615   5.443   6.686  0.00  0.00    +0.163 A 
ATOM     16  O   UNL     1       5.097   5.409   5.428  0.00  0.00    -0.474 OA
ENDBRANCH   5   7
BRANCH   4  17
ATOM     17  C   UNL     1       4.213   8.271   2.421  0.00  0.00    +0.054 A 
ATOM     18  C   UNL     1       3.226   8.596   3.342  0.00  0.00    +0.030 A 
ATOM     19  C   UNL     1       2.892   9.918   3.560  0.00  0.00    +0.051 A 
ATOM     20  C   UNL     1       3.534  10.925   2.853  0.00  0.00    +0.162 A 
ATOM     21  C   UNL     1       4.521  10.602   1.929  0.00  0.00    +0.164 A 
ATOM     22  C   UNL     1       4.858   9.275   1.713  0.00  0.00    +0.075 A 
ATOM     23  O   UNL     1       5.168  11.576   1.232  0.00  0.00    -0.485 OA
ATOM     24  C   UNL     1       4.548  12.867   1.203  0.00  0.00    +0.270 C 
ATOM     25  C   UNL     1       4.108  13.222   2.629  0.00  0.00    +0.270 C 
ATOM     26  O   UNL     1       3.185  12.222   3.075  0.00  0.00    -0.485 OA
ENDBRANCH   4  17
BRANCH   1  27
ATOM     27  C   UNL     1       4.832   3.900   0.278  0.00  0.00    +0.072 C 
BRANCH  27  37
ATOM     28  C   UNL     1      -1.219   1.746   0.017  0.00  0.00    +0.000 A 
ATOM     29  C   UNL     1      -1.238   3.128   0.030  0.00  0.00    +0.000 A 
ATOM     30  C   UNL     1      -0.051   3.832   0.020  0.00  0.00    +0.002 A 
ATOM     31  C   UNL     1       1.163   3.160   0.003  0.00  0.00    -0.061 A 
ATOM     32  C   UNL     1       1.181   1.782   0.000  0.00  0.00    -0.048 A 
ATOM     33  C   UNL     1      -0.013   1.076   0.008  0.00  0.00    +0.004 A 
ATOM     34  C   UNL     1       2.474   1.008  -0.005  0.00  0.00    +0.017 C 
ATOM     35  C   UNL     1       3.627   1.919  -0.428  0.00  0.00    -0.071 C 
ATOM     36  C   UNL     1       2.432   3.972  -0.017  0.00  0.00    -0.040 C 
ATOM     37  N   UNL     1       3.570   3.138   0.406  0.00  0.00    +0.396 N 
ATOM     38  H   UNL     1       3.441   2.867   1.388  0.00  0.00    -0.079 HD
ENDBRANCH  27  37
ENDBRANCH   1  27
TORSDOF 4
