REMARK  Name = ZINC66864264
REMARK  7 active torsions:
REMARK  status: ('A' for Active; 'I' for Inactive)
REMARK    1  A    between atoms: C_1  and  C_2
REMARK    2  A    between atoms: C_6  and  N_8
REMARK    3  A    between atoms: C_9  and  C_11
REMARK    4  A    between atoms: C_16  and  N_17
REMARK    5  A    between atoms: C_18  and  C_20
REMARK    6  A    between atoms: C_20  and  N_21
REMARK    7  A    between atoms: C_25  and  C_27
REMARK                            x       y       z     vdW  Elec       q    Type
REMARK                         _______ _______ _______ _____ _____    ______ ____
ROOT
ATOM      1  C   UNL     1      -0.119  -4.887   3.667  0.00  0.00    +0.058 A 
ATOM      2  C   UNL     1      -0.220  -4.201   4.879  0.00  0.00    +0.015 A 
ATOM      3  C   UNL     1      -0.289  -4.903   6.063  0.00  0.00    +0.001 A 
ATOM      4  C   UNL     1      -0.259  -6.288   6.058  0.00  0.00    +0.002 A 
ATOM      5  C   UNL     1      -0.159  -6.980   4.868  0.00  0.00    +0.024 A 
ATOM      6  C   UNL     1      -0.094  -6.290   3.665  0.00  0.00    +0.046 A 
ENDROOT
BRANCH   1   8
ATOM      7  N   UNL     1       0.039  -2.797   2.408  0.00  0.00    -0.281 N 
ATOM      8  C   UNL     1      -0.045  -4.142   2.396  0.00  0.00    +0.250 C 
ATOM      9  O   UNL     1      -0.060  -4.742   1.338  0.00  0.00    -0.270 OA
ATOM     10  H   UNL     1       0.134  -2.324   3.249  0.00  0.00    +0.155 HD
BRANCH   7  16
ATOM     11  C   UNL     1       1.180   1.228  -0.173  0.00  0.00    +0.044 C 
ATOM     12  C   UNL     1       0.533  -0.129  -0.073  0.00  0.00    -0.049 A 
ATOM     13  C   UNL     1      -0.111  -0.670  -1.171  0.00  0.00    +0.003 A 
ATOM     14  C   UNL     1      -0.705  -1.915  -1.083  0.00  0.00    +0.002 A 
ATOM     15  C   UNL     1      -0.657  -2.623   0.102  0.00  0.00    +0.023 A 
ATOM     16  C   UNL     1      -0.011  -2.083   1.206  0.00  0.00    +0.034 A 
ATOM     17  C   UNL     1       0.589  -0.834   1.113  0.00  0.00    +0.026 A 
ENDBRANCH   7  16
ENDBRANCH   1   8
BRANCH   6  18
ATOM     18  N   UNL     1       0.001  -6.987   2.462  0.00  0.00    -0.286 N 
ATOM     19  C   UNL     1      -0.465  -8.248   2.376  0.00  0.00    +0.201 C 
ATOM     20  O   UNL     1      -1.059  -8.741   3.312  0.00  0.00    -0.278 OA
ATOM     21  H   UNL     1       0.403  -6.564   1.687  0.00  0.00    +0.155 HD
BRANCH  19  22
ATOM     22  C   UNL     1      -0.247  -9.047   1.117  0.00  0.00    +0.020 C 
BRANCH  22  23
ATOM     23  N   UNL     1      -0.845 -10.380   1.273  0.00  0.00    +0.393 N 
ATOM     24  C   UNL     1      -2.326 -10.275   1.320  0.00  0.00    -0.077 C 
ATOM     25  C   UNL     1      -2.795 -11.696   0.919  0.00  0.00    -0.020 C 
ATOM     26  C   UNL     1      -1.769 -12.106  -0.163  0.00  0.00    -0.008 C 
ATOM     27  C   UNL     1      -0.537 -11.218   0.094  0.00  0.00    +0.020 C 
ATOM     28  H   UNL     1      -0.499 -10.820   2.112  0.00  0.00    -0.080 HD
BRANCH  27  29
ATOM     29  C   UNL     1       0.667 -12.079   0.376  0.00  0.00    +0.197 C 
ATOM     30  O   UNL     1       1.223 -12.010   1.452  0.00  0.00    -0.278 OA
ATOM     31  N   UNL     1       1.125 -12.926  -0.567  0.00  0.00    -0.331 N 
ATOM     32  H   UNL     1       0.680 -12.982  -1.427  0.00  0.00    +0.145 HD
ATOM     33  H   UNL     1       1.900 -13.481  -0.385  0.00  0.00    +0.145 HD
ENDBRANCH  27  29
ENDBRANCH  22  23
ENDBRANCH  19  22
ENDBRANCH   6  18
TORSDOF 6
