REMARK  Name = ZINC59373472
REMARK  10 active torsions:
REMARK  status: ('A' for Active; 'I' for Inactive)
REMARK    1  A    between atoms: C_1  and  N_2
REMARK    2  A    between atoms: N_2  and  C_3
REMARK    3  A    between atoms: N_2  and  C_4
REMARK    4  A    between atoms: C_4  and  C_6
REMARK    5  A    between atoms: C_4  and  C_24
REMARK    6  A    between atoms: C_6  and  N_7
REMARK    7  A    between atoms: N_7  and  C_8
REMARK    8  A    between atoms: C_11  and  N_15
REMARK    9  A    between atoms: C_28  and  O_30
REMARK   10  A    between atoms: O_30  and  C_31
REMARK                            x       y       z     vdW  Elec       q    Type
REMARK                         _______ _______ _______ _____ _____    ______ ____
ROOT
ATOM      1  N   UNL     1      -3.016  -2.183   0.662  0.00  0.00    -0.344 N 
ATOM      2  H   UNL     1      -3.611  -1.466   0.929  0.00  0.00    +0.146 HD
ENDROOT
BRANCH   1   3
ATOM      3  C   UNL     1      -3.430  -3.514   0.774  0.00  0.00    +0.046 A 
ATOM      4  C   UNL     1      -2.575  -4.542   0.397  0.00  0.00    +0.026 A 
ATOM      5  C   UNL     1      -2.984  -5.855   0.507  0.00  0.00    +0.030 A 
ATOM      6  C   UNL     1      -4.251  -6.150   0.995  0.00  0.00    +0.071 A 
ATOM      7  C   UNL     1      -5.107  -5.122   1.372  0.00  0.00    +0.049 A 
ATOM      8  C   UNL     1      -4.696  -3.808   1.267  0.00  0.00    +0.064 A 
ATOM      9 CL   UNL     1      -5.762  -2.524   1.745  0.00  0.00    -0.082 Cl
BRANCH   6  10
ATOM     10  N   UNL     1      -4.666  -7.482   1.107  0.00  0.00    -0.195 N 
ATOM     11  C   UNL     1      -5.866  -7.855   0.619  0.00  0.00    +0.292 A 
ATOM     12  O   UNL     1      -6.593  -7.036   0.080  0.00  0.00    -0.264 OA
ATOM     13  C   UNL     1      -6.273  -9.198   0.736  0.00  0.00    +0.127 A 
ATOM     14  C   UNL     1      -5.442 -10.096   1.341  0.00  0.00    +0.084 A 
ATOM     15  C   UNL     1      -4.201  -9.671   1.837  0.00  0.00    +0.155 A 
ATOM     16  N   UNL     1      -3.830  -8.423   1.718  0.00  0.00    -0.170 NA
ATOM     17 CL   UNL     1      -5.921 -11.757   1.499  0.00  0.00    -0.080 Cl
ATOM     18 CL   UNL     1      -7.814  -9.706   0.117  0.00  0.00    -0.076 Cl
ENDBRANCH   6  10
ENDBRANCH   1   3
BRANCH   1  19
ATOM     19  C   UNL     1      -1.682  -1.873   0.142  0.00  0.00    +0.091 C 
BRANCH  19  20
ATOM     20  C   UNL     1      -1.528  -0.357   0.003  0.00  0.00    -0.021 C 
BRANCH  20  21
ATOM     21  C   UNL     1      -2.479   0.150  -1.051  0.00  0.00    -0.056 A 
ATOM     22  C   UNL     1      -2.156   0.024  -2.390  0.00  0.00    +0.002 A 
ATOM     23  C   UNL     1      -3.026   0.488  -3.359  0.00  0.00    +0.004 A 
ATOM     24  C   UNL     1      -4.219   1.079  -2.993  0.00  0.00    +0.045 A 
ATOM     25  C   UNL     1      -4.545   1.206  -1.650  0.00  0.00    +0.120 A 
ATOM     26  C   UNL     1      -3.674   0.735  -0.679  0.00  0.00    +0.047 A 
BRANCH  25  27
ATOM     27  O   UNL     1      -5.719   1.788  -1.287  0.00  0.00    -0.495 OA
ATOM     28  C   UNL     1      -6.570   2.245  -2.340  0.00  0.00    +0.277 C 
ENDBRANCH  25  27
ENDBRANCH  20  21
BRANCH  20  30
ATOM     29  C   UNL     1      -0.018   1.412  -0.583  0.00  0.00    -0.096 C 
ATOM     30  N   UNL     1      -0.149  -0.038  -0.387  0.00  0.00    +0.382 N 
ATOM     31  C   UNL     1       0.773  -0.474   0.671  0.00  0.00    -0.096 C 
ATOM     32  H   UNL     1       0.076  -0.515  -1.247  0.00  0.00    -0.082 HD
ENDBRANCH  20  30
ENDBRANCH  19  20
ENDBRANCH   1  19
TORSDOF 7
