REMARK  Name = ZINC45551410
REMARK  10 active torsions:
REMARK  status: ('A' for Active; 'I' for Inactive)
REMARK    1  A    between atoms: C_1  and  C_2
REMARK    2  A    between atoms: C_2  and  C_3
REMARK    3  A    between atoms: C_2  and  N_4
REMARK    4  A    between atoms: N_4  and  C_5
REMARK    5  A    between atoms: C_5  and  C_6
REMARK    6  A    between atoms: C_5  and  C_7
REMARK    7  A    between atoms: C_5  and  C_17
REMARK    8  A    between atoms: C_7  and  C_8
REMARK    9  A    between atoms: C_8  and  S_9
REMARK   10  A    between atoms: S_9  and  C_10
REMARK                            x       y       z     vdW  Elec       q    Type
REMARK                         _______ _______ _______ _____ _____    ______ ____
ROOT
ATOM      1  C   UNL     1      -1.504  -1.863  -0.082  0.00  0.00    +0.008 C 
ATOM      2  C   UNL     1      -0.773  -2.709   0.962  0.00  0.00    -0.001 C 
ENDROOT
BRANCH   1   3
ATOM      3  C   UNL     1      -0.830  -2.024  -1.421  0.00  0.00    +0.199 C 
ATOM      4  O   UNL     1      -0.142  -2.999  -1.640  0.00  0.00    -0.278 OA
ATOM      5  N   UNL     1      -0.992  -1.085  -2.374  0.00  0.00    -0.330 N 
ATOM      6  H   UNL     1      -1.541  -0.305  -2.198  0.00  0.00    +0.145 HD
ATOM      7  H   UNL     1      -0.557  -1.188  -3.235  0.00  0.00    +0.145 HD
ENDBRANCH   1   3
BRANCH   1   8
ATOM      8  N   UNL     1      -1.466  -0.450   0.318  0.00  0.00    +0.390 N 
ATOM      9  H   UNL     1      -2.014  -0.323   1.156  0.00  0.00    -0.084 HD
ATOM     10  H   UNL     1      -1.847   0.120  -0.422  0.00  0.00    -0.084 HD
BRANCH   8  12
ATOM     11  C   UNL     1       0.707  -0.049  -0.738  0.00  0.00    -0.014 C 
ATOM     12  C   UNL     1      -0.076  -0.052   0.577  0.00  0.00    -0.077 C 
ATOM     13  C   UNL     1      -0.052   1.351   1.187  0.00  0.00    -0.014 C 
ENDBRANCH   8  12
ENDBRANCH   1   8
BRANCH   1  14
ATOM     14  C   UNL     1      -2.959  -2.325  -0.185  0.00  0.00    +0.007 C 
BRANCH  14  15
ATOM     15  C   UNL     1      -2.999  -3.796  -0.603  0.00  0.00    +0.073 C 
BRANCH  15  16
ATOM     16  S   UNL     1      -4.724  -4.343  -0.725  0.00  0.00    -0.125 S 
BRANCH  16  17
ATOM     17  C   UNL     1      -4.602  -6.034  -1.208  0.00  0.00    +0.008 A 
ATOM     18  C   UNL     1      -3.354  -6.617  -1.391  0.00  0.00    +0.016 A 
ATOM     19  C   UNL     1      -3.262  -7.942  -1.769  0.00  0.00    +0.016 A 
ATOM     20  C   UNL     1      -4.410  -8.689  -1.965  0.00  0.00    +0.018 A 
ATOM     21  C   UNL     1      -5.654  -8.111  -1.783  0.00  0.00    +0.016 A 
ATOM     22  C   UNL     1      -5.753  -6.788  -1.400  0.00  0.00    +0.016 A 
ATOM     23 BR   UNL     1      -4.279 -10.502  -2.483  0.00  0.00    -0.050 Br
ENDBRANCH  16  17
ENDBRANCH  15  16
ENDBRANCH  14  15
ENDBRANCH   1  14
TORSDOF 7
