REMARK  Name = ZINC45629557
REMARK  9 active torsions:
REMARK  status: ('A' for Active; 'I' for Inactive)
REMARK    1  A    between atoms: C_1  and  C_2
REMARK    2  A    between atoms: C_2  and  C_3
REMARK    3  A    between atoms: C_13  and  C_15
REMARK    4  A    between atoms: C_15  and  C_16
REMARK    5  A    between atoms: C_16  and  N_17
REMARK    6  A    between atoms: C_18  and  C_24
REMARK    7  A    between atoms: C_27  and  O_30
REMARK    8  A    between atoms: O_30  and  C_31
REMARK    9  A    between atoms: C_31  and  C_32
REMARK                            x       y       z     vdW  Elec       q    Type
REMARK                         _______ _______ _______ _____ _____    ______ ____
ROOT
ATOM      1  C   UNL     1     -10.068  -3.725  -0.198  0.00  0.00    +0.135 C 
ENDROOT
BRANCH   1   2
ATOM      2  N   UNL     1     -11.480  -4.114  -0.150  0.00  0.00    -0.303 N 
ATOM      3  C   UNL     1     -12.555  -3.249  -0.080  0.00  0.00    +0.163 A 
ATOM      4  N   UNL     1     -13.652  -3.954  -0.055  0.00  0.00    -0.153 NA
ATOM      5  N   UNL     1     -13.299  -5.309  -0.109  0.00  0.00    -0.254 N 
ATOM      6  H   UNL     1     -13.911  -6.061  -0.106  0.00  0.00    +0.191 HD
ATOM      7  C   UNL     1     -11.953  -5.376  -0.173  0.00  0.00    +0.176 A 
ATOM      8  S   UNL     1     -11.015  -6.805  -0.264  0.00  0.00    -0.011 S 
BRANCH   3   9
ATOM      9  C   UNL     1     -12.475  -1.773  -0.040  0.00  0.00    +0.019 A 
ATOM     10  C   UNL     1     -11.327  -1.122  -0.494  0.00  0.00    +0.015 A 
ATOM     11  C   UNL     1     -11.256   0.254  -0.456  0.00  0.00    +0.046 A 
ATOM     12  C   UNL     1     -12.325   0.993   0.036  0.00  0.00    +0.121 A 
ATOM     13  C   UNL     1     -13.468   0.348   0.490  0.00  0.00    +0.046 A 
ATOM     14  C   UNL     1     -13.549  -1.027   0.448  0.00  0.00    +0.015 A 
BRANCH  12  15
ATOM     15  O   UNL     1     -12.251   2.349   0.073  0.00  0.00    -0.492 OA
BRANCH  15  16
ATOM     16  C   UNL     1     -13.386   3.046   0.591  0.00  0.00    +0.225 C 
ATOM     17  C   UNL     1     -13.120   4.552   0.553  0.00  0.00    +0.048 C 
ENDBRANCH  15  16
ENDBRANCH  12  15
ENDBRANCH   3   9
ENDBRANCH   1   2
BRANCH   1  18
ATOM     18  C   UNL     1      -9.610  -3.644  -1.655  0.00  0.00    +0.118 C 
BRANCH  18  29
ATOM     19  C   UNL     1      -1.663  -0.808  -2.888  0.00  0.00    -0.046 A 
ATOM     20  C   UNL     1      -2.041  -0.868  -1.554  0.00  0.00    +0.006 A 
ATOM     21  C   UNL     1      -3.286  -1.302  -1.182  0.00  0.00    +0.029 A 
ATOM     22  C   UNL     1      -4.231  -1.705  -2.154  0.00  0.00    +0.080 A 
ATOM     23  C   UNL     1      -3.811  -1.631  -3.501  0.00  0.00    +0.041 A 
ATOM     24  C   UNL     1      -2.564  -1.189  -3.865  0.00  0.00    +0.021 A 
ATOM     25  S   UNL     1      -5.246  -2.207  -4.377  0.00  0.00    -0.052 S 
ATOM     26  C   UNL     1      -6.278  -2.500  -2.948  0.00  0.00    +0.165 A 
ATOM     27  N   UNL     1      -5.490  -2.154  -1.957  0.00  0.00    -0.225 NA
ATOM     28  N   UNL     1      -7.579  -2.974  -2.898  0.00  0.00    -0.265 N 
ATOM     29  C   UNL     1      -8.195  -3.129  -1.709  0.00  0.00    +0.220 C 
ATOM     30  O   UNL     1      -7.610  -2.854  -0.683  0.00  0.00    -0.275 OA
ATOM     31  H   UNL     1      -8.047  -3.193  -3.719  0.00  0.00    +0.157 HD
BRANCH  19  33
ATOM     32  C   UNL     1      -0.314   1.190  -3.469  0.00  0.00    +0.009 C 
ATOM     33  C   UNL     1      -0.286  -0.326  -3.268  0.00  0.00    +0.032 C 
ENDBRANCH  19  33
ENDBRANCH  18  29
ENDBRANCH   1  18
TORSDOF 7
