REMARK  Name = ZINC23067067
REMARK  4 active torsions:
REMARK  status: ('A' for Active; 'I' for Inactive)
REMARK    1  A    between atoms: C_1  and  C_2
REMARK    2  A    between atoms: C_7  and  O_8
REMARK    3  A    between atoms: O_8  and  C_9
REMARK    4  A    between atoms: C_15  and  N_17
REMARK                            x       y       z     vdW  Elec       q    Type
REMARK                         _______ _______ _______ _____ _____    ______ ____
ROOT
ATOM      1  C   UNL     1      -2.906   1.571   0.048  0.00  0.00    +0.164 C 
ATOM      2  C   UNL     1      -2.103   0.866   1.143  0.00  0.00    +0.107 C 
ATOM      3  C   UNL     1      -0.665   1.389   1.137  0.00  0.00    +0.173 C 
ATOM      4  C   UNL     1      -0.022   1.121  -0.225  0.00  0.00    +0.063 C 
ATOM      5  C   UNL     1      -0.829   1.826  -1.317  0.00  0.00    -0.007 C 
ATOM      6  C   UNL     1      -2.264   1.296  -1.313  0.00  0.00    -0.033 C 
ATOM      7  O   UNL     1      -0.671   2.804   1.391  0.00  0.00    -0.346 OA
ATOM      8  C   UNL     1      -0.443   2.924   2.816  0.00  0.00    +0.191 C 
ATOM      9  C   UNL     1       0.544   1.758   3.076  0.00  0.00    +0.191 C 
ATOM     10  O   UNL     1       0.090   0.737   2.164  0.00  0.00    -0.346 OA
ENDROOT
BRANCH   6  11
ATOM     11  N   UNL     1      -2.252  -0.151  -1.566  0.00  0.00    +0.382 N 
ATOM     12  H   UNL     1      -1.790  -0.349  -2.544  0.00  0.00    -0.089 HD
ATOM     13  H   UNL     1      -3.284  -0.532  -1.563  0.00  0.00    -0.089 HD
ATOM     14  H   UNL     1      -1.673  -0.656  -0.778  0.00  0.00    -0.089 HD
ENDBRANCH   6  11
BRANCH   1  15
ATOM     15  O   UNL     1      -4.248   1.078   0.050  0.00  0.00    -0.490 OA
BRANCH  15  22
ATOM     16  C   UNL     1      -6.931   0.219   0.247  0.00  0.00    +0.047 C 
ATOM     17  C   UNL     1      -6.543   1.531  -0.383  0.00  0.00    -0.009 A 
ATOM     18  C   UNL     1      -7.517   2.372  -0.887  0.00  0.00    +0.007 A 
ATOM     19  C   UNL     1      -7.160   3.573  -1.470  0.00  0.00    +0.000 A 
ATOM     20  C   UNL     1      -5.829   3.940  -1.545  0.00  0.00    +0.004 A 
ATOM     21  C   UNL     1      -4.852   3.107  -1.037  0.00  0.00    +0.046 A 
ATOM     22  C   UNL     1      -5.207   1.900  -0.451  0.00  0.00    +0.124 A 
ENDBRANCH  15  22
ENDBRANCH   1  15
TORSDOF 3
