REMARK  Name = ZINC55309465
REMARK  11 active torsions:
REMARK  status: ('A' for Active; 'I' for Inactive)
REMARK    1  A    between atoms: C_1  and  C_2
REMARK    2  A    between atoms: C_2  and  N_3
REMARK    3  A    between atoms: N_3  and  C_4
REMARK    4  A    between atoms: C_4  and  C_5
REMARK    5  A    between atoms: C_4  and  C_6
REMARK    6  A    between atoms: C_4  and  C_18
REMARK    7  A    between atoms: C_6  and  C_7
REMARK    8  A    between atoms: C_7  and  C_8
REMARK    9  A    between atoms: C_8  and  C_9
REMARK   10  A    between atoms: C_9  and  S_10
REMARK   11  A    between atoms: S_10  and  C_11
REMARK                            x       y       z     vdW  Elec       q    Type
REMARK                         _______ _______ _______ _____ _____    ______ ____
ROOT
ATOM      1  C   UNL     1       0.733  -1.960   1.184  0.00  0.00    +0.007 C 
ATOM      2  C   UNL     1       1.449  -2.453  -0.075  0.00  0.00    -0.001 C 
ENDROOT
BRANCH   1   3
ATOM      3  C   UNL     1      -0.681  -2.481   1.195  0.00  0.00    +0.199 C 
ATOM      4  O   UNL     1      -0.958  -3.495   0.590  0.00  0.00    -0.278 OA
ATOM      5  N   UNL     1      -1.638  -1.821   1.877  0.00  0.00    -0.330 N 
ATOM      6  H   UNL     1      -1.417  -1.010   2.361  0.00  0.00    +0.145 HD
ATOM      7  H   UNL     1      -2.548  -2.157   1.884  0.00  0.00    +0.145 HD
ENDBRANCH   1   3
BRANCH   1   8
ATOM      8  N   UNL     1       0.713  -0.491   1.192  0.00  0.00    +0.388 N 
ATOM      9  H   UNL     1       1.659  -0.141   1.185  0.00  0.00    -0.084 HD
ATOM     10  H   UNL     1       0.240  -0.165   2.022  0.00  0.00    -0.084 HD
BRANCH   8  12
ATOM     11  C   UNL     1      -0.019   1.526   0.010  0.00  0.00    -0.017 C 
ATOM     12  C   UNL     1       0.002  -0.004   0.002  0.00  0.00    -0.085 C 
ENDBRANCH   8  12
ENDBRANCH   1   8
BRANCH   1  13
ATOM     13  C   UNL     1       1.472  -2.466   2.424  0.00  0.00    -0.004 C 
BRANCH  13  14
ATOM     14  C   UNL     1       1.493  -3.996   2.415  0.00  0.00    -0.000 C 
BRANCH  14  15
ATOM     15  C   UNL     1       2.233  -4.503   3.655  0.00  0.00    +0.011 C 
BRANCH  15  16
ATOM     16  C   UNL     1       2.254  -6.033   3.646  0.00  0.00    +0.074 C 
BRANCH  16  17
ATOM     17  S   UNL     1       3.131  -6.634   5.116  0.00  0.00    -0.125 S 
BRANCH  17  18
ATOM     18  C   UNL     1       3.070  -8.388   4.962  0.00  0.00    +0.009 A 
ATOM     19  C   UNL     1       2.440  -8.969   3.867  0.00  0.00    +0.015 A 
ATOM     20  C   UNL     1       2.394 -10.344   3.749  0.00  0.00    +0.002 A 
ATOM     21  C   UNL     1       2.973 -11.143   4.718  0.00  0.00    +0.015 A 
ATOM     22  C   UNL     1       3.600 -10.569   5.809  0.00  0.00    +0.019 A 
ATOM     23  C   UNL     1       3.655  -9.193   5.931  0.00  0.00    +0.030 A 
ATOM     24 BR   UNL     1       4.390 -11.666   7.131  0.00  0.00    -0.050 Br
ENDBRANCH  17  18
ENDBRANCH  16  17
ENDBRANCH  15  16
ENDBRANCH  14  15
ENDBRANCH  13  14
ENDBRANCH   1  13
TORSDOF 9
