REMARK  Name = ZINC35226656
REMARK  9 active torsions:
REMARK  status: ('A' for Active; 'I' for Inactive)
REMARK    1  A    between atoms: C_4  and  C_7
REMARK    2  A    between atoms: C_7  and  C_8
REMARK    3  A    between atoms: C_8  and  N_9
REMARK    4  A    between atoms: C_10  and  C_12
REMARK    5  A    between atoms: C_15  and  C_17
REMARK    6  A    between atoms: C_17  and  N_18
REMARK    7  A    between atoms: N_18  and  C_19
REMARK    8  A    between atoms: N_18  and  C_27
REMARK    9  A    between atoms: C_19  and  C_20
REMARK                            x       y       z     vdW  Elec       q    Type
REMARK                         _______ _______ _______ _____ _____    ______ ____
ROOT
ATOM      1  C   UNL     1       8.541  -1.917   2.509  0.00  0.00    +0.189 A 
ATOM      2  C   UNL     1       9.079  -2.456   3.642  0.00  0.00    +0.055 A 
ATOM      3  C   UNL     1       9.968  -3.460   3.229  0.00  0.00    +0.043 A 
ATOM      4  C   UNL     1       9.935  -3.490   1.879  0.00  0.00    +0.090 A 
ATOM      5  O   UNL     1       9.070  -2.562   1.448  0.00  0.00    -0.457 OA
ENDROOT
BRANCH   1   7
ATOM      6  N   UNL     1       7.101  -0.394   1.263  0.00  0.00    -0.309 N 
ATOM      7  C   UNL     1       7.557  -0.831   2.454  0.00  0.00    +0.279 C 
ATOM      8  O   UNL     1       7.151  -0.325   3.483  0.00  0.00    -0.267 OA
ATOM      9  H   UNL     1       7.425  -0.797   0.442  0.00  0.00    +0.149 HD
BRANCH   6  10
ATOM     10  C   UNL     1       6.118   0.690   1.208  0.00  0.00    +0.109 C 
BRANCH  10  11
ATOM     11  C   UNL     1       5.772   0.992  -0.252  0.00  0.00    +0.054 C 
BRANCH  11  15
ATOM     12  C   UNL     1       2.904   4.154  -0.414  0.00  0.00    +0.000 A 
ATOM     13  C   UNL     1       4.256   4.444  -0.431  0.00  0.00    +0.000 A 
ATOM     14  C   UNL     1       5.184   3.421  -0.379  0.00  0.00    +0.004 A 
ATOM     15  C   UNL     1       4.760   2.107  -0.308  0.00  0.00    -0.046 A 
ATOM     16  C   UNL     1       3.409   1.816  -0.290  0.00  0.00    +0.004 A 
ATOM     17  C   UNL     1       2.481   2.840  -0.344  0.00  0.00    +0.000 A 
ENDBRANCH  11  15
ENDBRANCH  10  11
ENDBRANCH   6  10
ENDBRANCH   1   7
BRANCH   4  18
ATOM     18  C   UNL     1      10.735  -4.417   1.001  0.00  0.00    -0.002 C 
BRANCH  18  19
ATOM     19  N   UNL     1      10.058  -5.718   0.917  0.00  0.00    +0.389 N 
ATOM     20  H   UNL     1       9.876  -6.064   1.847  0.00  0.00    -0.080 HD
BRANCH  19  21
ATOM     21  C   UNL     1       8.787  -5.562   0.196  0.00  0.00    -0.068 C 
ATOM     22  C   UNL     1       8.967  -4.557  -0.943  0.00  0.00    -0.015 C 
ATOM     23  C   UNL     1       7.644  -4.395  -1.694  0.00  0.00    -0.002 C 
ATOM     24  C   UNL     1       6.570  -3.886  -0.730  0.00  0.00    -0.000 C 
ATOM     25  C   UNL     1       6.390  -4.891   0.409  0.00  0.00    -0.002 C 
ATOM     26  C   UNL     1       7.713  -5.053   1.160  0.00  0.00    -0.015 C 
ENDBRANCH  19  21
BRANCH  19  27
ATOM     27  C   UNL     1      10.914  -6.671   0.198  0.00  0.00    -0.041 C 
BRANCH  27  28
ATOM     28  C   UNL     1      10.297  -8.044   0.256  0.00  0.00    -0.046 A 
ATOM     29  C   UNL     1      10.474  -8.835   1.376  0.00  0.00    +0.003 A 
ATOM     30  C   UNL     1       9.908 -10.095   1.429  0.00  0.00    +0.000 A 
ATOM     31  C   UNL     1       9.164 -10.565   0.363  0.00  0.00    +0.001 A 
ATOM     32  C   UNL     1       8.985  -9.775  -0.757  0.00  0.00    +0.020 A 
ATOM     33  C   UNL     1       9.547  -8.511  -0.808  0.00  0.00    +0.042 A 
ATOM     34 CL   UNL     1       9.319  -7.516  -2.212  0.00  0.00    -0.083 Cl
ENDBRANCH  27  28
ENDBRANCH  19  27
ENDBRANCH  18  19
ENDBRANCH   4  18
TORSDOF 9
