REMARK  Name = ZINC43283675
REMARK  8 active torsions:
REMARK  status: ('A' for Active; 'I' for Inactive)
REMARK    1  A    between atoms: C_1  and  C_2
REMARK    2  A    between atoms: C_2  and  C_3
REMARK    3  A    between atoms: C_3  and  C_5
REMARK    4  A    between atoms: C_3  and  N_20
REMARK    5  A    between atoms: C_5  and  C_7
REMARK    6  A    between atoms: C_5  and  S_13
REMARK    7  A    between atoms: S_13  and  C_14
REMARK    8  A    between atoms: C_16  and  C_19
REMARK                            x       y       z     vdW  Elec       q    Type
REMARK                         _______ _______ _______ _____ _____    ______ ____
ROOT
ATOM      1  C   UNL     1       0.848  -2.046  -1.540  0.00  0.00    +0.075 C 
ENDROOT
BRANCH   1   2
ATOM      2  C   UNL     1       1.450  -2.446  -2.863  0.00  0.00    +0.003 A 
ATOM      3  C   UNL     1       2.580  -3.154  -3.106  0.00  0.00    +0.013 A 
ATOM      4  C   UNL     1       2.944  -3.406  -4.416  0.00  0.00    +0.023 A 
ATOM      5  C   UNL     1       2.159  -2.937  -5.418  0.00  0.00    +0.055 A 
ATOM      6  S   UNL     1       0.856  -2.118  -4.514  0.00  0.00    -0.085 S 
ATOM      7 BR   UNL     1       2.383  -3.112  -7.287  0.00  0.00    -0.043 Br
ENDBRANCH   1   2
BRANCH   1   8
ATOM      8  C   UNL     1       0.756  -0.521  -1.463  0.00  0.00    -0.057 C 
BRANCH   8   9
ATOM      9  N   UNL     1       0.053  -0.135  -0.232  0.00  0.00    +0.381 N 
ATOM     10  H   UNL     1      -0.007   0.871  -0.180  0.00  0.00    -0.090 HD
ATOM     11  H   UNL     1      -0.876  -0.527  -0.238  0.00  0.00    -0.090 HD
ATOM     12  H   UNL     1       0.561  -0.482   0.568  0.00  0.00    -0.090 HD
ENDBRANCH   8   9
BRANCH   8  14
ATOM     13  C   UNL     1       2.074   1.601  -1.515  0.00  0.00    +0.002 C 
ATOM     14  C   UNL     1       2.165   0.075  -1.454  0.00  0.00    -0.018 C 
ENDBRANCH   8  14
ENDBRANCH   1   8
BRANCH   1  15
ATOM     15  S   UNL     1      -0.813  -2.760  -1.391  0.00  0.00    -0.092 S 
BRANCH  15  16
ATOM     16  C   UNL     1      -0.518  -4.484  -1.175  0.00  0.00    +0.135 A 
ATOM     17  N   UNL     1      -1.398  -5.456  -1.058  0.00  0.00    -0.238 NA
ATOM     18  C   UNL     1      -1.012  -6.710  -0.900  0.00  0.00    +0.047 A 
ATOM     19  C   UNL     1       0.322  -6.944  -0.865  0.00  0.00    +0.070 A 
ATOM     20  S   UNL     1       0.957  -5.288  -1.076  0.00  0.00    -0.069 S 
ATOM     21  C   UNL     1      -2.011  -7.830  -0.765  0.00  0.00    +0.066 C 
ENDBRANCH  15  16
ENDBRANCH   1  15
TORSDOF 6
