REMARK  Name = ZINC58020896
REMARK  5 active torsions:
REMARK  status: ('A' for Active; 'I' for Inactive)
REMARK    1  A    between atoms: C_1  and  C_2
REMARK    2  A    between atoms: C_4  and  S_14
REMARK    3  A    between atoms: C_9  and  C_12
REMARK    4  A    between atoms: C_12  and  N_13
REMARK    5  A    between atoms: S_14  and  N_17
REMARK                            x       y       z     vdW  Elec       q    Type
REMARK                         _______ _______ _______ _____ _____    ______ ____
ROOT
ATOM      1  C   UNL     1      -0.018   1.503   0.010  0.00  0.00    +0.047 C 
ATOM      2  C   UNL     1       0.002  -0.004   0.002  0.00  0.00    -0.007 A 
ATOM      3  C   UNL     1       0.006  -0.685  -1.198  0.00  0.00    +0.035 A 
ATOM      4  C   UNL     1       0.024  -2.067  -1.217  0.00  0.00    +0.106 A 
ATOM      5  C   UNL     1       0.035  -2.771  -0.025  0.00  0.00    +0.036 A 
ATOM      6  C   UNL     1       0.029  -2.093   1.174  0.00  0.00    -0.000 A 
ATOM      7  C   UNL     1       0.023  -0.704   1.205  0.00  0.00    +0.127 A 
ATOM      8  O   UNL     1       0.047  -0.240   2.485  0.00  0.00    -0.490 OA
ATOM      9  C   UNL     1      -0.371  -1.288   3.376  0.00  0.00    +0.161 C 
ATOM     10  C   UNL     1       0.026  -2.571   2.613  0.00  0.00    +0.081 C 
ENDROOT
BRANCH   4  11
ATOM     11  S   UNL     1       0.034  -2.930  -2.753  0.00  0.00    +0.061 S 
ATOM     12  O   UNL     1      -0.499  -4.222  -2.496  0.00  0.00    -0.153 OA
ATOM     13  O   UNL     1      -0.531  -2.051  -3.716  0.00  0.00    -0.153 OA
BRANCH  11  14
ATOM     14  N   UNL     1       1.618  -3.149  -3.182  0.00  0.00    -0.177 NA
ATOM     15  C   UNL     1       2.320  -2.142  -3.991  0.00  0.00    +0.109 C 
ATOM     16  C   UNL     1       3.608  -1.740  -3.266  0.00  0.00    +0.017 C 
ATOM     17  C   UNL     1       4.434  -2.993  -2.967  0.00  0.00    +0.003 C 
ATOM     18  C   UNL     1       3.636  -3.925  -2.052  0.00  0.00    +0.017 C 
ATOM     19  C   UNL     1       2.350  -4.349  -2.757  0.00  0.00    +0.109 C 
ENDBRANCH  11  14
ENDBRANCH   4  11
BRANCH   9  20
ATOM     20  C   UNL     1       0.367  -1.190   4.713  0.00  0.00    -0.041 C 
BRANCH  20  21
ATOM     21  N   UNL     1      -0.043   0.037   5.409  0.00  0.00    +0.380 N 
ATOM     22  H   UNL     1      -1.038   0.013   5.575  0.00  0.00    -0.090 HD
ATOM     23  H   UNL     1       0.444   0.102   6.290  0.00  0.00    -0.090 HD
ATOM     24  H   UNL     1       0.184   0.838   4.840  0.00  0.00    -0.090 HD
ENDBRANCH  20  21
ENDBRANCH   9  20
TORSDOF 4
