REMARK  Name = ZINC39235350
REMARK  7 active torsions:
REMARK  status: ('A' for Active; 'I' for Inactive)
REMARK    1  A    between atoms: C_1  and  N_2
REMARK    2  A    between atoms: C_3  and  C_5
REMARK    3  A    between atoms: C_7  and  C_27
REMARK    4  A    between atoms: N_14  and  C_26
REMARK    5  A    between atoms: C_15  and  N_25
REMARK    6  A    between atoms: N_18  and  C_19
REMARK    7  A    between atoms: N_29  and  C_30
REMARK                            x       y       z     vdW  Elec       q    Type
REMARK                         _______ _______ _______ _____ _____    ______ ____
ROOT
ATOM      1  C   UNL     1      -1.523  -2.360   0.302  0.00  0.00    +0.182 C 
ATOM      2  C   UNL     1      -1.196  -2.643  -1.172  0.00  0.00    +0.114 C 
ATOM      3  C   UNL     1       0.237  -2.768  -1.601  0.00  0.00    -0.009 A 
ATOM      4  C   UNL     1       1.372  -2.017  -1.417  0.00  0.00    +0.006 A 
ATOM      5  C   UNL     1       2.567  -2.404  -1.997  0.00  0.00    +0.000 A 
ATOM      6  C   UNL     1       2.625  -3.553  -2.764  0.00  0.00    +0.002 A 
ATOM      7  C   UNL     1       1.495  -4.327  -2.941  0.00  0.00    +0.023 A 
ATOM      8  C   UNL     1       0.299  -3.957  -2.353  0.00  0.00    +0.033 A 
ATOM      9  N   UNL     1      -0.964  -4.622  -2.312  0.00  0.00    -0.334 N 
ATOM     10  C   UNL     1      -1.472  -4.206  -1.051  0.00  0.00    +0.095 C 
ATOM     11  C   UNL     1      -2.775  -4.213  -0.401  0.00  0.00    +0.223 C 
ATOM     12  O   UNL     1      -3.686  -4.988  -0.604  0.00  0.00    -0.275 OA
ATOM     13  N   UNL     1      -2.768  -3.163   0.490  0.00  0.00    -0.285 N 
ATOM     14  C   UNL     1      -1.576  -5.502  -3.311  0.00  0.00    +0.128 C 
ENDROOT
BRANCH  13  15
ATOM     15  C   UNL     1      -3.819  -2.878   1.470  0.00  0.00    +0.077 C 
ATOM     16  C   UNL     1      -5.143  -2.638   0.743  0.00  0.00    +0.022 C 
ATOM     17  C   UNL     1      -6.240  -2.340   1.767  0.00  0.00    +0.002 C 
ATOM     18  C   UNL     1      -6.389  -3.530   2.716  0.00  0.00    +0.000 C 
ATOM     19  C   UNL     1      -5.064  -3.771   3.444  0.00  0.00    +0.002 C 
ATOM     20  C   UNL     1      -3.967  -4.069   2.420  0.00  0.00    +0.022 C 
ENDBRANCH  13  15
BRANCH   1  23
ATOM     21  C   UNL     1      -1.013   1.383   0.926  0.00  0.00    +0.128 C 
ATOM     22  N   UNL     1      -0.756  -0.043   0.709  0.00  0.00    -0.317 N 
ATOM     23  C   UNL     1      -1.786  -0.893   0.525  0.00  0.00    +0.235 C 
ATOM     24  O   UNL     1      -2.926  -0.477   0.540  0.00  0.00    -0.274 OA
ATOM     25  H   UNL     1       0.155  -0.376   0.698  0.00  0.00    +0.148 HD
ENDBRANCH   1  23
BRANCH   2  26
ATOM     26  C   UNL     1      -2.071  -1.897  -2.146  0.00  0.00    +0.226 C 
ATOM     27  O   UNL     1      -2.771  -2.509  -2.925  0.00  0.00    -0.275 OA
ATOM     28  N   UNL     1      -2.076  -0.549  -2.152  0.00  0.00    -0.318 N 
ATOM     29  C   UNL     1      -2.926   0.176  -3.099  0.00  0.00    +0.128 C 
ATOM     30  H   UNL     1      -1.516  -0.059  -1.529  0.00  0.00    +0.148 HD
ENDBRANCH   2  26
BRANCH  10  31
ATOM     31  N   UNL     1      -0.503  -4.644  -0.037  0.00  0.00    +0.399 N 
ATOM     32  H   UNL     1      -0.792  -4.309   0.870  0.00  0.00    -0.086 HD
ATOM     33  H   UNL     1      -0.461  -5.652  -0.025  0.00  0.00    -0.086 HD
ATOM     34  H   UNL     1       0.408  -4.271  -0.259  0.00  0.00    -0.086 HD
ENDBRANCH  10  31
TORSDOF 4
