REMARK  Name = ZINC16638954
REMARK  4 active torsions:
REMARK  status: ('A' for Active; 'I' for Inactive)
REMARK    1  A    between atoms: C_12  and  C_14
REMARK    2  A    between atoms: C_18  and  N_20
REMARK    3  A    between atoms: N_20  and  S_21
REMARK    4  A    between atoms: S_21  and  C_24
REMARK                            x       y       z     vdW  Elec       q    Type
REMARK                         _______ _______ _______ _____ _____    ______ ____
ROOT
ATOM      1  C   UNL     1      -0.811  -2.097  -0.860  0.00  0.00    +0.039 A 
ATOM      2  C   UNL     1      -1.287  -1.007  -0.130  0.00  0.00    +0.013 A 
ATOM      3  C   UNL     1      -0.434  -0.303   0.695  0.00  0.00    +0.003 A 
ATOM      4  C   UNL     1       0.893  -0.674   0.802  0.00  0.00    +0.024 A 
ATOM      5  C   UNL     1       1.378  -1.757   0.079  0.00  0.00    +0.049 A 
ATOM      6  C   UNL     1       0.529  -2.467  -0.757  0.00  0.00    +0.037 A 
ENDROOT
BRANCH   1  18
ATOM      7  C   UNL     1      -2.588 -10.005   0.568  0.00  0.00    +0.005 A 
ATOM      8  C   UNL     1      -3.946 -10.203   0.353  0.00  0.00    +0.018 A 
ATOM      9  C   UNL     1      -4.652  -9.286  -0.400  0.00  0.00    +0.084 A 
ATOM     10  C   UNL     1      -2.762  -8.004  -0.731  0.00  0.00    +0.099 A 
ATOM     11  C   UNL     1      -1.989  -8.887   0.017  0.00  0.00    +0.042 A 
ATOM     12  N   UNL     1      -2.172  -6.877  -1.291  0.00  0.00    -0.314 N 
ATOM     13  C   UNL     1      -3.158  -6.083  -2.037  0.00  0.00    +0.125 C 
ATOM     14  C   UNL     1      -2.439  -4.955  -2.785  0.00  0.00    +0.127 C 
ATOM     15  N   UNL     1      -1.630  -4.195  -1.820  0.00  0.00    -0.295 N 
ATOM     16  C   UNL     1      -0.712  -4.939  -0.944  0.00  0.00    +0.127 C 
ATOM     17  C   UNL     1      -1.503  -6.068  -0.264  0.00  0.00    +0.125 C 
ATOM     18  C   UNL     1      -1.723  -2.853  -1.745  0.00  0.00    +0.247 C 
ATOM     19  O   UNL     1      -2.558  -2.264  -2.404  0.00  0.00    -0.270 OA
ATOM     20  N   UNL     1      -4.097  -8.174  -0.952  0.00  0.00    -0.350 N 
ATOM     21  H   UNL     1      -4.649  -7.504  -1.500  0.00  0.00    +0.166 HD
ENDBRANCH   1  18
BRANCH   5  22
ATOM     22  N   UNL     1       2.720  -2.128   0.191  0.00  0.00    -0.216 N 
ATOM     23  H   UNL     1       3.232  -2.342  -0.605  0.00  0.00    +0.174 HD
BRANCH  22  24
ATOM     24  S   UNL     1       3.436  -2.207   1.682  0.00  0.00    +0.072 S 
ATOM     25  O   UNL     1       4.775  -2.631   1.467  0.00  0.00    -0.150 OA
ATOM     26  O   UNL     1       3.120  -0.993   2.350  0.00  0.00    -0.150 OA
BRANCH  24  27
ATOM     27  C   UNL     1       2.636  -3.497   2.576  0.00  0.00    +0.110 A 
ATOM     28  C   UNL     1       1.530  -3.215   3.355  0.00  0.00    +0.030 A 
ATOM     29  C   UNL     1       0.898  -4.227   4.053  0.00  0.00    +0.023 A 
ATOM     30  C   UNL     1       1.379  -5.522   3.980  0.00  0.00    +0.059 A 
ATOM     31  C   UNL     1       2.490  -5.804   3.204  0.00  0.00    +0.061 A 
ATOM     32  C   UNL     1       3.118  -4.790   2.502  0.00  0.00    +0.050 A 
ATOM     33 CL   UNL     1       3.095  -7.428   3.112  0.00  0.00    -0.082 Cl
ATOM     34 CL   UNL     1       0.590  -6.792   4.861  0.00  0.00    -0.082 Cl
ENDBRANCH  24  27
ENDBRANCH  22  24
ENDBRANCH   5  22
TORSDOF 4
