REMARK  Name = ZINC39306934
REMARK  5 active torsions:
REMARK  status: ('A' for Active; 'I' for Inactive)
REMARK    1  A    between atoms: C_7  and  N_12
REMARK    2  A    between atoms: C_13  and  C_15
REMARK    3  A    between atoms: C_15  and  N_16
REMARK    4  A    between atoms: C_20  and  O_23
REMARK    5  A    between atoms: O_23  and  C_24
REMARK                            x       y       z     vdW  Elec       q    Type
REMARK                         _______ _______ _______ _____ _____    ______ ____
ROOT
ATOM      1  C   UNL     1      -1.142  -4.974  -0.254  0.00  0.00    +0.019 C 
ENDROOT
BRANCH   1   2
ATOM      2  N   UNL     1      -0.795  -6.399  -0.330  0.00  0.00    +0.388 N 
ATOM      3  C   UNL     1      -0.034  -6.651  -1.560  0.00  0.00    -0.078 C 
ATOM      4  C   UNL     1       0.399  -8.118  -1.604  0.00  0.00    -0.015 C 
ATOM      5  C   UNL     1      -0.844  -9.013  -1.579  0.00  0.00    +0.041 C 
ATOM      6  C   UNL     1      -1.668  -8.689  -0.330  0.00  0.00    +0.157 C 
ATOM      7  C   UNL     1      -2.025  -7.201  -0.332  0.00  0.00    -0.033 C 
ATOM      8  H   UNL     1      -0.233  -6.651   0.469  0.00  0.00    -0.081 HD
BRANCH   6   9
ATOM      9  O   UNL     1      -2.866  -9.468  -0.334  0.00  0.00    -0.491 OA
BRANCH   9  10
ATOM     10  C   UNL     1      -2.837 -10.649   0.339  0.00  0.00    +0.121 A 
ATOM     11  C   UNL     1      -1.647 -11.106   0.887  0.00  0.00    +0.047 A 
ATOM     12  C   UNL     1      -1.619 -12.306   1.570  0.00  0.00    +0.023 A 
ATOM     13  C   UNL     1      -2.776 -13.052   1.708  0.00  0.00    +0.041 A 
ATOM     14  C   UNL     1      -3.964 -12.598   1.162  0.00  0.00    +0.023 A 
ATOM     15  C   UNL     1      -3.997 -11.395   0.483  0.00  0.00    +0.047 A 
ATOM     16 CL   UNL     1      -2.739 -14.561   2.567  0.00  0.00    -0.084 Cl
ENDBRANCH   9  10
ENDBRANCH   6   9
ENDBRANCH   1   2
BRANCH   1  18
ATOM     17  N   UNL     1       0.043  -2.813  -0.042  0.00  0.00    -0.287 N 
ATOM     18  C   UNL     1       0.117  -4.156  -0.128  0.00  0.00    +0.201 C 
ATOM     19  O   UNL     1       1.198  -4.707  -0.104  0.00  0.00    -0.278 OA
ATOM     20  H   UNL     1      -0.822  -2.377   0.003  0.00  0.00    +0.155 HD
BRANCH  17  27
ATOM     21  C   UNL     1       0.187   0.974  -1.864  0.00  0.00    +0.001 A 
ATOM     22  C   UNL     1       1.363   1.720  -1.827  0.00  0.00    +0.001 A 
ATOM     23  C   UNL     1       2.477   1.242  -1.208  0.00  0.00    +0.009 A 
ATOM     24  C   UNL     1       2.443  -0.023  -0.594  0.00  0.00    -0.002 A 
ATOM     25  C   UNL     1       1.247  -0.780  -0.632  0.00  0.00    +0.004 A 
ATOM     26  C   UNL     1       0.118  -0.255  -1.280  0.00  0.00    +0.010 A 
ATOM     27  C   UNL     1       1.213  -2.050  -0.017  0.00  0.00    +0.041 A 
ATOM     28  C   UNL     1       2.343  -2.529   0.609  0.00  0.00    +0.025 A 
ATOM     29  C   UNL     1       3.513  -1.776   0.640  0.00  0.00    +0.018 A 
ATOM     30  C   UNL     1       3.574  -0.548   0.055  0.00  0.00    +0.026 A 
ATOM     31 BR   UNL     1       5.180   0.450   0.115  0.00  0.00    -0.050 Br
ENDBRANCH  17  27
ENDBRANCH   1  18
TORSDOF 5
