REMARK  Name = ZINC15064749
REMARK  10 active torsions:
REMARK  status: ('A' for Active; 'I' for Inactive)
REMARK    1  A    between atoms: C_1  and  N_64
REMARK    2  A    between atoms: C_2  and  N_64
REMARK    3  A    between atoms: C_3  and  C_4
REMARK    4  A    between atoms: C_3  and  N_64
REMARK    5  A    between atoms: C_4  and  C_5
REMARK    6  A    between atoms: C_5  and  N_6
REMARK    7  A    between atoms: N_6  and  C_7
REMARK    8  A    between atoms: C_7  and  C_8
REMARK    9  A    between atoms: C_13  and  N_66
REMARK   10  A    between atoms: C_22  and  C_24
REMARK                            x       y       z     vdW  Elec       q    Type
REMARK                         _______ _______ _______ _____ _____    ______ ____
ROOT
ATOM      1  C   UNL     1      -0.063   1.197   2.590  0.00  0.00    +0.111 C 
ENDROOT
BRANCH   1   2
ATOM      2  C   UNL     1      -0.741   1.908   1.417  0.00  0.00    +0.003 C 
ATOM      3  C   UNL     1      -0.015   1.556   0.116  0.00  0.00    -0.014 C 
ATOM      4  C   UNL     1      -0.733   2.221  -1.061  0.00  0.00    -0.078 C 
ATOM      5  C   UNL     1      -2.856   2.122   0.104  0.00  0.00    -0.078 C 
ATOM      6  C   UNL     1      -2.201   1.454   1.316  0.00  0.00    -0.014 C 
ATOM      7  N   UNL     1      -2.124   1.724  -1.117  0.00  0.00    +0.382 N 
ATOM      8  H   UNL     1      -2.109   0.699  -1.177  0.00  0.00    -0.081 HD
BRANCH   7   9
ATOM      9  C   UNL     1      -2.805   2.264  -2.312  0.00  0.00    -0.060 C 
ATOM     10  C   UNL     1      -4.160   1.552  -2.517  0.00  0.00    +0.020 C 
ATOM     11  C   UNL     1      -4.314   1.427  -4.021  0.00  0.00    -0.046 A 
ATOM     12  C   UNL     1      -5.438   1.169  -4.788  0.00  0.00    +0.004 A 
ATOM     13  C   UNL     1      -5.340   1.103  -6.164  0.00  0.00    +0.000 A 
ATOM     14  C   UNL     1      -4.116   1.294  -6.779  0.00  0.00    +0.000 A 
ATOM     15  C   UNL     1      -2.994   1.551  -6.015  0.00  0.00    +0.004 A 
ATOM     16  C   UNL     1      -3.091   1.619  -4.635  0.00  0.00    -0.046 A 
ATOM     17  C   UNL     1      -2.028   1.882  -3.590  0.00  0.00    +0.020 C 
ENDBRANCH   7   9
ENDBRANCH   1   2
BRANCH   1  18
ATOM     18  N   UNL     1      -0.733   1.568   3.839  0.00  0.00    -0.297 N 
ATOM     19  C   UNL     1      -0.385   2.701   4.480  0.00  0.00    +0.253 C 
ATOM     20  O   UNL     1       0.532   3.382   4.058  0.00  0.00    -0.269 OA
BRANCH  19  21
ATOM     21  C   UNL     1      -1.109   3.113   5.685  0.00  0.00    +0.074 A 
ATOM     22  C   UNL     1      -1.004   4.292   6.408  0.00  0.00    +0.021 A 
ATOM     23  C   UNL     1      -1.810   4.423   7.511  0.00  0.00    +0.008 A 
ATOM     24  C   UNL     1      -2.658   3.412   7.837  0.00  0.00    +0.046 A 
ATOM     25  S   UNL     1      -2.362   2.232   6.601  0.00  0.00    -0.092 S 
ENDBRANCH  19  21
BRANCH  18  26
ATOM     26  C   UNL     1      -1.782   0.707   4.391  0.00  0.00    +0.106 C 
BRANCH  26  27
ATOM     27  C   UNL     1      -1.181  -0.207   5.461  0.00  0.00    +0.000 C 
BRANCH  27  28
ATOM     28  C   UNL     1      -2.276  -1.106   6.038  0.00  0.00    -0.078 C 
BRANCH  28  31
ATOM     29  C   UNL     1      -2.752  -2.690   7.806  0.00  0.00    -0.097 C 
ATOM     30  C   UNL     1      -0.744  -2.930   6.474  0.00  0.00    -0.097 C 
ATOM     31  N   UNL     1      -1.684  -1.966   7.084  0.00  0.00    +0.376 N 
ATOM     32  H   UNL     1      -1.172  -1.377   7.750  0.00  0.00    -0.083 HD
ENDBRANCH  28  31
ENDBRANCH  27  28
ENDBRANCH  26  27
ENDBRANCH  18  26
ENDBRANCH   1  18
TORSDOF 8
