REMARK  Name = ZINC20429074
REMARK  6 active torsions:
REMARK  status: ('A' for Active; 'I' for Inactive)
REMARK    1  A    between atoms: C_3  and  C_9
REMARK    2  A    between atoms: C_4  and  O_8
REMARK    3  A    between atoms: C_5  and  O_7
REMARK    4  A    between atoms: N_10  and  N_11
REMARK    5  A    between atoms: N_11  and  S_12
REMARK    6  A    between atoms: S_12  and  C_15
REMARK                            x       y       z     vdW  Elec       q    Type
REMARK                         _______ _______ _______ _____ _____    ______ ____
ROOT
ATOM      1  C   UNL     1      -2.527   3.863   0.045  0.00  0.00    +0.143 C 
ATOM      2  N   UNL     1      -2.545   5.160   0.052  0.00  0.00    -0.174 NA
ENDROOT
BRANCH   1   5
ATOM      3  C   UNL     1      -0.013   1.076   0.008  0.00  0.00    +0.004 A 
ATOM      4  C   UNL     1      -1.218   1.746   0.017  0.00  0.00    +0.013 A 
ATOM      5  C   UNL     1      -1.241   3.143   0.030  0.00  0.00    +0.040 A 
ATOM      6  C   UNL     1      -0.036   3.856   0.023  0.00  0.00    +0.167 A 
ATOM      7  C   UNL     1       1.171   3.167   0.008  0.00  0.00    +0.159 A 
ATOM      8  C   UNL     1       1.178   1.781   0.000  0.00  0.00    +0.049 A 
BRANCH   7   9
ATOM      9  O   UNL     1       2.345   3.854   0.000  0.00  0.00    -0.503 OA
ATOM     10  H   UNL     1       3.300   3.309  -0.011  0.00  0.00    +0.292 HD
ENDBRANCH   7   9
BRANCH   6  11
ATOM     11  O   UNL     1      -0.047   5.215   0.030  0.00  0.00    -0.503 OA
ATOM     12  H   UNL     1       0.902   5.772   0.025  0.00  0.00    +0.292 HD
ENDBRANCH   6  11
ENDBRANCH   1   5
BRANCH   2  13
ATOM     13  N   UNL     1      -3.767   5.844   0.066  0.00  0.00    -0.137 N 
ATOM     14  H   UNL     1      -4.600   5.348   0.071  0.00  0.00    +0.197 HD
BRANCH  13  15
ATOM     15  S   UNL     1      -3.789   7.500   0.075  0.00  0.00    +0.086 S 
ATOM     16  O   UNL     1      -5.149   7.889  -0.057  0.00  0.00    -0.149 OA
ATOM     17  O   UNL     1      -2.982   7.912   1.169  0.00  0.00    -0.149 OA
BRANCH  15  18
ATOM     18  C   UNL     1      -2.968   8.040  -1.388  0.00  0.00    +0.110 A 
ATOM     19  C   UNL     1      -1.604   8.268  -1.370  0.00  0.00    +0.031 A 
ATOM     20  C   UNL     1      -0.958   8.686  -2.518  0.00  0.00    +0.040 A 
ATOM     21  C   UNL     1      -1.678   8.887  -3.683  0.00  0.00    +0.124 A 
ATOM     22  C   UNL     1      -3.045   8.664  -3.698  0.00  0.00    +0.040 A 
ATOM     23  C   UNL     1      -3.688   8.240  -2.550  0.00  0.00    +0.031 A 
ATOM     24  F   UNL     1      -1.048   9.301  -4.804  0.00  0.00    -0.205 F 
ENDBRANCH  15  18
ENDBRANCH  13  15
ENDBRANCH   2  13
TORSDOF 6
