REMARK  Name = ZINC09963866
REMARK  8 active torsions:
REMARK  status: ('A' for Active; 'I' for Inactive)
REMARK    1  A    between atoms: C_1  and  C_2
REMARK    2  A    between atoms: C_5  and  S_9
REMARK    3  A    between atoms: C_6  and  C_8
REMARK    4  A    between atoms: S_9  and  N_12
REMARK    5  A    between atoms: C_18  and  C_20
REMARK    6  A    between atoms: C_20  and  O_21
REMARK    7  A    between atoms: O_21  and  C_22
REMARK    8  A    between atoms: C_22  and  C_24
REMARK                            x       y       z     vdW  Elec       q    Type
REMARK                         _______ _______ _______ _____ _____    ______ ____
ROOT
ATOM      1  N   UNL     1      -8.339   7.064  -1.328  0.00  0.00    -0.174 NA
ATOM      2  C   UNL     1      -7.903   5.661  -1.323  0.00  0.00    +0.128 C 
ATOM      3  C   UNL     1      -6.964   5.443  -0.130  0.00  0.00    +0.125 C 
ATOM      4  N   UNL     1      -5.945   6.502  -0.135  0.00  0.00    -0.296 N 
ATOM      5  C   UNL     1      -6.382   7.906  -0.134  0.00  0.00    +0.125 C 
ATOM      6  C   UNL     1      -7.320   8.123  -1.333  0.00  0.00    +0.128 C 
ATOM      7  C   UNL     1      -4.633   6.192  -0.135  0.00  0.00    +0.253 C 
ATOM      8  O   UNL     1      -4.285   5.030  -0.131  0.00  0.00    -0.272 OA
ENDROOT
BRANCH   1   9
ATOM      9  S   UNL     1      -9.951   7.445  -1.327  0.00  0.00    +0.061 S 
ATOM     10  O   UNL     1     -10.066   8.724  -1.936  0.00  0.00    -0.153 OA
ATOM     11  O   UNL     1     -10.639   6.303  -1.817  0.00  0.00    -0.153 OA
BRANCH   9  16
ATOM     12  C   UNL     1     -11.621   8.123   4.432  0.00  0.00    +0.044 C 
ATOM     13  C   UNL     1     -11.204   7.954   2.994  0.00  0.00    -0.050 A 
ATOM     14  C   UNL     1     -11.142   9.053   2.158  0.00  0.00    +0.005 A 
ATOM     15  C   UNL     1     -10.759   8.898   0.839  0.00  0.00    +0.029 A 
ATOM     16  C   UNL     1     -10.438   7.643   0.355  0.00  0.00    +0.108 A 
ATOM     17  C   UNL     1     -10.505   6.543   1.189  0.00  0.00    -0.024 A 
ATOM     18  C   UNL     1     -10.883   6.699   2.510  0.00  0.00    +0.008 A 
ATOM     19  C   UNL     1     -10.161   5.175   0.661  0.00  0.00    +0.046 C 
ENDBRANCH   9  16
ENDBRANCH   1   9
BRANCH   7  20
ATOM     20  C   UNL     1      -3.600   7.289  -0.140  0.00  0.00    +0.328 C 
BRANCH  20  21
ATOM     21  O   UNL     1      -2.272   6.702  -0.139  0.00  0.00    -0.452 OA
BRANCH  21  22
ATOM     22  C   UNL     1      -1.228   7.552  -0.143  0.00  0.00    +0.340 C 
ATOM     23  O   UNL     1      -1.421   8.751  -0.147  0.00  0.00    -0.245 OA
BRANCH  22  24
ATOM     24  C   UNL     1       0.158   7.025  -0.143  0.00  0.00    +0.073 A 
ATOM     25  C   UNL     1       1.225   7.867  -0.273  0.00  0.00    +0.085 A 
ATOM     26  C   UNL     1       2.579   7.317  -0.269  0.00  0.00    +0.250 A 
ATOM     27  O   UNL     1       3.532   8.067  -0.384  0.00  0.00    -0.268 OA
ATOM     28  N   UNL     1       2.789   5.995  -0.138  0.00  0.00    -0.322 N 
ATOM     29  H   UNL     1       3.698   5.656  -0.138  0.00  0.00    +0.169 HD
ATOM     30  C   UNL     1       1.739   5.113  -0.004  0.00  0.00    +0.050 A 
ATOM     31  C   UNL     1       0.414   5.583  -0.001  0.00  0.00    +0.012 A 
ATOM     32  C   UNL     1      -0.645   4.681   0.135  0.00  0.00    +0.011 A 
ATOM     33  C   UNL     1      -0.388   3.345   0.261  0.00  0.00    +0.001 A 
ATOM     34  C   UNL     1       0.918   2.876   0.264  0.00  0.00    +0.002 A 
ATOM     35  C   UNL     1       1.978   3.747   0.131  0.00  0.00    +0.026 A 
ENDBRANCH  22  24
ENDBRANCH  21  22
ENDBRANCH  20  21
ENDBRANCH   7  20
TORSDOF 6
