REMARK  Name = ZINC06599349
REMARK  3 active torsions:
REMARK  status: ('A' for Active; 'I' for Inactive)
REMARK    1  A    between atoms: N_7  and  N_8
REMARK    2  A    between atoms: N_8  and  P_9
REMARK    3  A    between atoms: N_20  and  N_21
REMARK                            x       y       z     vdW  Elec       q    Type
REMARK                         _______ _______ _______ _____ _____    ______ ____
ROOT
ATOM      1  P   UNL     1       8.113  -2.048   1.975  0.00  0.00    +0.249 P 
ATOM      2  O   UNL     1       8.854  -2.168   3.250  0.00  0.00    -0.289 OA
ATOM      3  C   UNL     1       6.530  -3.022   1.984  0.00  0.00    +0.116 C 
ATOM      4  C   UNL     1       6.430  -3.778   3.304  0.00  0.00    +0.038 C 
ATOM      5  C   UNL     1       5.156  -4.627   3.312  0.00  0.00    +0.003 C 
ATOM      6  C   UNL     1       5.193  -5.611   2.141  0.00  0.00    +0.000 C 
ATOM      7  C   UNL     1       5.271  -4.837   0.823  0.00  0.00    +0.003 C 
ATOM      8  C   UNL     1       6.545  -3.990   0.806  0.00  0.00    +0.038 C 
ATOM      9  N   UNL     1       5.465  -2.041   1.857  0.00  0.00    -0.352 N 
ATOM     10  C   UNL     1       5.468  -0.762   1.743  0.00  0.00    +0.156 C 
ATOM     11  S   UNL     1       7.149  -0.129   1.767  0.00  0.00    -0.008 S 
ATOM     12  N   UNL     1       4.338   0.017   1.625  0.00  0.00    -0.217 N 
ATOM     13  H   UNL     1       4.431   1.109   1.536  0.00  0.00    +0.176 HD
ATOM     14  H   UNL     1       4.512  -2.590   1.870  0.00  0.00    +0.162 HD
ENDROOT
BRANCH  12  15
ATOM     15  N   UNL     1       3.072  -0.582   1.617  0.00  0.00    -0.190 NA
ATOM     16  C   UNL     1       2.029   0.129   1.406  0.00  0.00    +0.037 C 
ATOM     17  C   UNL     1       0.664  -0.512   1.285  0.00  0.00    +0.052 C 
ATOM     18  C   UNL     1       0.004  -0.013  -0.004  0.00  0.00    +0.006 C 
ATOM     19  C   UNL     1      -0.017   1.517  -0.005  0.00  0.00    +0.001 C 
ATOM     20  C   UNL     1       1.415   2.054  -0.017  0.00  0.00    +0.006 C 
ATOM     21  C   UNL     1       2.129   1.632   1.271  0.00  0.00    +0.052 C 
ENDBRANCH  12  15
BRANCH   1  22
ATOM     22  N   UNL     1       9.082  -2.421   0.650  0.00  0.00    -0.177 NA
ATOM     23  H   UNL     1       8.531  -2.489  -0.193  0.00  0.00    +0.153 HD
BRANCH  22  30
ATOM     24  C   UNL     1      13.952  -2.741   0.363  0.00  0.00    +0.039 A 
ATOM     25  C   UNL     1      13.635  -1.395   0.266  0.00  0.00    +0.116 A 
ATOM     26  N   UNL     1      12.366  -1.027   0.316  0.00  0.00    -0.222 NA
ATOM     27  C   UNL     1      11.404  -1.927   0.457  0.00  0.00    +0.229 A 
ATOM     28  N   UNL     1      11.674  -3.220   0.557  0.00  0.00    -0.222 NA
ATOM     29  C   UNL     1      12.922  -3.656   0.509  0.00  0.00    +0.116 A 
ATOM     30  N   UNL     1      10.086  -1.506   0.505  0.00  0.00    -0.243 N 
ATOM     31  H   UNL     1       9.848  -0.435   0.427  0.00  0.00    +0.170 HD
ENDBRANCH  22  30
ENDBRANCH   1  22
TORSDOF 3
