REMARK  Name = ZINC28048832
REMARK  10 active torsions:
REMARK  status: ('A' for Active; 'I' for Inactive)
REMARK    1  A    between atoms: C_1  and  C_2
REMARK    2  A    between atoms: C_2  and  C_3
REMARK    3  A    between atoms: C_3  and  N_4
REMARK    4  A    between atoms: C_13  and  O_14
REMARK    5  A    between atoms: C_15  and  N_16
REMARK    6  A    between atoms: N_19  and  C_20
REMARK    7  A    between atoms: C_23  and  O_28
REMARK    8  A    between atoms: C_25  and  O_26
REMARK    9  A    between atoms: O_26  and  C_27
REMARK   10  A    between atoms: O_28  and  C_29
REMARK                            x       y       z     vdW  Elec       q    Type
REMARK                         _______ _______ _______ _____ _____    ______ ____
ROOT
ATOM      1  N   UNL     1       3.562   3.571  -1.220  0.00  0.00    -0.382 N 
ATOM      2  C   UNL     1       2.377   4.051  -0.697  0.00  0.00    +0.075 A 
ATOM      3  C   UNL     1       1.146   3.246  -0.740  0.00  0.00    +0.042 A 
ATOM      4  C   UNL     1       1.140   1.972  -1.311  0.00  0.00    +0.013 A 
ATOM      5  C   UNL     1      -0.027   1.242  -1.337  0.00  0.00    +0.001 A 
ATOM      6  C   UNL     1      -1.194   1.770  -0.803  0.00  0.00    +0.004 A 
ATOM      7  C   UNL     1      -1.200   3.025  -0.231  0.00  0.00    +0.047 A 
ATOM      8  C   UNL     1      -0.033   3.777  -0.195  0.00  0.00    +0.141 A 
ATOM      9  O   UNL     1      -0.027   5.010   0.358  0.00  0.00    -0.424 OA
ATOM     10  C   UNL     1       1.085   5.760   0.408  0.00  0.00    +0.309 A 
ATOM     11  C   UNL     1       2.309   5.305  -0.115  0.00  0.00    +0.140 A 
ATOM     12  H   UNL     1       4.005   2.646  -0.821  0.00  0.00    +0.160 HD
ENDROOT
BRANCH  11  13
ATOM     13  N   UNL     1       3.455   6.118  -0.046  0.00  0.00    -0.262 N 
ATOM     14  C   UNL     1       3.394   7.404  -0.443  0.00  0.00    +0.308 C 
ATOM     15  O   UNL     1       2.325   7.893  -0.757  0.00  0.00    -0.252 OA
ATOM     16  N   UNL     1       4.516   8.149  -0.491  0.00  0.00    -0.266 N 
ATOM     17  H   UNL     1       4.402   5.703   0.331  0.00  0.00    +0.157 HD
ATOM     18  H   UNL     1       5.493   7.685  -0.292  0.00  0.00    +0.156 HD
BRANCH  16  19
ATOM     19  C   UNL     1       4.438   9.517  -0.797  0.00  0.00    +0.078 A 
ATOM     20  C   UNL     1       3.453   9.981  -1.656  0.00  0.00    +0.050 A 
ATOM     21  C   UNL     1       3.376  11.329  -1.957  0.00  0.00    +0.084 A 
ATOM     22  C   UNL     1       4.284  12.219  -1.399  0.00  0.00    +0.142 A 
ATOM     23  C   UNL     1       5.269  11.758  -0.540  0.00  0.00    +0.094 A 
ATOM     24  C   UNL     1       5.345  10.410  -0.233  0.00  0.00    +0.145 A 
ATOM     25 CL   UNL     1       2.142  11.908  -3.032  0.00  0.00    -0.080 Cl
BRANCH  24  26
ATOM     26  O   UNL     1       6.308   9.958   0.615  0.00  0.00    -0.493 OA
ATOM     27  C   UNL     1       7.204  10.930   1.156  0.00  0.00    +0.277 C 
ENDBRANCH  24  26
BRANCH  22  28
ATOM     28  O   UNL     1       4.206  13.543  -1.697  0.00  0.00    -0.494 OA
ATOM     29  C   UNL     1       5.172  14.403  -1.089  0.00  0.00    +0.277 C 
ENDBRANCH  22  28
ENDBRANCH  16  19
ENDBRANCH  11  13
BRANCH  10  30
ATOM     30  O   UNL     1       1.033   6.865   0.919  0.00  0.00    -0.479 OA
ATOM     31  H   UNL     1       1.935   7.492   0.968  0.00  0.00    +0.295 HD
ENDBRANCH  10  30
BRANCH   1  32
ATOM     32  C   UNL     1       4.056   4.444  -2.293  0.00  0.00    +0.112 C 
BRANCH  32  34
ATOM     33  C   UNL     1       5.881   4.789  -3.964  0.00  0.00    +0.005 C 
ATOM     34  C   UNL     1       5.367   3.880  -2.846  0.00  0.00    +0.017 C 
ENDBRANCH  32  34
ENDBRANCH   1  32
TORSDOF 7
