REMARK  Name = ZINC40720977
REMARK  10 active torsions:
REMARK  status: ('A' for Active; 'I' for Inactive)
REMARK    1  A    between atoms: C_5  and  C_7
REMARK    2  A    between atoms: C_7  and  O_8
REMARK    3  A    between atoms: O_8  and  C_9
REMARK    4  A    between atoms: C_14  and  C_15
REMARK    5  A    between atoms: C_15  and  N_16
REMARK    6  A    between atoms: N_16  and  C_17
REMARK    7  A    between atoms: C_17  and  C_18
REMARK    8  A    between atoms: C_18  and  C_19
REMARK    9  A    between atoms: C_19  and  C_20
REMARK   10  A    between atoms: C_20  and  O_21
REMARK                            x       y       z     vdW  Elec       q    Type
REMARK                         _______ _______ _______ _____ _____    ______ ____
ROOT
ATOM      1  C   UNL     1      -0.272  -4.030  -0.017  0.00  0.00    +0.122 A 
ATOM      2  C   UNL     1       0.839  -4.861  -0.027  0.00  0.00    +0.047 A 
ATOM      3  C   UNL     1       0.674  -6.233  -0.033  0.00  0.00    +0.019 A 
ATOM      4  C   UNL     1      -0.598  -6.778  -0.029  0.00  0.00    +0.018 A 
ATOM      5  C   UNL     1      -1.706  -5.951  -0.020  0.00  0.00    +0.020 A 
ATOM      6  C   UNL     1      -1.546  -4.579  -0.007  0.00  0.00    -0.022 A 
ATOM      7 BR   UNL     1      -0.820  -8.655  -0.038  0.00  0.00    -0.050 Br
ENDROOT
BRANCH   1   8
ATOM      8  O   UNL     1      -0.112  -2.680  -0.011  0.00  0.00    -0.487 OA
BRANCH   8   9
ATOM      9  C   UNL     1       1.229  -2.186  -0.022  0.00  0.00    +0.266 C 
BRANCH   9  14
ATOM     10  C   UNL     1      -0.017   1.378   0.010  0.00  0.00    +0.000 A 
ATOM     11  C   UNL     1       1.171   2.086   0.002  0.00  0.00    +0.001 A 
ATOM     12  C   UNL     1       2.377   1.412  -0.013  0.00  0.00    +0.020 A 
ATOM     13  C   UNL     1       2.397   0.029  -0.021  0.00  0.00    +0.047 A 
ATOM     14  C   UNL     1       1.208  -0.679  -0.013  0.00  0.00    +0.008 A 
ATOM     15  C   UNL     1       0.002  -0.004   0.002  0.00  0.00    +0.008 A 
ATOM     16 CL   UNL     1       3.912  -0.818  -0.041  0.00  0.00    -0.083 Cl
ENDBRANCH   9  14
ENDBRANCH   8   9
ENDBRANCH   1   8
BRANCH   6  17
ATOM     17  C   UNL     1      -2.754  -3.678   0.011  0.00  0.00    -0.043 C 
BRANCH  17  18
ATOM     18  N   UNL     1      -3.017  -3.185  -1.348  0.00  0.00    +0.382 N 
ATOM     19  H   UNL     1      -2.217  -2.667  -1.678  0.00  0.00    -0.085 HD
ATOM     20  H   UNL     1      -3.189  -3.966  -1.962  0.00  0.00    -0.085 HD
BRANCH  18  21
ATOM     21  C   UNL     1      -4.195  -2.307  -1.330  0.00  0.00    -0.082 C 
BRANCH  21  22
ATOM     22  C   UNL     1      -4.469  -1.793  -2.745  0.00  0.00    -0.017 C 
BRANCH  22  23
ATOM     23  C   UNL     1      -5.696  -0.879  -2.727  0.00  0.00    +0.026 C 
BRANCH  23  24
ATOM     24  C   UNL     1      -5.970  -0.365  -4.142  0.00  0.00    +0.156 C 
BRANCH  24  25
ATOM     25  O   UNL     1      -7.116   0.489  -4.125  0.00  0.00    -0.395 OA
ATOM     26  H   UNL     1      -7.348   0.852  -4.990  0.00  0.00    +0.209 HD
ENDBRANCH  24  25
ENDBRANCH  23  24
ENDBRANCH  22  23
ENDBRANCH  21  22
ENDBRANCH  18  21
ENDBRANCH  17  18
ENDBRANCH   6  17
TORSDOF 10
