REMARK  Name = ZINC38550250
REMARK  17 active torsions:
REMARK  status: ('A' for Active; 'I' for Inactive)
REMARK    1  A    between atoms: C_1  and  C_2
REMARK    2  A    between atoms: C_2  and  C_4
REMARK    3  A    between atoms: C_2  and  N_10
REMARK    4  A    between atoms: C_4  and  C_5
REMARK    5  A    between atoms: C_5  and  C_6
REMARK    6  A    between atoms: C_6  and  C_7
REMARK    7  A    between atoms: C_7  and  C_8
REMARK    8  A    between atoms: C_7  and  C_9
REMARK    9  A    between atoms: N_10  and  C_11
REMARK   10  A    between atoms: C_19  and  N_35
REMARK   11  A    between atoms: C_25  and  O_33
REMARK   12  A    between atoms: C_26  and  O_31
REMARK   13  A    between atoms: C_27  and  O_29
REMARK   14  A    between atoms: O_29  and  C_30
REMARK   15  A    between atoms: O_31  and  C_32
REMARK   16  A    between atoms: O_33  and  C_34
REMARK   17  A    between atoms: N_35  and  C_36
REMARK                            x       y       z     vdW  Elec       q    Type
REMARK                         _______ _______ _______ _____ _____    ______ ____
ROOT
ATOM      1  C   UNL     1       2.021  -0.997   1.127  0.00  0.00    +0.075 A 
ATOM      2  C   UNL     1       2.647  -0.591  -0.014  0.00  0.00    +0.027 A 
ATOM      3  C   UNL     1       3.960  -0.617  -0.308  0.00  0.00    +0.011 A 
ATOM      4  C   UNL     1       5.066  -1.005   0.405  0.00  0.00    -0.012 A 
ATOM      5  C   UNL     1       5.078  -1.469   1.719  0.00  0.00    -0.050 A 
ATOM      6  C   UNL     1       3.988  -1.695   2.474  0.00  0.00    +0.055 A 
ATOM      7  C   UNL     1       2.652  -1.525   2.250  0.00  0.00    +0.200 A 
ATOM      8  O   UNL     1       1.912  -1.890   3.154  0.00  0.00    -0.286 OA
ATOM      9  C   UNL     1       6.417  -1.734   2.377  0.00  0.00    -0.040 C 
ATOM     10  C   UNL     1       6.994  -3.069   1.954  0.00  0.00    -0.007 C 
ATOM     11  C   UNL     1       6.862  -3.271   0.447  0.00  0.00    +0.035 C 
ATOM     12  C   UNL     1       7.255  -2.006  -0.273  0.00  0.00    -0.033 A 
ATOM     13  C   UNL     1       6.381  -0.923  -0.298  0.00  0.00    +0.031 A 
ATOM     14  C   UNL     1       6.730   0.248  -0.977  0.00  0.00    +0.173 A 
ATOM     15  C   UNL     1       7.959   0.324  -1.619  0.00  0.00    +0.204 A 
ATOM     16  C   UNL     1       8.831  -0.759  -1.581  0.00  0.00    +0.165 A 
ATOM     17  C   UNL     1       8.476  -1.921  -0.908  0.00  0.00    +0.054 A 
ENDROOT
BRANCH   9  18
ATOM     18  N   UNL     1       6.242  -1.730   3.836  0.00  0.00    +0.382 N 
ATOM     19  C   UNL     1       7.556  -1.829   4.487  0.00  0.00    -0.100 C 
ATOM     20  H   UNL     1       5.791  -0.873   4.119  0.00  0.00    -0.085 HD
ATOM     21  H   UNL     1       5.672  -2.517   4.109  0.00  0.00    -0.085 HD
ENDBRANCH   9  18
BRANCH   1  22
ATOM     22  N   UNL     1       0.643  -0.868   1.175  0.00  0.00    -0.338 N 
ATOM     23  H   UNL     1       0.167  -1.057   1.998  0.00  0.00    +0.146 HD
BRANCH  22  25
ATOM     24  C   UNL     1      -0.157   1.080  -0.068  0.00  0.00    +0.028 C 
ATOM     25  C   UNL     1      -0.095  -0.448  -0.019  0.00  0.00    +0.067 C 
BRANCH  25  26
ATOM     26  C   UNL     1      -1.515  -1.015   0.034  0.00  0.00    +0.022 C 
BRANCH  26  27
ATOM     27  C   UNL     1      -1.458  -2.542  -0.043  0.00  0.00    +0.002 C 
BRANCH  27  28
ATOM     28  C   UNL     1      -2.878  -3.109   0.009  0.00  0.00    +0.003 C 
BRANCH  28  29
ATOM     29  C   UNL     1      -2.821  -4.636  -0.067  0.00  0.00    -0.017 C 
ATOM     30  C   UNL     1      -4.228  -5.208   0.110  0.00  0.00    +0.007 C 
ATOM     31  C   UNL     1      -2.267  -5.057  -1.430  0.00  0.00    +0.007 C 
ENDBRANCH  28  29
ENDBRANCH  27  28
ENDBRANCH  26  27
ENDBRANCH  25  26
ENDBRANCH  22  25
ENDBRANCH   1  22
BRANCH  16  32
ATOM     32  O   UNL     1      10.035  -0.680  -2.206  0.00  0.00    -0.491 OA
ATOM     33  C   UNL     1      10.882  -1.828  -2.129  0.00  0.00    +0.277 C 
ENDBRANCH  16  32
BRANCH  15  34
ATOM     34  O   UNL     1       8.311   1.458  -2.285  0.00  0.00    -0.488 OA
ATOM     35  C   UNL     1       7.859   1.583  -3.635  0.00  0.00    +0.277 C 
ENDBRANCH  15  34
BRANCH  14  36
ATOM     36  O   UNL     1       5.874   1.302  -1.009  0.00  0.00    -0.491 OA
ATOM     37  C   UNL     1       5.924   2.213   0.091  0.00  0.00    +0.277 C 
ENDBRANCH  14  36
TORSDOF 10
