REMARK  Name = ZINC33960591
REMARK  10 active torsions:
REMARK  status: ('A' for Active; 'I' for Inactive)
REMARK    1  A    between atoms: C_1  and  C_2
REMARK    2  A    between atoms: C_5  and  C_25
REMARK    3  A    between atoms: C_6  and  C_7
REMARK    4  A    between atoms: C_6  and  C_8
REMARK    5  A    between atoms: N_11  and  O_12
REMARK    6  A    between atoms: O_12  and  C_13
REMARK    7  A    between atoms: C_13  and  C_15
REMARK    8  A    between atoms: C_19  and  N_21
REMARK    9  A    between atoms: N_27  and  C_28
REMARK   10  A    between atoms: C_33  and  N_34
REMARK                            x       y       z     vdW  Elec       q    Type
REMARK                         _______ _______ _______ _____ _____    ______ ____
ROOT
ATOM      1  C   UNL     1      -0.087   1.514   0.025  0.00  0.00    +0.018 C 
ATOM      2  C   UNL     1      -0.056  -0.015   0.016  0.00  0.00    +0.015 C 
ATOM      3  C   UNL     1      -1.443  -0.723   0.095  0.00  0.00    +0.014 C 
ATOM      4  C   UNL     1      -1.123  -2.155   0.582  0.00  0.00    +0.018 C 
ATOM      5  C   UNL     1       0.429  -2.174   0.742  0.00  0.00    +0.058 C 
ATOM      6  C   UNL     1       0.688  -0.699   1.216  0.00  0.00    -0.010 C 
ATOM      7  C   UNL     1       2.179  -0.356   1.238  0.00  0.00    +0.013 C 
ATOM      8  C   UNL     1       0.015  -0.399   2.557  0.00  0.00    +0.013 C 
ATOM      9  C   UNL     1       0.968  -2.094  -0.719  0.00  0.00    +0.071 C 
ATOM     10  C   UNL     1       0.661  -0.664  -1.177  0.00  0.00    +0.066 C 
ATOM     11  N   UNL     1       0.924  -0.128  -2.308  0.00  0.00    -0.083 NA
ENDROOT
BRANCH   5  12
ATOM     12  C   UNL     1       0.992  -3.267   1.614  0.00  0.00    +0.224 C 
ATOM     13  O   UNL     1       1.620  -2.983   2.612  0.00  0.00    -0.275 OA
ATOM     14  N   UNL     1       0.797  -4.559   1.284  0.00  0.00    -0.283 N 
ATOM     15  H   UNL     1       0.241  -4.787   0.523  0.00  0.00    +0.155 HD
BRANCH  14  16
ATOM     16  C   UNL     1       1.398  -5.572   2.039  0.00  0.00    +0.064 A 
ATOM     17  C   UNL     1       1.548  -5.421   3.412  0.00  0.00    +0.025 A 
ATOM     18  C   UNL     1       2.141  -6.422   4.155  0.00  0.00    +0.002 A 
ATOM     19  C   UNL     1       2.587  -7.575   3.534  0.00  0.00    +0.002 A 
ATOM     20  C   UNL     1       2.440  -7.728   2.167  0.00  0.00    +0.034 A 
ATOM     21  C   UNL     1       1.841  -6.733   1.419  0.00  0.00    +0.147 A 
BRANCH  21  22
ATOM     22  N   UNL     1       1.678  -6.901  -0.042  0.00  0.00    +0.058 N 
ATOM     23  O   UNL     1       1.974  -7.949  -0.567  0.00  0.00    -0.126 OA
ATOM     24  O   UNL     1       1.248  -5.990  -0.711  0.00  0.00    -0.126 OA
ENDBRANCH  21  22
ENDBRANCH  14  16
ENDBRANCH   5  12
BRANCH  11  25
ATOM     25  O   UNL     1       1.599  -0.874  -3.305  0.00  0.00    -0.312 OA
BRANCH  25  26
ATOM     26  C   UNL     1       1.814  -0.193  -4.448  0.00  0.00    +0.366 C 
ATOM     27  O   UNL     1       1.437   0.957  -4.549  0.00  0.00    -0.243 OA
BRANCH  26  28
ATOM     28  C   UNL     1       2.507  -0.846  -5.576  0.00  0.00    +0.064 A 
ATOM     29  C   UNL     1       2.937  -2.170  -5.465  0.00  0.00    +0.016 A 
ATOM     30  C   UNL     1       3.584  -2.773  -6.522  0.00  0.00    +0.023 A 
ATOM     31  C   UNL     1       3.809  -2.069  -7.693  0.00  0.00    +0.071 A 
ATOM     32  C   UNL     1       3.385  -0.755  -7.810  0.00  0.00    +0.145 A 
ATOM     33  C   UNL     1       2.731  -0.143  -6.762  0.00  0.00    +0.049 A 
ATOM     34 CL   UNL     1       4.625  -2.835  -9.020  0.00  0.00    -0.081 Cl
BRANCH  32  35
ATOM     35  N   UNL     1       3.629  -0.009  -9.065  0.00  0.00    +0.058 N 
ATOM     36  O   UNL     1       3.260   1.137  -9.169  0.00  0.00    -0.126 OA
ATOM     37  O   UNL     1       4.198  -0.547  -9.987  0.00  0.00    -0.126 OA
ENDBRANCH  32  35
ENDBRANCH  26  28
ENDBRANCH  25  26
ENDBRANCH  11  25
TORSDOF 7
