REMARK  Name = ZINC36660403
REMARK  12 active torsions:
REMARK  status: ('A' for Active; 'I' for Inactive)
REMARK    1  A    between atoms: C_1  and  N_2
REMARK    2  A    between atoms: N_2  and  C_3
REMARK    3  A    between atoms: N_2  and  C_4
REMARK    4  A    between atoms: C_4  and  C_5
REMARK    5  A    between atoms: C_5  and  N_6
REMARK    6  A    between atoms: C_12  and  O_16
REMARK    7  A    between atoms: O_16  and  C_17
REMARK    8  A    between atoms: C_18  and  C_20
REMARK    9  A    between atoms: N_25  and  S_26
REMARK   10  A    between atoms: S_26  and  C_29
REMARK   11  A    between atoms: C_32  and  O_35
REMARK   12  A    between atoms: O_35  and  C_36
REMARK                            x       y       z     vdW  Elec       q    Type
REMARK                         _______ _______ _______ _____ _____    ______ ____
ROOT
ATOM      1  N   UNL     1       0.782  -0.848   3.389  0.00  0.00    -0.251 N 
ATOM      2  C   UNL     1       1.948  -0.315   3.917  0.00  0.00    +0.168 A 
ATOM      3  N   UNL     1       2.550   0.810   3.611  0.00  0.00    -0.224 NA
ATOM      4  C   UNL     1       3.692   1.210   4.213  0.00  0.00    +0.081 A 
ATOM      5  C   UNL     1       4.436   2.389   3.977  0.00  0.00    +0.032 A 
ATOM      6  C   UNL     1       5.583   2.648   4.679  0.00  0.00    +0.048 A 
ATOM      7  C   UNL     1       6.057   1.766   5.646  0.00  0.00    +0.121 A 
ATOM      8  C   UNL     1       5.351   0.600   5.903  0.00  0.00    +0.063 A 
ATOM      9  C   UNL     1       4.201   0.337   5.202  0.00  0.00    +0.044 A 
ATOM     10  S   UNL     1       3.006  -0.979   5.195  0.00  0.00    -0.052 S 
ATOM     11  C   UNL     1       0.387  -2.087   3.745  0.00  0.00    +0.240 C 
ATOM     12  O   UNL     1      -0.668  -2.527   3.339  0.00  0.00    -0.273 OA
ENDROOT
BRANCH  11  13
ATOM     13  C   UNL     1       1.256  -2.925   4.647  0.00  0.00    +0.166 C 
ATOM     14  C   UNL     1       0.986  -2.561   6.123  0.00  0.00    +0.031 C 
ATOM     15  C   UNL     1      -0.020  -3.653   6.572  0.00  0.00    +0.019 C 
ATOM     16  C   UNL     1       0.486  -4.886   5.782  0.00  0.00    +0.110 C 
ATOM     17  N   UNL     1       0.926  -4.348   4.479  0.00  0.00    -0.165 NA
BRANCH  17  18
ATOM     18  S   UNL     1       1.028  -5.201   3.063  0.00  0.00    +0.062 S 
ATOM     19  O   UNL     1       0.133  -6.298   3.184  0.00  0.00    -0.153 OA
ATOM     20  O   UNL     1       0.931  -4.252   2.009  0.00  0.00    -0.153 OA
BRANCH  18  21
ATOM     21  C   UNL     1       2.651  -5.881   2.981  0.00  0.00    +0.106 A 
ATOM     22  C   UNL     1       3.672  -5.161   2.388  0.00  0.00    +0.032 A 
ATOM     23  C   UNL     1       4.945  -5.693   2.322  0.00  0.00    +0.047 A 
ATOM     24  C   UNL     1       5.199  -6.950   2.851  0.00  0.00    +0.120 A 
ATOM     25  C   UNL     1       4.173  -7.670   3.445  0.00  0.00    +0.047 A 
ATOM     26  C   UNL     1       2.903  -7.132   3.514  0.00  0.00    +0.032 A 
BRANCH  24  27
ATOM     27  O   UNL     1       6.451  -7.475   2.786  0.00  0.00    -0.495 OA
ATOM     28  C   UNL     1       6.639  -8.774   3.352  0.00  0.00    +0.277 C 
ENDBRANCH  24  27
ENDBRANCH  18  21
ENDBRANCH  17  18
ENDBRANCH  11  13
BRANCH   7  29
ATOM     29  O   UNL     1       7.199   2.043   6.330  0.00  0.00    -0.495 OA
ATOM     30  C   UNL     1       7.868   3.264   6.007  0.00  0.00    +0.277 C 
ENDBRANCH   7  29
BRANCH   1  31
ATOM     31  C   UNL     1      -0.019  -0.067   2.445  0.00  0.00    +0.097 C 
BRANCH  31  32
ATOM     32  C   UNL     1       0.378  -0.434   1.013  0.00  0.00    -0.060 C 
BRANCH  32  34
ATOM     33  C   UNL     1      -0.300   1.706   0.168  0.00  0.00    -0.097 C 
ATOM     34  N   UNL     1      -0.509   0.256   0.067  0.00  0.00    +0.377 N 
ATOM     35  C   UNL     1      -0.207  -0.188  -1.300  0.00  0.00    -0.097 C 
ATOM     36  H   UNL     1      -1.470   0.039   0.287  0.00  0.00    -0.083 HD
ENDBRANCH  32  34
ENDBRANCH  31  32
ENDBRANCH   1  31
TORSDOF 8
