REMARK  Name = ZINC40862288
REMARK  7 active torsions:
REMARK  status: ('A' for Active; 'I' for Inactive)
REMARK    1  A    between atoms: C_1  and  C_2
REMARK    2  A    between atoms: C_2  and  C_3
REMARK    3  A    between atoms: C_2  and  N_4
REMARK    4  A    between atoms: C_7  and  C_10
REMARK    5  A    between atoms: C_10  and  N_11
REMARK    6  A    between atoms: N_11  and  S_12
REMARK    7  A    between atoms: S_12  and  N_15
REMARK                            x       y       z     vdW  Elec       q    Type
REMARK                         _______ _______ _______ _____ _____    ______ ____
ROOT
ATOM      1  N   UNL     1      -0.178  -2.204   5.549  0.00  0.00    -0.180 NA
ATOM      2  H   UNL     1       0.657  -2.685   5.439  0.00  0.00    +0.149 HD
ENDROOT
BRANCH   1   3
ATOM      3  S   UNL     1      -1.069  -2.398   6.931  0.00  0.00    +0.097 S 
ATOM      4  O   UNL     1      -0.371  -3.339   7.735  0.00  0.00    -0.141 OA
ATOM      5  O   UNL     1      -1.394  -1.094   7.392  0.00  0.00    -0.141 OA
BRANCH   3   6
ATOM      6  N   UNL     1      -2.497  -3.115   6.496  0.00  0.00    -0.170 NA
ATOM      7  C   UNL     1      -3.666  -2.306   6.117  0.00  0.00    +0.091 C 
ATOM      8  C   UNL     1      -4.207  -2.828   4.782  0.00  0.00    -0.065 C 
ATOM      9  N   UNL     1      -4.477  -4.267   4.894  0.00  0.00    +0.381 N 
ATOM     10  C   UNL     1      -3.223  -4.995   5.124  0.00  0.00    -0.065 C 
ATOM     11  C   UNL     1      -2.631  -4.580   6.471  0.00  0.00    +0.091 C 
ATOM     12  H   UNL     1      -5.106  -4.431   5.666  0.00  0.00    -0.086 HD
ATOM     13  H   UNL     1      -4.903  -4.595   4.041  0.00  0.00    -0.086 HD
ENDBRANCH   3   6
ENDBRANCH   1   3
BRANCH   1  14
ATOM     14  C   UNL     1      -0.650  -1.305   4.493  0.00  0.00    +0.108 C 
BRANCH  14  18
ATOM     15  N   UNL     1       0.713  -0.491   1.192  0.00  0.00    +0.381 N 
ATOM     16  C   UNL     1       0.638  -1.972   1.272  0.00  0.00    -0.078 C 
ATOM     17  C   UNL     1       0.891  -2.295   2.760  0.00  0.00    -0.016 C 
ATOM     18  C   UNL     1       0.495  -1.013   3.522  0.00  0.00    -0.014 C 
ATOM     19  C   UNL     1       0.035  -0.024   2.429  0.00  0.00    -0.074 C 
ATOM     20  H   UNL     1       1.674  -0.184   1.179  0.00  0.00    -0.081 HD
BRANCH  15  22
ATOM     21  C   UNL     1      -0.019   1.526   0.010  0.00  0.00    -0.014 C 
ATOM     22  C   UNL     1       0.002  -0.004   0.002  0.00  0.00    -0.075 C 
ATOM     23  C   UNL     1       0.718  -0.497  -1.257  0.00  0.00    -0.014 C 
ENDBRANCH  15  22
ENDBRANCH  14  18
ENDBRANCH   1  14
TORSDOF 5
