REMARK  Name = ZINC55305365
REMARK  5 active torsions:
REMARK  status: ('A' for Active; 'I' for Inactive)
REMARK    1  A    between atoms: C_1  and  N_2
REMARK    2  A    between atoms: C_5  and  C_8
REMARK    3  A    between atoms: C_5  and  N_12
REMARK    4  A    between atoms: N_9  and  O_10
REMARK    5  A    between atoms: C_13  and  C_15
REMARK                            x       y       z     vdW  Elec       q    Type
REMARK                         _______ _______ _______ _____ _____    ______ ____
ROOT
ATOM      1  C   UNL     1      -0.013   1.422   0.565  0.00  0.00    -0.096 C 
ATOM      2  N   UNL     1       0.008  -0.034   0.369  0.00  0.00    +0.378 N 
ATOM      3  C   UNL     1       0.646  -0.344  -0.916  0.00  0.00    -0.077 C 
ATOM      4  C   UNL     1       0.598  -1.853  -1.163  0.00  0.00    +0.015 C 
ATOM      5  C   UNL     1       1.341  -2.573  -0.034  0.00  0.00    +0.089 C 
ATOM      6  C   UNL     1       0.713  -2.184   1.307  0.00  0.00    +0.015 C 
ATOM      7  C   UNL     1       0.757  -0.662   1.463  0.00  0.00    -0.077 C 
ATOM      8  H   UNL     1      -0.938  -0.385   0.365  0.00  0.00    -0.082 HD
ENDROOT
BRANCH   5   9
ATOM      9  C   UNL     1       1.231  -4.064  -0.229  0.00  0.00    +0.155 C 
ATOM     10  N   UNL     1       0.494  -4.538  -1.178  0.00  0.00    -0.075 NA
ATOM     11  N   UNL     1       1.915  -4.920   0.605  0.00  0.00    -0.342 N 
ATOM     12  H   UNL     1       2.409  -4.568   1.363  0.00  0.00    +0.144 HD
ATOM     13  H   UNL     1       1.904  -5.875   0.436  0.00  0.00    +0.144 HD
BRANCH  10  14
ATOM     14  O   UNL     1       0.390  -5.939  -1.361  0.00  0.00    -0.408 OA
ATOM     15  H   UNL     1      -0.183  -6.198  -2.095  0.00  0.00    +0.328 HD
ENDBRANCH  10  14
ENDBRANCH   5   9
BRANCH   5  16
ATOM     16  N   UNL     1       2.752  -2.179  -0.047  0.00  0.00    -0.301 N 
ATOM     17  C   UNL     1       3.520  -2.459  -1.119  0.00  0.00    +0.245 C 
ATOM     18  O   UNL     1       3.069  -3.115  -2.034  0.00  0.00    -0.273 OA
ATOM     19  H   UNL     1       3.134  -1.717   0.716  0.00  0.00    +0.150 HD
BRANCH  17  20
ATOM     20  C   UNL     1       4.940  -1.958  -1.180  0.00  0.00    +0.229 C 
ATOM     21  C   UNL     1       5.766  -2.623  -0.075  0.00  0.00    +0.201 C 
ATOM     22  O   UNL     1       7.134  -2.228  -0.209  0.00  0.00    -0.374 OA
ATOM     23  C   UNL     1       7.702  -2.555  -1.481  0.00  0.00    +0.188 C 
ATOM     24  C   UNL     1       6.877  -1.889  -2.586  0.00  0.00    +0.189 C 
ATOM     25  O   UNL     1       5.508  -2.283  -2.452  0.00  0.00    -0.363 OA
ENDBRANCH  17  20
ENDBRANCH   5  16
TORSDOF 4
