REMARK  Name = ZINC31457780
REMARK  9 active torsions:
REMARK  status: ('A' for Active; 'I' for Inactive)
REMARK    1  A    between atoms: C_1  and  C_2
REMARK    2  A    between atoms: C_12  and  C_16
REMARK    3  A    between atoms: N_18  and  C_19
REMARK    4  A    between atoms: C_22  and  C_25
REMARK    5  A    between atoms: N_27  and  C_28
REMARK    6  A    between atoms: C_28  and  C_29
REMARK    7  A    between atoms: C_29  and  N_30
REMARK    8  A    between atoms: N_30  and  C_31
REMARK    9  A    between atoms: N_30  and  C_32
REMARK                            x       y       z     vdW  Elec       q    Type
REMARK                         _______ _______ _______ _____ _____    ______ ____
ROOT
ATOM      1  C   UNL     1       0.552  -6.707   2.265  0.00  0.00    +0.250 C 
ATOM      2  O   UNL     1      -0.399  -6.808   1.514  0.00  0.00    -0.270 OA
ATOM      3  N   UNL     1       1.047  -7.801   2.876  0.00  0.00    -0.281 N 
ATOM      4  H   UNL     1       1.845  -7.732   3.423  0.00  0.00    +0.155 HD
ENDROOT
BRANCH   1  15
ATOM      5  C   UNL     1      -0.015   1.525   0.006  0.00  0.00    +0.008 C 
ATOM      6  C   UNL     1       0.001  -0.005   0.000  0.00  0.00    -0.009 C 
ATOM      7  C   UNL     1      -1.437  -0.531   0.025  0.00  0.00    +0.009 C 
ATOM      8  C   UNL     1      -1.431  -2.042  -0.232  0.00  0.00    +0.054 C 
ATOM      9  C   UNL     1      -0.430  -2.685   0.699  0.00  0.00    +0.020 A 
ATOM     10  C   UNL     1       0.535  -2.002   1.350  0.00  0.00    -0.019 A 
ATOM     11  C   UNL     1       1.279  -2.964   2.137  0.00  0.00    +0.004 A 
ATOM     12  C   UNL     1       2.373  -2.842   2.999  0.00  0.00    +0.010 A 
ATOM     13  C   UNL     1       2.838  -4.001   3.598  0.00  0.00    +0.001 A 
ATOM     14  C   UNL     1       2.259  -5.232   3.366  0.00  0.00    +0.015 A 
ATOM     15  C   UNL     1       1.163  -5.387   2.508  0.00  0.00    +0.061 A 
ATOM     16  C   UNL     1       0.674  -4.222   1.887  0.00  0.00    +0.059 A 
ATOM     17  N   UNL     1      -0.350  -4.016   1.018  0.00  0.00    -0.357 N 
ATOM     18  H   UNL     1      -0.937  -4.708   0.673  0.00  0.00    +0.166 HD
ATOM     19  C   UNL     1       0.750  -0.514   1.237  0.00  0.00    +0.040 C 
ENDBRANCH   1  15
BRANCH   3  20
ATOM     20  C   UNL     1       0.412  -9.032   2.723  0.00  0.00    +0.034 A 
ATOM     21  C   UNL     1       0.375  -9.931   3.785  0.00  0.00    +0.024 A 
ATOM     22  C   UNL     1      -0.251 -11.148   3.637  0.00  0.00    +0.015 A 
ATOM     23  C   UNL     1      -0.851 -11.480   2.419  0.00  0.00    +0.037 A 
ATOM     24  C   UNL     1      -0.813 -10.574   1.355  0.00  0.00    +0.015 A 
ATOM     25  C   UNL     1      -0.190  -9.357   1.511  0.00  0.00    +0.024 A 
BRANCH  23  26
ATOM     26  C   UNL     1      -1.524 -12.784   2.257  0.00  0.00    +0.244 C 
ATOM     27  O   UNL     1      -1.556 -13.570   3.183  0.00  0.00    -0.270 OA
ATOM     28  N   UNL     1      -2.102 -13.102   1.081  0.00  0.00    -0.313 N 
ATOM     29  H   UNL     1      -2.076 -12.474   0.343  0.00  0.00    +0.149 HD
BRANCH  28  30
ATOM     30  C   UNL     1      -2.769 -14.396   0.920  0.00  0.00    +0.086 C 
BRANCH  30  31
ATOM     31  C   UNL     1      -3.337 -14.504  -0.496  0.00  0.00    -0.061 C 
BRANCH  31  32
ATOM     32  N   UNL     1      -4.006 -15.802  -0.658  0.00  0.00    +0.377 N 
ATOM     33  C   UNL     1      -4.654 -15.858  -1.975  0.00  0.00    -0.097 C 
ATOM     34  C   UNL     1      -3.014 -16.881  -0.553  0.00  0.00    -0.097 C 
ATOM     35  H   UNL     1      -4.702 -15.914   0.064  0.00  0.00    -0.083 HD
ENDBRANCH  31  32
ENDBRANCH  30  31
ENDBRANCH  28  30
ENDBRANCH  23  26
ENDBRANCH   3  20
TORSDOF 6
