REMARK  Name = ZINC05945301
REMARK  14 active torsions:
REMARK  status: ('A' for Active; 'I' for Inactive)
REMARK    1  A    between atoms: C_1  and  C_2
REMARK    2  A    between atoms: C_2  and  C_32
REMARK    3  A    between atoms: C_4  and  N_10
REMARK    4  A    between atoms: C_6  and  C_8
REMARK    5  A    between atoms: C_6  and  C_9
REMARK    6  A    between atoms: N_10  and  C_11
REMARK    7  A    between atoms: N_10  and  C_19
REMARK    8  A    between atoms: C_11  and  C_12
REMARK    9  A    between atoms: C_19  and  N_21
REMARK   10  A    between atoms: N_21  and  C_22
REMARK   11  A    between atoms: C_24  and  O_30
REMARK   12  A    between atoms: C_26  and  O_28
REMARK   13  A    between atoms: O_28  and  C_29
REMARK   14  A    between atoms: O_30  and  C_31
REMARK                            x       y       z     vdW  Elec       q    Type
REMARK                         _______ _______ _______ _____ _____    ______ ____
ROOT
ATOM      1  N   UNL     1       2.848  -0.680  -2.674  0.00  0.00    -0.305 N 
ENDROOT
BRANCH   1   5
ATOM      2  C   UNL     1       1.331   2.442   0.037  0.00  0.00    -0.010 C 
ATOM      3  C   UNL     1       1.060   0.949   0.251  0.00  0.00    -0.072 C 
ATOM      4  C   UNL     1       1.230   0.201  -1.067  0.00  0.00    +0.009 C 
ATOM      5  C   UNL     1       2.712   0.070  -1.419  0.00  0.00    +0.073 C 
ATOM      6  C   UNL     1       3.402  -0.702  -0.293  0.00  0.00    +0.009 C 
ATOM      7  C   UNL     1       3.249   0.039   1.031  0.00  0.00    -0.072 C 
ATOM      8  N   UNL     1       1.877   0.413   1.326  0.00  0.00    +0.386 N 
ATOM      9  C   UNL     1       4.175   1.259   1.052  0.00  0.00    -0.010 C 
ATOM     10  C   UNL     1       3.728  -0.913   2.151  0.00  0.00    -0.010 C 
ATOM     11  C   UNL     1      -0.421   0.812   0.672  0.00  0.00    -0.010 C 
ATOM     12  H   UNL     1       1.887   1.094   2.091  0.00  0.00    -0.084 HD
ATOM     13  H   UNL     1       1.398  -0.407   1.713  0.00  0.00    -0.084 HD
ENDBRANCH   1   5
BRANCH   1  14
ATOM     14  C   UNL     1       2.391  -1.946  -2.755  0.00  0.00    +0.138 C 
ATOM     15  S   UNL     1       1.578  -2.650  -1.423  0.00  0.00    -0.018 S 
BRANCH  14  16
ATOM     16  N   UNL     1       2.574  -2.656  -3.886  0.00  0.00    -0.297 N 
ATOM     17  H   UNL     1       3.218  -3.381  -3.904  0.00  0.00    +0.154 HD
BRANCH  16  18
ATOM     18  C   UNL     1       1.834  -2.348  -5.033  0.00  0.00    +0.040 A 
ATOM     19  C   UNL     1       0.916  -1.308  -5.008  0.00  0.00    +0.069 A 
ATOM     20  C   UNL     1       0.183  -1.003  -6.145  0.00  0.00    +0.125 A 
ATOM     21  C   UNL     1       0.368  -1.738  -7.307  0.00  0.00    +0.091 A 
ATOM     22  C   UNL     1       1.286  -2.778  -7.332  0.00  0.00    +0.125 A 
ATOM     23  C   UNL     1       2.023  -3.080  -6.198  0.00  0.00    +0.069 A 
BRANCH  22  24
ATOM     24  O   UNL     1       1.466  -3.498  -8.471  0.00  0.00    -0.495 OA
ATOM     25  C   UNL     1       0.676  -3.129  -9.603  0.00  0.00    +0.277 C 
ENDBRANCH  22  24
BRANCH  20  26
ATOM     26  O   UNL     1      -0.716   0.015  -6.122  0.00  0.00    -0.495 OA
ATOM     27  C   UNL     1      -1.435   0.274  -7.329  0.00  0.00    +0.277 C 
ENDBRANCH  20  26
ENDBRANCH  16  18
ENDBRANCH  14  16
ENDBRANCH   1  14
BRANCH   1  28
ATOM     28  C   UNL     1       3.480  -0.053  -3.837  0.00  0.00    +0.145 C 
BRANCH  28  29
ATOM     29  C   UNL     1       4.978  -0.158  -3.712  0.00  0.00    +0.005 A 
ATOM     30  C   UNL     1       5.706   0.906  -3.212  0.00  0.00    +0.008 A 
ATOM     31  C   UNL     1       7.080   0.810  -3.097  0.00  0.00    +0.000 A 
ATOM     32  C   UNL     1       7.728  -0.350  -3.482  0.00  0.00    +0.003 A 
ATOM     33  C   UNL     1       7.003  -1.414  -3.981  0.00  0.00    +0.038 A 
ATOM     34  C   UNL     1       5.625  -1.321  -4.091  0.00  0.00    +0.128 A 
ATOM     35  F   UNL     1       4.914  -2.363  -4.575  0.00  0.00    -0.205 F 
ENDBRANCH  28  29
ENDBRANCH   1  28
TORSDOF 8
