REMARK  Name = ZINC18130442
REMARK  9 active torsions:
REMARK  status: ('A' for Active; 'I' for Inactive)
REMARK    1  A    between atoms: C_1  and  O_2
REMARK    2  A    between atoms: O_2  and  C_3
REMARK    3  A    between atoms: C_5  and  C_19
REMARK    4  A    between atoms: C_8  and  O_9
REMARK    5  A    between atoms: O_9  and  C_10
REMARK    6  A    between atoms: C_10  and  C_11
REMARK    7  A    between atoms: C_19  and  N_20
REMARK    8  A    between atoms: N_20  and  C_21
REMARK    9  A    between atoms: C_30  and  O_33
REMARK                            x       y       z     vdW  Elec       q    Type
REMARK                         _______ _______ _______ _____ _____    ______ ____
ROOT
ATOM      1  C   UNL     1       0.626  -0.619   1.042  0.00  0.00    +0.163 A 
ATOM      2  C   UNL     1       1.202   0.137   2.051  0.00  0.00    +0.051 A 
ATOM      3  C   UNL     1       1.837  -0.489   3.108  0.00  0.00    -0.059 A 
ATOM      4  C   UNL     1       1.899  -1.869   3.162  0.00  0.00    +0.025 A 
ATOM      5  C   UNL     1       1.326  -2.630   2.158  0.00  0.00    +0.086 A 
ATOM      6  C   UNL     1       0.683  -2.008   1.099  0.00  0.00    +0.181 A 
ATOM      7 CL   UNL     1       1.407  -4.362   2.228  0.00  0.00    -0.080 Cl
ENDROOT
BRANCH   1   9
ATOM      8  C   UNL     1      -0.017   1.425   0.010  0.00  0.00    +0.277 C 
ATOM      9  O   UNL     1       0.002  -0.004   0.002  0.00  0.00    -0.491 OA
ENDBRANCH   1   9
BRANCH   6  10
ATOM     10  O   UNL     1       0.114  -2.754   0.114  0.00  0.00    -0.482 OA
BRANCH  10  11
ATOM     11  C   UNL     1       0.939  -3.091  -1.003  0.00  0.00    +0.264 C 
BRANCH  11  12
ATOM     12  C   UNL     1       0.143  -3.913  -1.984  0.00  0.00    -0.010 A 
ATOM     13  C   UNL     1       0.121  -5.291  -1.873  0.00  0.00    +0.008 A 
ATOM     14  C   UNL     1      -0.608  -6.046  -2.772  0.00  0.00    +0.020 A 
ATOM     15  C   UNL     1      -1.315  -5.422  -3.785  0.00  0.00    +0.041 A 
ATOM     16  C   UNL     1      -1.292  -4.043  -3.896  0.00  0.00    +0.020 A 
ATOM     17  C   UNL     1      -0.568  -3.289  -2.992  0.00  0.00    +0.008 A 
ATOM     18 CL   UNL     1      -2.231  -6.369  -4.915  0.00  0.00    -0.084 Cl
ENDBRANCH  11  12
ENDBRANCH  10  11
ENDBRANCH   6  10
BRANCH   3  19
ATOM     19  C   UNL     1       2.462   0.335   4.204  0.00  0.00    -0.046 C 
BRANCH  19  20
ATOM     20  N   UNL     1       1.471   0.577   5.261  0.00  0.00    +0.386 N 
ATOM     21  H   UNL     1       0.682   1.074   4.875  0.00  0.00    -0.085 HD
ATOM     22  H   UNL     1       1.161  -0.305   5.639  0.00  0.00    -0.085 HD
BRANCH  20  23
ATOM     23  C   UNL     1       2.081   1.380   6.329  0.00  0.00    -0.065 C 
ATOM     24  C   UNL     1       3.277   0.627   6.914  0.00  0.00    -0.009 C 
ATOM     25  C   UNL     1       3.913   1.463   8.027  0.00  0.00    -0.009 C 
ATOM     26  C   UNL     1       4.383   2.801   7.453  0.00  0.00    +0.007 C 
ATOM     27  C   UNL     1       3.187   3.555   6.868  0.00  0.00    -0.009 C 
ATOM     28  C   UNL     1       2.552   2.718   5.756  0.00  0.00    -0.009 C 
ATOM     29  C   UNL     1       2.155   3.807   7.969  0.00  0.00    +0.038 C 
ATOM     30  C   UNL     1       1.684   2.469   8.543  0.00  0.00    +0.065 C 
ATOM     31  C   UNL     1       2.881   1.715   9.128  0.00  0.00    +0.038 C 
ATOM     32  C   UNL     1       1.049   1.632   7.430  0.00  0.00    +0.022 C 
BRANCH  30  33
ATOM     33  O   UNL     1       0.720   2.704   9.571  0.00  0.00    -0.389 OA
ATOM     34  H   UNL     1       1.055   3.229  10.311  0.00  0.00    +0.210 HD
ENDBRANCH  30  33
ENDBRANCH  20  23
ENDBRANCH  19  20
ENDBRANCH   3  19
TORSDOF 8
