REMARK  Name = ZINC66243745
REMARK  5 active torsions:
REMARK  status: ('A' for Active; 'I' for Inactive)
REMARK    1  A    between atoms: C_3  and  C_11
REMARK    2  A    between atoms: C_5  and  C_7
REMARK    3  A    between atoms: C_14  and  N_16
REMARK    4  A    between atoms: N_18  and  C_19
REMARK    5  A    between atoms: C_19  and  C_20
REMARK                            x       y       z     vdW  Elec       q    Type
REMARK                         _______ _______ _______ _____ _____    ______ ____
ROOT
ATOM      1  N   UNL     1       2.879   3.225  -2.222  0.00  0.00    -0.354 N 
ATOM      2  C   UNL     1       3.207   3.617  -3.499  0.00  0.00    +0.169 C 
ATOM      3  N   UNL     1       2.281   3.698  -4.413  0.00  0.00    -0.355 N 
ATOM      4  N   UNL     1       4.510   3.922  -3.811  0.00  0.00    -0.371 N 
ATOM      5  H   UNL     1       1.959   3.010  -2.002  0.00  0.00    +0.163 HD
ATOM      6  H   UNL     1       5.199   3.861  -3.131  0.00  0.00    +0.159 HD
ATOM      7  H   UNL     1       4.741   4.198  -4.712  0.00  0.00    +0.159 HD
ATOM      8  H   UNL     1       1.362   3.483  -4.193  0.00  0.00    +0.162 HD
ENDROOT
BRANCH   1  11
ATOM      9  C   UNL     1       3.672   2.182  -0.022  0.00  0.00    +0.043 C 
ATOM     10  C   UNL     1       3.595   3.695   0.192  0.00  0.00    +0.035 C 
ATOM     11  C   UNL     1       3.919   3.133  -1.195  0.00  0.00    +0.090 C 
BRANCH   9  14
ATOM     12  C   UNL     1      -0.017   1.378   0.010  0.00  0.00    +0.001 A 
ATOM     13  C   UNL     1       1.171   2.085   0.002  0.00  0.00    +0.004 A 
ATOM     14  C   UNL     1       2.377   1.411  -0.013  0.00  0.00    -0.042 A 
ATOM     15  C   UNL     1       2.396   0.028  -0.020  0.00  0.00    +0.016 A 
ATOM     16  C   UNL     1       1.209  -0.679  -0.012  0.00  0.00    +0.055 A 
ATOM     17  C   UNL     1       0.002  -0.004   0.002  0.00  0.00    +0.012 A 
BRANCH  16  18
ATOM     18  C   UNL     1       1.229  -2.186  -0.020  0.00  0.00    +0.417 C 
ATOM     19  F   UNL     1       1.249  -2.660   1.296  0.00  0.00    -0.166 F 
ATOM     20  F   UNL     1       0.086  -2.664  -0.671  0.00  0.00    -0.166 F 
ATOM     21  F   UNL     1       2.371  -2.633  -0.694  0.00  0.00    -0.166 F 
ENDBRANCH  16  18
ENDBRANCH   9  14
ENDBRANCH   1  11
BRANCH   3  22
ATOM     22  C   UNL     1       2.630   4.115  -5.773  0.00  0.00    +0.147 C 
BRANCH  22  23
ATOM     23  C   UNL     1       1.371   4.128  -6.642  0.00  0.00    +0.137 C 
ATOM     24  C   UNL     1       1.747   4.449  -8.105  0.00  0.00    +0.035 C 
ATOM     25  C   UNL     1       0.581   5.374  -8.549  0.00  0.00    +0.031 C 
ATOM     26  C   UNL     1       0.282   6.126  -7.228  0.00  0.00    +0.160 C 
ATOM     27  O   UNL     1       0.477   5.151  -6.188  0.00  0.00    -0.375 OA
ENDBRANCH  22  23
ENDBRANCH   3  22
TORSDOF 5
