REMARK  Name = ZINC63272613
REMARK  7 active torsions:
REMARK  status: ('A' for Active; 'I' for Inactive)
REMARK    1  A    between atoms: C_3  and  N_8
REMARK    2  A    between atoms: C_5  and  O_7
REMARK    3  A    between atoms: C_9  and  C_11
REMARK    4  A    between atoms: C_11  and  S_12
REMARK    5  A    between atoms: S_12  and  C_13
REMARK    6  A    between atoms: C_19  and  O_23
REMARK    7  A    between atoms: O_23  and  C_24
REMARK                            x       y       z     vdW  Elec       q    Type
REMARK                         _______ _______ _______ _____ _____    ______ ____
ROOT
ATOM      1  C   UNL     1       6.135   6.786  -0.486  0.00  0.00    +0.236 C 
ATOM      2  N   UNL     1       6.965   6.419   0.667  0.00  0.00    -0.355 N 
ATOM      3  C   UNL     1       8.006   5.782   0.215  0.00  0.00    +0.061 A 
ATOM      4  C   UNL     1       9.167   5.181   0.889  0.00  0.00    +0.031 A 
ATOM      5  C   UNL     1      10.120   4.569   0.161  0.00  0.00    +0.048 A 
ATOM      6  C   UNL     1      10.040   4.479  -1.292  0.00  0.00    +0.129 A 
ATOM      7  C   UNL     1       9.002   5.008  -1.984  0.00  0.00    +0.073 A 
ATOM      8  C   UNL     1       7.923   5.691  -1.267  0.00  0.00    +0.064 A 
ATOM      9  N   UNL     1       6.830   6.278  -1.676  0.00  0.00    -0.355 N 
ATOM     10  H   UNL     1       6.772   6.617   1.597  0.00  0.00    +0.162 HD
ATOM     11  H   UNL     1       6.532   6.363  -2.595  0.00  0.00    +0.162 HD
ENDROOT
BRANCH   1  12
ATOM     12  S   UNL     1       4.498   6.017  -0.346  0.00  0.00    -0.106 S 
BRANCH  12  13
ATOM     13  C   UNL     1       4.856   4.241  -0.238  0.00  0.00    +0.169 C 
BRANCH  13  15
ATOM     14  N   UNL     1       3.583   2.131  -0.021  0.00  0.00    -0.285 N 
ATOM     15  C   UNL     1       3.563   3.475  -0.116  0.00  0.00    +0.227 C 
ATOM     16  O   UNL     1       2.506   4.069  -0.103  0.00  0.00    -0.275 OA
ATOM     17  H   UNL     1       4.430   1.662   0.045  0.00  0.00    +0.155 HD
BRANCH  14  20
ATOM     18  C   UNL     1       0.113   1.158  -0.755  0.00  0.00    +0.005 A 
ATOM     19  C   UNL     1       1.298   1.868  -0.757  0.00  0.00    +0.023 A 
ATOM     20  C   UNL     1       2.383   1.412  -0.019  0.00  0.00    +0.037 A 
ATOM     21  C   UNL     1       2.275   0.242   0.720  0.00  0.00    +0.068 A 
ATOM     22  C   UNL     1       1.085  -0.467   0.720  0.00  0.00    +0.119 A 
ATOM     23  C   UNL     1       0.004  -0.007  -0.019  0.00  0.00    +0.045 A 
BRANCH  22  24
ATOM     24  O   UNL     1       0.976  -1.613   1.442  0.00  0.00    -0.507 OA
ATOM     25  H   UNL     1       0.666  -1.479   2.349  0.00  0.00    +0.292 HD
ENDBRANCH  22  24
ENDBRANCH  14  20
ENDBRANCH  13  15
ENDBRANCH  12  13
ENDBRANCH   1  12
BRANCH   6  26
ATOM     26  O   UNL     1      11.032   3.850  -1.969  0.00  0.00    -0.434 OA
BRANCH  26  27
ATOM     27  C   UNL     1      12.105   3.310  -1.194  0.00  0.00    +0.541 C 
ATOM     28  F   UNL     1      12.730   4.339  -0.482  0.00  0.00    -0.166 F 
ATOM     29  F   UNL     1      11.601   2.361  -0.298  0.00  0.00    -0.166 F 
ENDBRANCH  26  27
ENDBRANCH   6  26
TORSDOF 7
