REMARK  Name = ZINC36298953
REMARK  10 active torsions:
REMARK  status: ('A' for Active; 'I' for Inactive)
REMARK    1  A    between atoms: C_1  and  C_2
REMARK    2  A    between atoms: C_5  and  S_9
REMARK    3  A    between atoms: S_9  and  N_12
REMARK    4  A    between atoms: N_12  and  C_13
REMARK    5  A    between atoms: C_13  and  C_14
REMARK    6  A    between atoms: C_14  and  C_16
REMARK    7  A    between atoms: C_14  and  N_20
REMARK    8  A    between atoms: C_16  and  C_17
REMARK    9  A    between atoms: C_17  and  C_18
REMARK   10  A    between atoms: C_17  and  C_19
REMARK                            x       y       z     vdW  Elec       q    Type
REMARK                         _______ _______ _______ _____ _____    ______ ____
ROOT
ATOM      1  N   UNL     1       1.742  -4.745   0.378  0.00  0.00    -0.191 NA
ATOM      2  H   UNL     1       2.389  -5.145  -0.223  0.00  0.00    +0.148 HD
ENDROOT
BRANCH   1   3
ATOM      3  S   UNL     1       0.269  -4.256  -0.199  0.00  0.00    +0.059 S 
ATOM      4  O   UNL     1      -0.712  -4.824   0.658  0.00  0.00    -0.153 OA
ATOM      5  O   UNL     1       0.284  -4.489  -1.601  0.00  0.00    -0.153 OA
BRANCH   3  10
ATOM      6  C   UNL     1      -0.043   1.724   0.553  0.00  0.00    +0.044 C 
ATOM      7  C   UNL     1       0.035   0.230   0.364  0.00  0.00    -0.049 A 
ATOM      8  C   UNL     1      -0.838  -0.599   1.044  0.00  0.00    +0.005 A 
ATOM      9  C   UNL     1      -0.767  -1.968   0.872  0.00  0.00    +0.030 A 
ATOM     10  C   UNL     1       0.177  -2.510   0.020  0.00  0.00    +0.119 A 
ATOM     11  C   UNL     1       1.051  -1.681  -0.661  0.00  0.00    +0.044 A 
ATOM     12  C   UNL     1       0.976  -0.310  -0.492  0.00  0.00    +0.020 A 
ATOM     13 BR   UNL     1       2.343  -2.421  -1.826  0.00  0.00    -0.048 Br
ENDBRANCH   3  10
ENDBRANCH   1   3
BRANCH   1  14
ATOM     14  C   UNL     1       2.067  -4.573   1.796  0.00  0.00    +0.090 C 
BRANCH  14  15
ATOM     15  C   UNL     1       3.271  -5.447   2.153  0.00  0.00    -0.059 C 
BRANCH  15  16
ATOM     16  N   UNL     1       2.993  -6.840   1.781  0.00  0.00    +0.381 N 
ATOM     17  H   UNL     1       2.882  -6.905   0.780  0.00  0.00    -0.090 HD
ATOM     18  H   UNL     1       3.760  -7.426   2.073  0.00  0.00    -0.090 HD
ATOM     19  H   UNL     1       2.144  -7.146   2.234  0.00  0.00    -0.090 HD
ENDBRANCH  15  16
BRANCH  15  20
ATOM     20  C   UNL     1       3.533  -5.364   3.658  0.00  0.00    -0.012 C 
BRANCH  20  21
ATOM     21  C   UNL     1       4.819  -6.122   3.994  0.00  0.00    -0.019 C 
ATOM     22  C   UNL     1       6.012  -5.412   3.352  0.00  0.00    +0.007 C 
ATOM     23  C   UNL     1       5.006  -6.161   5.513  0.00  0.00    +0.007 C 
ENDBRANCH  20  21
ENDBRANCH  15  20
ENDBRANCH  14  15
ENDBRANCH   1  14
TORSDOF 7
