REMARK  Name = ZINC20868649
REMARK  8 active torsions:
REMARK  status: ('A' for Active; 'I' for Inactive)
REMARK    1  A    between atoms: C_1  and  C_2
REMARK    2  A    between atoms: C_6  and  C_7
REMARK    3  A    between atoms: C_7  and  C_8
REMARK    4  A    between atoms: C_8  and  N_9
REMARK    5  A    between atoms: C_10  and  C_12
REMARK    6  A    between atoms: C_15  and  C_17
REMARK    7  A    between atoms: C_23  and  C_25
REMARK    8  A    between atoms: C_25  and  N_26
REMARK                            x       y       z     vdW  Elec       q    Type
REMARK                         _______ _______ _______ _____ _____    ______ ____
ROOT
ATOM      1  C   UNL     1       1.209   2.017   0.001  0.00  0.00    +0.074 A 
ATOM      2  C   UNL     1      -0.017   1.368   0.010  0.00  0.00    +0.021 A 
ATOM      3  C   UNL     1       0.002  -0.004   0.002  0.00  0.00    +0.014 A 
ATOM      4  C   UNL     1       1.197  -0.651  -0.013  0.00  0.00    +0.011 A 
ATOM      5  S   UNL     1       2.349   0.644  -0.017  0.00  0.00    -0.087 S 
ENDROOT
BRANCH   4   6
ATOM      6  C   UNL     1       1.457  -2.135  -0.024  0.00  0.00    +0.113 C 
ATOM      7  C   UNL     1       1.837  -2.591  -1.448  0.00  0.00    +0.029 C 
ATOM      8  C   UNL     1       2.940  -3.651  -1.192  0.00  0.00    +0.021 C 
ATOM      9  C   UNL     1       3.667  -3.052   0.038  0.00  0.00    +0.108 C 
ATOM     10  N   UNL     1       2.595  -2.450   0.853  0.00  0.00    -0.295 N 
ATOM     11  C   UNL     1       2.650  -2.225   2.180  0.00  0.00    +0.199 C 
ATOM     12  O   UNL     1       1.704  -1.722   2.749  0.00  0.00    -0.278 OA
BRANCH  11  13
ATOM     13  C   UNL     1       3.885  -2.599   2.958  0.00  0.00    +0.011 C 
BRANCH  13  14
ATOM     14  N   UNL     1       3.696  -2.256   4.373  0.00  0.00    +0.384 N 
ATOM     15  H   UNL     1       4.598  -2.528   4.941  0.00  0.00    -0.089 HD
ATOM     16  H   UNL     1       2.831  -2.807   4.772  0.00  0.00    -0.089 HD
ATOM     17  H   UNL     1       3.517  -1.174   4.467  0.00  0.00    -0.089 HD
ENDBRANCH  13  14
ENDBRANCH  11  13
ENDBRANCH   4   6
BRANCH   1  19
ATOM     18  N   UNL     1       2.769   3.889  -0.004  0.00  0.00    -0.311 N 
ATOM     19  C   UNL     1       1.494   3.454   0.006  0.00  0.00    +0.251 C 
ATOM     20  O   UNL     1       0.578   4.256   0.019  0.00  0.00    -0.270 OA
ATOM     21  H   UNL     1       3.597   3.164  -0.015  0.00  0.00    +0.149 HD
BRANCH  18  22
ATOM     22  C   UNL     1       3.054   5.326   0.001  0.00  0.00    +0.109 C 
BRANCH  22  23
ATOM     23  C   UNL     1       4.568   5.546  -0.012  0.00  0.00    +0.061 C 
BRANCH  23  29
ATOM     24  C   UNL     1       4.946   7.332   2.458  0.00  0.00    +0.044 C 
ATOM     25  C   UNL     1       5.037   7.856   1.048  0.00  0.00    -0.040 A 
ATOM     26  C   UNL     1       5.300   9.192   0.812  0.00  0.00    +0.011 A 
ATOM     27  C   UNL     1       5.374   9.631  -0.469  0.00  0.00    +0.046 A 
ATOM     28  S   UNL     1       5.074   8.132  -1.391  0.00  0.00    -0.101 S 
ATOM     29  C   UNL     1       4.861   7.024  -0.008  0.00  0.00    -0.006 A 
ENDBRANCH  23  29
ENDBRANCH  22  23
ENDBRANCH  18  22
ENDBRANCH   1  19
TORSDOF 7
