REMARK  Name = ZINC61594248
REMARK  8 active torsions:
REMARK  status: ('A' for Active; 'I' for Inactive)
REMARK    1  A    between atoms: C_1  and  C_2
REMARK    2  A    between atoms: C_2  and  N_3
REMARK    3  A    between atoms: C_9  and  S_10
REMARK    4  A    between atoms: S_10  and  C_11
REMARK    5  A    between atoms: C_11  and  C_13
REMARK    6  A    between atoms: C_11  and  C_19
REMARK    7  A    between atoms: C_19  and  C_21
REMARK    8  A    between atoms: C_19  and  N_22
REMARK                            x       y       z     vdW  Elec       q    Type
REMARK                         _______ _______ _______ _____ _____    ______ ____
ROOT
ATOM      1  C   UNL     1      -1.517  -1.106   4.554  0.00  0.00    +0.076 C 
ENDROOT
BRANCH   1   2
ATOM      2  C   UNL     1      -2.905  -1.013   5.133  0.00  0.00    +0.003 A 
ATOM      3  C   UNL     1      -3.349  -0.260   6.169  0.00  0.00    +0.027 A 
ATOM      4  C   UNL     1      -4.681  -0.337   6.531  0.00  0.00    +0.025 A 
ATOM      5  C   UNL     1      -5.504  -1.163   5.838  0.00  0.00    +0.060 A 
ATOM      6  S   UNL     1      -4.393  -1.860   4.627  0.00  0.00    -0.099 S 
ATOM      7 BR   UNL     1      -5.346   0.694   7.970  0.00  0.00    -0.050 Br
ENDBRANCH   1   2
BRANCH   1   8
ATOM      8  C   UNL     1      -1.016  -2.548   4.656  0.00  0.00    -0.060 C 
ATOM      9  C   UNL     1       0.433  -2.621   4.171  0.00  0.00    -0.013 C 
BRANCH   8  10
ATOM     10  N   UNL     1      -1.088  -2.993   6.054  0.00  0.00    +0.381 N 
ATOM     11  H   UNL     1      -2.044  -2.945   6.374  0.00  0.00    -0.090 HD
ATOM     12  H   UNL     1      -0.758  -3.944   6.121  0.00  0.00    -0.090 HD
ATOM     13  H   UNL     1      -0.511  -2.396   6.627  0.00  0.00    -0.090 HD
ENDBRANCH   8  10
ENDBRANCH   1   8
BRANCH   1  14
ATOM     14  S   UNL     1      -1.553  -0.600   2.812  0.00  0.00    -0.079 S 
BRANCH  14  21
ATOM     15  N   UNL     1      -1.967   1.973   1.795  0.00  0.00    -0.271 N 
ATOM     16  C   UNL     1      -2.289   3.204   2.239  0.00  0.00    +0.345 A 
ATOM     17  O   UNL     1      -2.420   4.204   1.555  0.00  0.00    -0.245 OA
ATOM     18  N   UNL     1      -2.441   3.128   3.577  0.00  0.00    -0.226 N 
ATOM     19  H   UNL     1      -2.675   3.859   4.171  0.00  0.00    +0.194 HD
ATOM     20  N   UNL     1      -2.200   1.799   3.951  0.00  0.00    -0.145 NA
ATOM     21  C   UNL     1      -1.924   1.121   2.875  0.00  0.00    +0.193 A 
BRANCH  15  23
ATOM     22  C   UNL     1      -3.023   1.179  -0.263  0.00  0.00    +0.027 C 
ATOM     23  C   UNL     1      -1.711   1.604   0.400  0.00  0.00    +0.125 C 
ENDBRANCH  15  23
ENDBRANCH  14  21
ENDBRANCH   1  14
TORSDOF 6
