REMARK  Name = ZINC02558748
REMARK  7 active torsions:
REMARK  status: ('A' for Active; 'I' for Inactive)
REMARK    1  A    between atoms: C_2  and  C_18
REMARK    2  A    between atoms: N_7  and  C_8
REMARK    3  A    between atoms: C_8  and  C_9
REMARK    4  A    between atoms: C_9  and  N_10
REMARK    5  A    between atoms: C_11  and  C_16
REMARK    6  A    between atoms: C_14  and  S_15
REMARK    7  A    between atoms: C_16  and  O_17
REMARK                            x       y       z     vdW  Elec       q    Type
REMARK                         _______ _______ _______ _____ _____    ______ ____
ROOT
ATOM      1  C   UNL     1       2.373   1.367  -0.013  0.00  0.00    +0.037 A 
ATOM      2  C   UNL     1       1.159   2.040   0.002  0.00  0.00    +0.072 A 
ATOM      3  C   UNL     1      -0.016   1.316   0.009  0.00  0.00    +0.096 A 
ATOM      4  C   UNL     1       1.138  -0.683  -0.013  0.00  0.00    +0.115 A 
ATOM      5  C   UNL     1       2.361  -0.017  -0.021  0.00  0.00    +0.079 A 
ATOM      6 CL   UNL     1       3.850  -0.910  -0.039  0.00  0.00    -0.080 Cl
ATOM      7  N   UNL     1       1.111  -2.073  -0.020  0.00  0.00    -0.328 N 
ATOM      8  H   UNL     1       1.941  -2.575  -0.031  0.00  0.00    +0.148 HD
ATOM      9  N   UNL     1      -0.066  -0.044   0.002  0.00  0.00    -0.348 N 
ATOM     10  H   UNL     1      -0.956  -0.556   0.008  0.00  0.00    +0.167 HD
ENDROOT
BRANCH   2  11
ATOM     11  C   UNL     1       1.124   3.547   0.010  0.00  0.00    +0.419 C 
ATOM     12  F   UNL     1      -0.205   3.982   0.025  0.00  0.00    -0.166 F 
ATOM     13  F   UNL     1       1.783   4.022   1.149  0.00  0.00    -0.166 F 
ATOM     14  F   UNL     1       1.762   4.034  -1.136  0.00  0.00    -0.166 F 
ENDBRANCH   2  11
BRANCH   7  15
ATOM     15  C   UNL     1      -0.173  -2.780  -0.012  0.00  0.00    +0.124 C 
BRANCH  15  16
ATOM     16  C   UNL     1       0.077  -4.290  -0.023  0.00  0.00    +0.143 C 
BRANCH  16  17
ATOM     17  N   UNL     1      -1.206  -4.997  -0.015  0.00  0.00    -0.319 N 
ATOM     18  C   UNL     1      -1.934  -5.386  -1.117  0.00  0.00    +0.065 A 
ATOM     19  C   UNL     1      -3.039  -6.000  -0.661  0.00  0.00    +0.137 A 
ATOM     20  N   UNL     1      -3.002  -5.994   0.682  0.00  0.00    -0.230 NA
ATOM     21  C   UNL     1      -1.902  -5.399   1.083  0.00  0.00    +0.166 A 
BRANCH  21  22
ATOM     22  S   UNL     1      -1.413  -5.159   2.759  0.00  0.00    -0.105 S 
ATOM     23  H   UNL     1      -2.014  -3.909   3.013  0.00  0.00    +0.110 HD
ENDBRANCH  21  22
BRANCH  18  24
ATOM     24  C   UNL     1      -1.562  -5.165  -2.561  0.00  0.00    +0.210 C 
BRANCH  24  25
ATOM     25  O   UNL     1      -2.577  -5.715  -3.404  0.00  0.00    -0.389 OA
ATOM     26  H   UNL     1      -2.403  -5.609  -4.349  0.00  0.00    +0.210 HD
ENDBRANCH  24  25
ENDBRANCH  18  24
ENDBRANCH  16  17
ENDBRANCH  15  16
ENDBRANCH   7  15
TORSDOF 7
