REMARK  Name = ZINC31002298
REMARK  9 active torsions:
REMARK  status: ('A' for Active; 'I' for Inactive)
REMARK    1  A    between atoms: C_1  and  C_2
REMARK    2  A    between atoms: C_2  and  C_3
REMARK    3  A    between atoms: C_2  and  N_4
REMARK    4  A    between atoms: N_7  and  C_8
REMARK    5  A    between atoms: C_11  and  N_14
REMARK    6  A    between atoms: C_15  and  C_17
REMARK    7  A    between atoms: C_21  and  S_23
REMARK    8  A    between atoms: S_23  and  N_26
REMARK    9  A    between atoms: N_26  and  C_27
REMARK                            x       y       z     vdW  Elec       q    Type
REMARK                         _______ _______ _______ _____ _____    ______ ____
ROOT
ATOM      1  N   UNL     1      -7.097  -1.160  -0.075  0.00  0.00    -0.282 N 
ATOM      2  C   UNL     1      -6.716  -2.432   0.159  0.00  0.00    +0.248 C 
ATOM      3  O   UNL     1      -5.534  -2.713   0.206  0.00  0.00    -0.270 OA
ATOM      4  H   UNL     1      -8.164  -0.919  -0.194  0.00  0.00    +0.155 HD
ENDROOT
BRANCH   1   8
ATOM      5  C   UNL     1      -4.234   1.859  -0.346  0.00  0.00    +0.035 A 
ATOM      6  C   UNL     1      -3.951   0.588  -0.831  0.00  0.00    +0.025 A 
ATOM      7  C   UNL     1      -4.897  -0.413  -0.736  0.00  0.00    +0.025 A 
ATOM      8  C   UNL     1      -6.135  -0.146  -0.166  0.00  0.00    +0.034 A 
ATOM      9  C   UNL     1      -6.420   1.125   0.314  0.00  0.00    +0.025 A 
ATOM     10  C   UNL     1      -5.472   2.125   0.224  0.00  0.00    +0.025 A 
BRANCH   5  14
ATOM     11  N   UNL     1      -2.183   4.712   0.502  0.00  0.00    -0.297 N 
ATOM     12  C   UNL     1      -3.171   3.796   0.539  0.00  0.00    +0.304 C 
ATOM     13  O   UNL     1      -3.967   3.799   1.458  0.00  0.00    -0.253 OA
ATOM     14  N   UNL     1      -3.272   2.873  -0.438  0.00  0.00    -0.269 N 
ATOM     15  H   UNL     1      -1.462   4.709  -0.329  0.00  0.00    +0.151 HD
ATOM     16  H   UNL     1      -2.599   2.917  -1.307  0.00  0.00    +0.156 HD
BRANCH  11  18
ATOM     17  C   UNL     1      -1.278   5.122   2.737  0.00  0.00    +0.027 C 
ATOM     18  C   UNL     1      -2.069   5.711   1.567  0.00  0.00    +0.068 C 
ATOM     19  C   UNL     1      -1.343   6.947   1.031  0.00  0.00    +0.027 C 
ENDBRANCH  11  18
ENDBRANCH   5  14
ENDBRANCH   1   8
BRANCH   2  20
ATOM     20  C   UNL     1      -7.735  -3.484   0.357  0.00  0.00    +0.039 A 
ATOM     21  C   UNL     1      -9.092  -3.163   0.309  0.00  0.00    +0.013 A 
ATOM     22  C   UNL     1     -10.038  -4.151   0.491  0.00  0.00    +0.003 A 
ATOM     23  C   UNL     1      -9.643  -5.455   0.730  0.00  0.00    +0.029 A 
ATOM     24  C   UNL     1      -8.299  -5.779   0.784  0.00  0.00    +0.109 A 
ATOM     25  C   UNL     1      -7.343  -4.802   0.599  0.00  0.00    +0.042 A 
BRANCH  24  26
ATOM     26  S   UNL     1      -7.808  -7.443   1.090  0.00  0.00    +0.072 S 
ATOM     27  O   UNL     1      -8.892  -8.268   0.686  0.00  0.00    -0.150 OA
ATOM     28  O   UNL     1      -6.500  -7.586   0.551  0.00  0.00    -0.150 OA
BRANCH  26  29
ATOM     29  N   UNL     1      -7.665  -7.618   2.730  0.00  0.00    -0.213 N 
ATOM     30  H   UNL     1      -6.697  -7.899   3.171  0.00  0.00    +0.174 HD
BRANCH  29  31
ATOM     31  C   UNL     1      -8.774  -7.409   3.555  0.00  0.00    +0.083 A 
ATOM     32  C   UNL     1     -10.041  -7.776   3.123  0.00  0.00    +0.027 A 
ATOM     33  C   UNL     1     -11.135  -7.571   3.942  0.00  0.00    +0.002 A 
ATOM     34  C   UNL     1     -10.972  -6.993   5.187  0.00  0.00    +0.003 A 
ATOM     35  C   UNL     1      -9.712  -6.621   5.620  0.00  0.00    +0.040 A 
ATOM     36  C   UNL     1      -8.612  -6.827   4.808  0.00  0.00    +0.146 A 
ATOM     37  F   UNL     1      -7.381  -6.463   5.230  0.00  0.00    -0.204 F 
ENDBRANCH  29  31
ENDBRANCH  26  29
ENDBRANCH  24  26
ENDBRANCH   2  20
TORSDOF 7
