REMARK  Name = ZINC35842885
REMARK  4 active torsions:
REMARK  status: ('A' for Active; 'I' for Inactive)
REMARK    1  A    between atoms: C_3  and  C_8
REMARK    2  A    between atoms: C_19  and  N_22
REMARK    3  A    between atoms: N_25  and  C_26
REMARK    4  A    between atoms: C_29  and  C_32
REMARK                            x       y       z     vdW  Elec       q    Type
REMARK                         _______ _______ _______ _____ _____    ______ ____
ROOT
ATOM      1  C   UNL     1       3.716   2.274  -0.112  0.00  0.00    +0.247 C 
ATOM      2  O   UNL     1       3.713   3.481  -0.259  0.00  0.00    -0.270 OA
ATOM      3  N   UNL     1       4.885   1.611  -0.013  0.00  0.00    -0.295 N 
ATOM      4  C   UNL     1       4.909   0.142   0.042  0.00  0.00    +0.127 C 
ATOM      5  C   UNL     1       5.820  -0.375  -1.079  0.00  0.00    +0.125 C 
ATOM      6  N   UNL     1       7.093   0.357  -1.024  0.00  0.00    -0.314 N 
ATOM      7  C   UNL     1       7.069   1.825  -1.079  0.00  0.00    +0.125 C 
ATOM      8  C   UNL     1       6.159   2.342   0.036  0.00  0.00    +0.127 C 
ATOM      9  C   UNL     1       8.301  -0.329  -0.922  0.00  0.00    +0.099 A 
ATOM     10  C   UNL     1       8.312  -1.718  -1.004  0.00  0.00    +0.043 A 
ATOM     11  C   UNL     1       9.517  -2.389  -0.902  0.00  0.00    +0.028 A 
ATOM     12  C   UNL     1      10.680  -1.642  -0.720  0.00  0.00    +0.051 A 
ATOM     13  C   UNL     1      10.592  -0.260  -0.647  0.00  0.00    +0.107 A 
ATOM     14  N   UNL     1       9.425   0.348  -0.754  0.00  0.00    -0.348 N 
ATOM     15  H   UNL     1       9.391   1.316  -0.704  0.00  0.00    +0.167 HD
ENDROOT
BRANCH   1  18
ATOM     16  C   UNL     1       1.132  -0.284   0.827  0.00  0.00    +0.002 A 
ATOM     17  C   UNL     1       2.328   0.402   0.765  0.00  0.00    +0.013 A 
ATOM     18  C   UNL     1       2.438   1.535  -0.042  0.00  0.00    +0.038 A 
ATOM     19  C   UNL     1       1.336   1.967  -0.782  0.00  0.00    +0.033 A 
ATOM     20  C   UNL     1       0.145   1.272  -0.711  0.00  0.00    +0.042 A 
ATOM     21  C   UNL     1       0.043   0.148   0.092  0.00  0.00    +0.020 A 
ATOM     22 CL   UNL     1      -1.226   1.808  -1.630  0.00  0.00    -0.084 Cl
ENDBRANCH   1  18
BRANCH  12  23
ATOM     23  N   UNL     1      11.923  -2.280  -0.611  0.00  0.00    -0.268 N 
ATOM     24  C   UNL     1      12.118  -3.481  -1.192  0.00  0.00    +0.308 C 
ATOM     25  O   UNL     1      11.247  -3.969  -1.885  0.00  0.00    -0.252 OA
ATOM     26  N   UNL     1      13.278  -4.140  -1.004  0.00  0.00    -0.269 N 
ATOM     27  H   UNL     1      12.644  -1.858  -0.117  0.00  0.00    +0.156 HD
ATOM     28  H   UNL     1      13.943  -3.787  -0.392  0.00  0.00    +0.156 HD
BRANCH  26  29
ATOM     29  C   UNL     1      13.524  -5.333  -1.693  0.00  0.00    +0.035 A 
ATOM     30  C   UNL     1      14.245  -6.352  -1.084  0.00  0.00    +0.024 A 
ATOM     31  C   UNL     1      14.486  -7.529  -1.766  0.00  0.00    +0.014 A 
ATOM     32  C   UNL     1      14.010  -7.692  -3.054  0.00  0.00    +0.055 A 
ATOM     33  C   UNL     1      13.292  -6.680  -3.663  0.00  0.00    +0.014 A 
ATOM     34  C   UNL     1      13.043  -5.503  -2.984  0.00  0.00    +0.024 A 
BRANCH  32  35
ATOM     35  C   UNL     1      14.274  -8.978  -3.795  0.00  0.00    +0.417 C 
ATOM     36  F   UNL     1      13.236  -9.882  -3.546  0.00  0.00    -0.166 F 
ATOM     37  F   UNL     1      14.347  -8.718  -5.168  0.00  0.00    -0.166 F 
ATOM     38  F   UNL     1      15.485  -9.527  -3.360  0.00  0.00    -0.166 F 
ENDBRANCH  32  35
ENDBRANCH  26  29
ENDBRANCH  12  23
TORSDOF 4
