REMARK  Name = ZINC05349076
REMARK  9 active torsions:
REMARK  status: ('A' for Active; 'I' for Inactive)
REMARK    1  A    between atoms: C_1  and  N_52
REMARK    2  A    between atoms: C_2  and  N_52
REMARK    3  A    between atoms: C_3  and  C_4
REMARK    4  A    between atoms: C_3  and  N_52
REMARK    5  A    between atoms: C_4  and  N_5
REMARK    6  A    between atoms: C_11  and  C_21
REMARK    7  A    between atoms: C_16  and  O_20
REMARK    8  A    between atoms: C_26  and  O_27
REMARK    9  A    between atoms: O_27  and  C_28
REMARK                            x       y       z     vdW  Elec       q    Type
REMARK                         _______ _______ _______ _____ _____    ______ ____
ROOT
ATOM      1  N   UNL     1       0.667   1.058   0.002  0.00  0.00    -0.320 N 
ATOM      2  C   UNL     1       1.100  -0.228  -0.009  0.00  0.00    +0.204 A 
ATOM      3  N   UNL     1       2.368  -0.519  -0.023  0.00  0.00    -0.202 NA
ATOM      4  C   UNL     1       3.321   0.432  -0.026  0.00  0.00    +0.229 A 
ATOM      5  C   UNL     1       2.966   1.747  -0.016  0.00  0.00    +0.066 A 
ATOM      6  C   UNL     1       1.592   2.083  -0.002  0.00  0.00    +0.115 A 
ATOM      7  C   UNL     1       3.999   2.838  -0.018  0.00  0.00    +0.095 C 
ATOM      8  C   UNL     1       5.333   2.296  -0.455  0.00  0.00    +0.007 A 
ATOM      9  C   UNL     1       6.321   3.171  -0.871  0.00  0.00    +0.012 A 
ATOM     10  C   UNL     1       7.551   2.690  -1.274  0.00  0.00    +0.046 A 
ATOM     11  C   UNL     1       7.800   1.324  -1.264  0.00  0.00    +0.120 A 
ATOM     12  C   UNL     1       6.812   0.446  -0.849  0.00  0.00    +0.092 A 
ATOM     13  C   UNL     1       5.575   0.931  -0.443  0.00  0.00    +0.138 A 
ATOM     14  O   UNL     1       4.620   0.060  -0.039  0.00  0.00    -0.437 OA
ATOM     15  H   UNL     1       0.283   3.660   0.017  0.00  0.00    +0.157 HD
ATOM     16  N   UNL     1       1.264   3.382   0.007  0.00  0.00    -0.384 N 
ATOM     17  H   UNL     1       2.000   4.097   0.003  0.00  0.00    +0.157 HD
ENDROOT
BRANCH   7  18
ATOM     18  C   UNL     1       4.123   3.409   1.371  0.00  0.00    +0.006 A 
ATOM     19  C   UNL     1       4.492   2.594   2.423  0.00  0.00    +0.008 A 
ATOM     20  C   UNL     1       4.611   3.119   3.697  0.00  0.00    +0.001 A 
ATOM     21  C   UNL     1       4.352   4.458   3.922  0.00  0.00    +0.004 A 
ATOM     22  C   UNL     1       3.978   5.276   2.874  0.00  0.00    +0.046 A 
ATOM     23  C   UNL     1       3.863   4.753   1.594  0.00  0.00    +0.124 A 
BRANCH  23  24
ATOM     24  O   UNL     1       3.495   5.556   0.561  0.00  0.00    -0.495 OA
ATOM     25  C   UNL     1       3.243   6.929   0.865  0.00  0.00    +0.277 C 
ENDBRANCH  23  24
ENDBRANCH   7  18
BRANCH  11  26
ATOM     26  O   UNL     1       9.010   0.850  -1.661  0.00  0.00    -0.507 OA
ATOM     27  H   UNL     1       9.655   0.772  -0.945  0.00  0.00    +0.292 HD
ENDBRANCH  11  26
BRANCH   1  28
ATOM     28  C   UNL     1      -0.768   1.355   0.012  0.00  0.00    +0.106 C 
BRANCH  28  29
ATOM     29  C   UNL     1      -1.249   1.592  -1.421  0.00  0.00    -0.058 C 
BRANCH  29  32
ATOM     30  C   UNL     1      -2.956   3.167  -0.738  0.00  0.00    -0.097 C 
ATOM     31  C   UNL     1      -3.235   1.889  -2.775  0.00  0.00    -0.097 C 
ATOM     32  N   UNL     1      -2.701   1.869  -1.397  0.00  0.00    +0.377 N 
ATOM     33  H   UNL     1      -3.173   1.128  -0.867  0.00  0.00    -0.083 HD
ENDBRANCH  29  32
ENDBRANCH  28  29
ENDBRANCH   1  28
TORSDOF 6
