REMARK  Name = ZINC39948088
REMARK  5 active torsions:
REMARK  status: ('A' for Active; 'I' for Inactive)
REMARK    1  A    between atoms: C_1  and  C_2
REMARK    2  A    between atoms: C_6  and  N_8
REMARK    3  A    between atoms: C_9  and  C_11
REMARK    4  A    between atoms: N_13  and  N_14
REMARK    5  A    between atoms: C_15  and  C_16
REMARK                            x       y       z     vdW  Elec       q    Type
REMARK                         _______ _______ _______ _____ _____    ______ ____
ROOT
ATOM      1  C   UNL     1      -0.130  -4.891   3.670  0.00  0.00    +0.318 C 
ATOM      2  O   UNL     1      -0.133  -4.288   4.724  0.00  0.00    -0.263 OA
ATOM      3  N   UNL     1      -0.214  -6.236   3.663  0.00  0.00    -0.199 N 
ATOM      4  H   UNL     1      -0.212  -6.717   2.821  0.00  0.00    +0.178 HD
ENDROOT
BRANCH   1   6
ATOM      5  N   UNL     1       0.050  -2.797   2.391  0.00  0.00    -0.278 N 
ATOM      6  C   UNL     1      -0.034  -4.142   2.383  0.00  0.00    +0.305 C 
ATOM      7  O   UNL     1      -0.030  -4.745   1.329  0.00  0.00    -0.265 OA
ATOM      8  H   UNL     1       0.125  -2.320   3.232  0.00  0.00    +0.155 HD
BRANCH   5  14
ATOM      9  C   UNL     1       1.526   1.060  -0.276  0.00  0.00    +0.044 C 
ATOM     10  C   UNL     1       0.736  -0.216  -0.135  0.00  0.00    -0.049 A 
ATOM     11  C   UNL     1      -0.012  -0.687  -1.199  0.00  0.00    +0.003 A 
ATOM     12  C   UNL     1      -0.738  -1.857  -1.074  0.00  0.00    +0.002 A 
ATOM     13  C   UNL     1      -0.720  -2.559   0.115  0.00  0.00    +0.023 A 
ATOM     14  C   UNL     1       0.030  -2.089   1.186  0.00  0.00    +0.034 A 
ATOM     15  C   UNL     1       0.763  -0.916   1.055  0.00  0.00    +0.026 A 
ENDBRANCH   5  14
ENDBRANCH   1   6
BRANCH   3  16
ATOM     16  N   UNL     1      -0.305  -6.939   4.871  0.00  0.00    -0.191 NA
ATOM     17  C   UNL     1      -0.385  -8.216   4.864  0.00  0.00    +0.120 C 
BRANCH  17  18
ATOM     18  C   UNL     1      -0.482  -8.972   6.164  0.00  0.00    +0.141 C 
ATOM     19  C   UNL     1       0.757  -9.836   6.295  0.00  0.00    +0.001 C 
ATOM     20  C   UNL     1       0.571 -11.180   6.429  0.00  0.00    -0.007 A 
ATOM     21  C   UNL     1       1.713 -12.086   6.561  0.00  0.00    +0.009 A 
ATOM     22  C   UNL     1       1.480 -13.417   6.692  0.00  0.00    +0.001 A 
ATOM     23  C   UNL     1       0.182 -13.930   6.704  0.00  0.00    +0.002 A 
ATOM     24  C   UNL     1      -0.918 -13.143   6.587  0.00  0.00    +0.024 A 
ATOM     25  C   UNL     1      -0.787 -11.749   6.446  0.00  0.00    +0.040 A 
ATOM     26  N   UNL     1      -1.874 -10.986   6.332  0.00  0.00    -0.284 N 
ATOM     27  C   UNL     1      -1.822  -9.672   6.194  0.00  0.00    +0.229 C 
ATOM     28  O   UNL     1      -2.850  -9.028   6.094  0.00  0.00    -0.274 OA
ATOM     29  H   UNL     1      -2.744 -11.415   6.349  0.00  0.00    +0.155 HD
ENDBRANCH  17  18
ENDBRANCH   3  16
TORSDOF 4
