REMARK  Name = ZINC43884173
REMARK  5 active torsions:
REMARK  status: ('A' for Active; 'I' for Inactive)
REMARK    1  A    between atoms: C_4  and  S_21
REMARK    2  A    between atoms: C_5  and  N_7
REMARK    3  A    between atoms: C_13  and  N_16
REMARK    4  A    between atoms: S_21  and  C_22
REMARK    5  A    between atoms: C_22  and  C_23
REMARK                            x       y       z     vdW  Elec       q    Type
REMARK                         _______ _______ _______ _____ _____    ______ ____
ROOT
ATOM      1  N   UNL     1       1.233  -2.082  -0.014  0.00  0.00    -0.268 N 
ATOM      2  C   UNL     1       0.082  -2.775   0.088  0.00  0.00    +0.306 C 
ATOM      3  O   UNL     1      -0.983  -2.187   0.095  0.00  0.00    -0.252 OA
ATOM      4  N   UNL     1       0.110  -4.119   0.181  0.00  0.00    -0.285 N 
ATOM      5  C   UNL     1       1.388  -4.836   0.282  0.00  0.00    +0.108 C 
ATOM      6  C   UNL     1       1.441  -5.906  -0.813  0.00  0.00    +0.004 C 
ATOM      7  C   UNL     1       0.206  -6.804  -0.704  0.00  0.00    -0.066 C 
ATOM      8  C   UNL     1      -1.057  -5.964  -0.909  0.00  0.00    +0.004 C 
ATOM      9  C   UNL     1      -1.138  -4.895   0.191  0.00  0.00    +0.108 C 
ATOM     10  H   UNL     1       2.080  -2.553  -0.054  0.00  0.00    +0.156 HD
ENDROOT
BRANCH   1  15
ATOM     11  C   UNL     1       0.030   1.361  -0.502  0.00  0.00    +0.002 A 
ATOM     12  C   UNL     1       1.154   2.088  -0.157  0.00  0.00    +0.001 A 
ATOM     13  C   UNL     1       2.309   1.438   0.237  0.00  0.00    +0.016 A 
ATOM     14  C   UNL     1       2.341   0.052   0.287  0.00  0.00    +0.030 A 
ATOM     15  C   UNL     1       1.207  -0.681  -0.061  0.00  0.00    +0.048 A 
ATOM     16  C   UNL     1       0.054  -0.021  -0.456  0.00  0.00    +0.024 A 
BRANCH  14  17
ATOM     17  S   UNL     1       3.812  -0.780   0.789  0.00  0.00    -0.114 S 
BRANCH  17  18
ATOM     18  C   UNL     1       4.981   0.564   1.131  0.00  0.00    +0.169 C 
BRANCH  18  19
ATOM     19  C   UNL     1       6.298  -0.018   1.576  0.00  0.00    +0.221 C 
ATOM     20  O   UNL     1       6.435  -1.220   1.654  0.00  0.00    -0.275 OA
ATOM     21  N   UNL     1       7.325   0.799   1.886  0.00  0.00    -0.329 N 
ATOM     22  H   UNL     1       7.216   1.760   1.824  0.00  0.00    +0.145 HD
ATOM     23  H   UNL     1       8.173   0.424   2.172  0.00  0.00    +0.145 HD
ENDBRANCH  18  19
ENDBRANCH  17  18
ENDBRANCH  14  17
ENDBRANCH   1  15
BRANCH   7  24
ATOM     24  N   UNL     1       0.271  -7.851  -1.732  0.00  0.00    +0.382 N 
ATOM     25  C   UNL     1       1.444  -8.730  -1.494  0.00  0.00    -0.079 C 
ATOM     26  C   UNL     1       1.068 -10.033  -2.245  0.00  0.00    -0.020 C 
ATOM     27  C   UNL     1      -0.451 -10.155  -1.986  0.00  0.00    -0.020 C 
ATOM     28  C   UNL     1      -0.916  -8.729  -1.640  0.00  0.00    -0.079 C 
ATOM     29  H   UNL     1       0.326  -7.436  -2.650  0.00  0.00    -0.081 HD
ENDBRANCH   7  24
TORSDOF 5
