REMARK  Name = ZINC37976273
REMARK  7 active torsions:
REMARK  status: ('A' for Active; 'I' for Inactive)
REMARK    1  A    between atoms: C_1  and  C_2
REMARK    2  A    between atoms: C_5  and  C_7
REMARK    3  A    between atoms: C_7  and  C_9
REMARK    4  A    between atoms: C_7  and  N_10
REMARK    5  A    between atoms: N_10  and  C_11
REMARK    6  A    between atoms: C_11  and  C_12
REMARK    7  A    between atoms: N_14  and  C_15
REMARK                            x       y       z     vdW  Elec       q    Type
REMARK                         _______ _______ _______ _____ _____    ______ ____
ROOT
ATOM      1  C   UNL     1       3.669  -4.165   0.962  0.00  0.00    +0.016 C 
ENDROOT
BRANCH   1   2
ATOM      2  C   UNL     1       4.843  -3.878   1.862  0.00  0.00    +0.200 C 
ATOM      3  O   UNL     1       4.954  -2.789   2.385  0.00  0.00    -0.278 OA
ATOM      4  N   UNL     1       5.770  -4.831   2.085  0.00  0.00    -0.286 N 
ATOM      5  H   UNL     1       5.647  -5.721   1.720  0.00  0.00    +0.155 HD
BRANCH   4   6
ATOM      6  C   UNL     1       6.908  -4.536   2.844  0.00  0.00    +0.047 A 
ATOM      7  C   UNL     1       6.823  -3.651   3.911  0.00  0.00    +0.024 A 
ATOM      8  C   UNL     1       7.948  -3.362   4.658  0.00  0.00    +0.002 A 
ATOM      9  C   UNL     1       9.159  -3.953   4.346  0.00  0.00    +0.001 A 
ATOM     10  C   UNL     1       9.247  -4.835   3.284  0.00  0.00    +0.017 A 
ATOM     11  C   UNL     1       8.124  -5.133   2.536  0.00  0.00    +0.039 A 
ATOM     12 BR   UNL     1       8.244  -6.344   1.089  0.00  0.00    -0.048 Br
ENDBRANCH   4   6
ENDBRANCH   1   2
BRANCH   1  13
ATOM     13  N   UNL     1       2.811  -2.975   0.882  0.00  0.00    +0.391 N 
ATOM     14  H   UNL     1       3.341  -2.202   0.507  0.00  0.00    -0.084 HD
ATOM     15  H   UNL     1       2.478  -2.738   1.804  0.00  0.00    -0.084 HD
BRANCH  13  16
ATOM     16  C   UNL     1       1.667  -3.254   0.004  0.00  0.00    -0.007 C 
ATOM     17  C   UNL     1       2.164  -3.491  -1.423  0.00  0.00    -0.006 C 
BRANCH  16  22
ATOM     18  C   UNL     1      -0.042   1.491   0.041  0.00  0.00    +0.086 C 
ATOM     19  C   UNL     1      -0.019  -0.015   0.035  0.00  0.00    +0.102 A 
ATOM     20  C   UNL     1      -1.099  -0.818   0.045  0.00  0.00    +0.044 A 
ATOM     21  C   UNL     1      -0.620  -2.148   0.035  0.00  0.00    +0.043 A 
ATOM     22  C   UNL     1       0.724  -2.079   0.019  0.00  0.00    +0.091 A 
ATOM     23  O   UNL     1       1.081  -0.785   0.013  0.00  0.00    -0.467 OA
ENDBRANCH  16  22
ENDBRANCH  13  16
ENDBRANCH   1  13
TORSDOF 5
