REMARK  Name = ZINC08868119
REMARK  7 active torsions:
REMARK  status: ('A' for Active; 'I' for Inactive)
REMARK    1  A    between atoms: C_1  and  C_2
REMARK    2  A    between atoms: N_10  and  C_13
REMARK    3  A    between atoms: C_18  and  O_19
REMARK    4  A    between atoms: O_19  and  C_20
REMARK    5  A    between atoms: N_28  and  C_31
REMARK    6  A    between atoms: C_31  and  C_32
REMARK    7  A    between atoms: C_33  and  C_34
REMARK                            x       y       z     vdW  Elec       q    Type
REMARK                         _______ _______ _______ _____ _____    ______ ____
ROOT
ATOM      1  C   UNL     1      -0.772   2.447   1.604  0.00  0.00    -0.013 C 
ATOM      2  C   UNL     1       0.059   1.782   0.505  0.00  0.00    -0.060 C 
ATOM      3  C   UNL     1       1.407   2.380   0.428  0.00  0.00    +0.073 C 
ATOM      4  C   UNL     1       1.090   3.785  -0.231  0.00  0.00    +0.088 C 
ATOM      5  C   UNL     1       2.527   4.169  -0.463  0.00  0.00    +0.229 C 
ATOM      6  O   UNL     1       2.978   4.788  -1.403  0.00  0.00    -0.275 OA
ATOM      7  N   UNL     1       3.215   3.673   0.608  0.00  0.00    -0.206 N 
ATOM      8  C   UNL     1       2.498   2.739   1.304  0.00  0.00    +0.229 C 
ATOM      9  O   UNL     1       2.731   2.308   2.413  0.00  0.00    -0.275 OA
ATOM     10  C   UNL     1       0.240   3.273  -1.381  0.00  0.00    +0.050 C 
ATOM     11  C   UNL     1      -0.714   4.317  -1.891  0.00  0.00    -0.027 A 
ATOM     12  C   UNL     1      -1.715   5.054  -1.300  0.00  0.00    +0.004 A 
ATOM     13  C   UNL     1      -2.439   5.964  -2.050  0.00  0.00    +0.000 A 
ATOM     14  C   UNL     1      -2.154   6.131  -3.393  0.00  0.00    +0.002 A 
ATOM     15  C   UNL     1      -1.152   5.395  -3.988  0.00  0.00    +0.024 A 
ATOM     16  C   UNL     1      -0.418   4.476  -3.241  0.00  0.00    +0.039 A 
ATOM     17  N   UNL     1       0.628   3.627  -3.610  0.00  0.00    -0.268 N 
ATOM     18  C   UNL     1       1.071   2.889  -2.575  0.00  0.00    +0.214 C 
ATOM     19  O   UNL     1       1.968   2.072  -2.600  0.00  0.00    -0.276 OA
ATOM     20  N   UNL     1      -0.489   2.103  -0.851  0.00  0.00    +0.394 N 
ATOM     21  H   UNL     1      -1.490   2.321  -0.778  0.00  0.00    -0.083 HD
ATOM     22  H   UNL     1      -0.358   1.299  -1.477  0.00  0.00    -0.083 HD
ENDROOT
BRANCH   7  23
ATOM     23  C   UNL     1       4.509   4.088   0.961  0.00  0.00    +0.085 A 
ATOM     24  C   UNL     1       4.685   5.156   1.827  0.00  0.00    +0.027 A 
ATOM     25  C   UNL     1       5.960   5.559   2.177  0.00  0.00    +0.002 A 
ATOM     26  C   UNL     1       7.062   4.906   1.657  0.00  0.00    +0.004 A 
ATOM     27  C   UNL     1       6.894   3.844   0.788  0.00  0.00    +0.047 A 
ATOM     28  C   UNL     1       5.619   3.430   0.437  0.00  0.00    +0.142 A 
BRANCH  28  29
ATOM     29  O   UNL     1       5.453   2.386  -0.417  0.00  0.00    -0.493 OA
ATOM     30  C   UNL     1       6.637   1.760  -0.915  0.00  0.00    +0.277 C 
ENDBRANCH  28  29
ENDBRANCH   7  23
BRANCH  17  31
ATOM     31  C   UNL     1       1.178   3.549  -4.966  0.00  0.00    +0.141 C 
BRANCH  31  32
ATOM     32  C   UNL     1       2.306   4.538  -5.108  0.00  0.00    -0.007 C 
ATOM     33  C   UNL     1       3.489   4.136  -5.552  0.00  0.00    +0.005 C 
BRANCH  33  34
ATOM     34  C   UNL     1       3.654   2.763  -6.074  0.00  0.00    -0.025 A 
ATOM     35  C   UNL     1       4.826   2.051  -5.816  0.00  0.00    +0.008 A 
ATOM     36  C   UNL     1       4.971   0.768  -6.301  0.00  0.00    +0.001 A 
ATOM     37  C   UNL     1       3.963   0.192  -7.054  0.00  0.00    +0.000 A 
ATOM     38  C   UNL     1       2.801   0.894  -7.318  0.00  0.00    +0.001 A 
ATOM     39  C   UNL     1       2.641   2.176  -6.833  0.00  0.00    +0.008 A 
ENDBRANCH  33  34
ENDBRANCH  31  32
ENDBRANCH  17  31
TORSDOF 5
