REMARK  Name = ZINC62794207
REMARK  5 active torsions:
REMARK  status: ('A' for Active; 'I' for Inactive)
REMARK    1  A    between atoms: C_1  and  N_2
REMARK    2  A    between atoms: N_2  and  C_3
REMARK    3  A    between atoms: N_2  and  C_10
REMARK    4  A    between atoms: C_3  and  C_4
REMARK    5  A    between atoms: C_13  and  C_17
REMARK                            x       y       z     vdW  Elec       q    Type
REMARK                         _______ _______ _______ _____ _____    ______ ____
ROOT
ATOM      1  C   UNL     1       0.000  -0.693  -1.207  0.00  0.00    +0.048 A 
ATOM      2  C   UNL     1       1.205  -1.026  -1.819  0.00  0.00    +0.025 A 
ATOM      3  C   UNL     1       1.206  -1.708  -3.015  0.00  0.00    +0.013 A 
ATOM      4  C   UNL     1      -0.004  -2.066  -3.615  0.00  0.00    +0.014 A 
ATOM      5  C   UNL     1      -1.212  -1.731  -2.999  0.00  0.00    +0.033 A 
ATOM      6  C   UNL     1      -1.208  -1.054  -1.799  0.00  0.00    +0.063 A 
ATOM      7 CL   UNL     1      -2.708  -0.643  -1.029  0.00  0.00    -0.082 Cl
ENDROOT
BRANCH   4   8
ATOM      8  C   UNL     1      -0.005  -2.797  -4.898  0.00  0.00    +0.094 C 
ATOM      9  N   UNL     1      -1.160  -3.139  -5.469  0.00  0.00    -0.387 N 
ATOM     10  N   UNL     1       1.149  -3.116  -5.485  0.00  0.00    -0.345 N 
ATOM     11  H   UNL     1      -1.999  -2.907  -5.042  0.00  0.00    +0.157 HD
ATOM     12  H   UNL     1       1.989  -2.867  -5.069  0.00  0.00    +0.144 HD
ATOM     13  H   UNL     1       1.148  -3.596  -6.328  0.00  0.00    +0.144 HD
ATOM     14  H   UNL     1      -1.161  -3.619  -6.312  0.00  0.00    +0.157 HD
ENDBRANCH   4   8
BRANCH   1  16
ATOM     15  C   UNL     1      -0.018   1.461   0.010  0.00  0.00    +0.129 C 
ATOM     16  N   UNL     1       0.002  -0.004   0.002  0.00  0.00    -0.327 N 
BRANCH  16  17
ATOM     17  C   UNL     1       0.024  -0.743   1.267  0.00  0.00    +0.147 C 
BRANCH  17  18
ATOM     18  C   UNL     1      -1.389  -1.016   1.714  0.00  0.00    +0.008 A 
ATOM     19  C   UNL     1      -2.180  -2.082   1.440  0.00  0.00    +0.028 A 
ATOM     20  C   UNL     1      -3.459  -2.120   1.964  0.00  0.00    +0.025 A 
ATOM     21  C   UNL     1      -3.883  -1.090   2.737  0.00  0.00    +0.060 A 
ATOM     22  S   UNL     1      -2.452  -0.023   2.748  0.00  0.00    -0.099 S 
ATOM     23 BR   UNL     1      -4.599  -3.587   1.609  0.00  0.00    -0.050 Br
ENDBRANCH  17  18
ENDBRANCH  16  17
ENDBRANCH   1  16
TORSDOF 4
