REMARK  Name = ZINC45623816
REMARK  5 active torsions:
REMARK  status: ('A' for Active; 'I' for Inactive)
REMARK    1  A    between atoms: C_4  and  C_8
REMARK    2  A    between atoms: C_6  and  N_7
REMARK    3  A    between atoms: N_10  and  C_11
REMARK    4  A    between atoms: C_11  and  C_12
REMARK    5  A    between atoms: N_16  and  C_18
REMARK                            x       y       z     vdW  Elec       q    Type
REMARK                         _______ _______ _______ _____ _____    ______ ____
ROOT
ATOM      1  C   UNL     1       3.701  -0.678  -0.037  0.00  0.00    +0.245 C 
ATOM      2  O   UNL     1       4.742  -0.050  -0.044  0.00  0.00    -0.270 OA
ATOM      3  N   UNL     1       3.727  -2.025  -0.045  0.00  0.00    -0.311 N 
ATOM      4  H   UNL     1       2.897  -2.526  -0.039  0.00  0.00    +0.149 HD
ENDROOT
BRANCH   1   8
ATOM      5  C   UNL     1      -0.017   1.386   0.010  0.00  0.00    +0.024 A 
ATOM      6  C   UNL     1       1.168   2.098   0.002  0.00  0.00    +0.018 A 
ATOM      7  C   UNL     1       2.378   1.433  -0.013  0.00  0.00    +0.030 A 
ATOM      8  C   UNL     1       2.408   0.037  -0.021  0.00  0.00    +0.052 A 
ATOM      9  C   UNL     1       1.212  -0.681  -0.013  0.00  0.00    +0.037 A 
ATOM     10  C   UNL     1       0.002  -0.004   0.002  0.00  0.00    +0.025 A 
ATOM     11 BR   UNL     1       3.995   2.414  -0.024  0.00  0.00    -0.050 Br
BRANCH  10  12
ATOM     12  N   UNL     1      -1.199  -0.719   0.010  0.00  0.00    -0.358 N 
ATOM     13  H   UNL     1      -2.045  -0.245   0.021  0.00  0.00    +0.142 HD
ATOM     14  H   UNL     1      -1.186  -1.689   0.005  0.00  0.00    +0.142 HD
ENDBRANCH  10  12
ENDBRANCH   1   8
BRANCH   3  15
ATOM     15  C   UNL     1       5.010  -2.733  -0.061  0.00  0.00    +0.106 C 
BRANCH  15  16
ATOM     16  C   UNL     1       4.759  -4.243  -0.067  0.00  0.00    -0.012 C 
ATOM     17  C   UNL     1       4.182  -4.715   1.293  0.00  0.00    -0.015 C 
ATOM     18  C   UNL     1       4.625  -6.192   1.365  0.00  0.00    -0.078 C 
ATOM     19  N   UNL     1       5.787  -6.343   0.469  0.00  0.00    +0.382 N 
ATOM     20  C   UNL     1       6.093  -5.027  -0.132  0.00  0.00    -0.074 C 
ATOM     21  H   UNL     1       5.569  -7.006  -0.260  0.00  0.00    -0.081 HD
BRANCH  19  22
ATOM     22  C   UNL     1       6.945  -6.818   1.238  0.00  0.00    -0.069 C 
ATOM     23  C   UNL     1       7.710  -8.024   0.689  0.00  0.00    -0.017 C 
ATOM     24  C   UNL     1       6.825  -8.178   1.928  0.00  0.00    -0.017 C 
ENDBRANCH  19  22
ENDBRANCH  15  16
ENDBRANCH   3  15
TORSDOF 5
