REMARK  Name = ZINC09135539
REMARK  9 active torsions:
REMARK  status: ('A' for Active; 'I' for Inactive)
REMARK    1  A    between atoms: C_1  and  N_2
REMARK    2  A    between atoms: C_10  and  C_12
REMARK    3  A    between atoms: C_12  and  C_14
REMARK    4  A    between atoms: C_12  and  N_64
REMARK    5  A    between atoms: C_14  and  N_15
REMARK    6  A    between atoms: C_16  and  C_18
REMARK    7  A    between atoms: N_20  and  C_21
REMARK    8  A    between atoms: C_25  and  S_27
REMARK    9  A    between atoms: S_27  and  C_28
REMARK                            x       y       z     vdW  Elec       q    Type
REMARK                         _______ _______ _______ _____ _____    ______ ____
ROOT
ATOM      1  C   UNL     1       3.202  10.527  -0.020  0.00  0.00    -0.020 C 
ENDROOT
BRANCH   1  11
ATOM      2  C   UNL     1       2.692  16.641  -1.528  0.00  0.00    +0.129 C 
ATOM      3  N   UNL     1       3.656  16.162  -0.528  0.00  0.00    -0.333 N 
ATOM      4  C   UNL     1       3.533  16.913   0.723  0.00  0.00    +0.105 C 
ATOM      5  C   UNL     1       4.542  16.352   1.733  0.00  0.00    +0.024 C 
ATOM      6  C   UNL     1       4.091  14.940   2.114  0.00  0.00    +0.038 C 
ATOM      7  C   UNL     1       3.751  14.162   0.868  0.00  0.00    -0.026 A 
ATOM      8  C   UNL     1       3.549  14.783  -0.352  0.00  0.00    +0.033 A 
ATOM      9  C   UNL     1       3.226  14.010  -1.469  0.00  0.00    +0.023 A 
ATOM     10  C   UNL     1       3.120  12.640  -1.362  0.00  0.00    +0.004 A 
ATOM     11  C   UNL     1       3.321  12.025  -0.140  0.00  0.00    -0.059 A 
ATOM     12  C   UNL     1       3.638  12.785   0.969  0.00  0.00    +0.007 A 
ENDBRANCH   1  11
BRANCH   1  17
ATOM     13  C   UNL     1       5.239  10.226  -1.318  0.00  0.00    -0.078 C 
ATOM     14  C   UNL     1       5.790   9.108  -2.239  0.00  0.00    -0.020 C 
ATOM     15  C   UNL     1       4.996   7.862  -1.782  0.00  0.00    -0.020 C 
ATOM     16  C   UNL     1       3.730   8.418  -1.104  0.00  0.00    -0.078 C 
ATOM     17  N   UNL     1       3.814   9.875  -1.217  0.00  0.00    +0.385 N 
ATOM     18  H   UNL     1       3.319  10.187  -2.060  0.00  0.00    -0.081 HD
ENDBRANCH   1  17
BRANCH   1  19
ATOM     19  C   UNL     1       1.725  10.140   0.079  0.00  0.00    +0.094 C 
BRANCH  19  20
ATOM     20  N   UNL     1       1.152  10.706   1.302  0.00  0.00    -0.309 N 
ATOM     21  C   UNL     1      -0.116  10.413   1.651  0.00  0.00    +0.299 C 
ATOM     22  O   UNL     1      -0.784   9.680   0.951  0.00  0.00    -0.265 OA
ATOM     23  H   UNL     1       1.686  11.292   1.862  0.00  0.00    +0.149 HD
BRANCH  21  24
ATOM     24  C   UNL     1      -0.700  10.990   2.899  0.00  0.00    +0.303 C 
ATOM     25  O   UNL     1      -0.032  11.723   3.599  0.00  0.00    -0.265 OA
ATOM     26  N   UNL     1      -1.968  10.697   3.247  0.00  0.00    -0.278 N 
ATOM     27  H   UNL     1      -2.477  10.052   2.731  0.00  0.00    +0.155 HD
BRANCH  26  28
ATOM     28  C   UNL     1      -2.551  11.323   4.353  0.00  0.00    +0.035 A 
ATOM     29  C   UNL     1      -3.903  11.646   4.336  0.00  0.00    +0.023 A 
ATOM     30  C   UNL     1      -4.481  12.264   5.428  0.00  0.00    +0.003 A 
ATOM     31  C   UNL     1      -3.718  12.563   6.540  0.00  0.00    +0.015 A 
ATOM     32  C   UNL     1      -2.364  12.247   6.562  0.00  0.00    +0.009 A 
ATOM     33  C   UNL     1      -1.782  11.621   5.468  0.00  0.00    +0.038 A 
BRANCH  32  34
ATOM     34  S   UNL     1      -1.390  12.635   7.978  0.00  0.00    -0.129 S 
ATOM     35  C   UNL     1      -2.565  13.418   9.117  0.00  0.00    +0.090 C 
ENDBRANCH  32  34
ENDBRANCH  26  28
ENDBRANCH  21  24
ENDBRANCH  19  20
ENDBRANCH   1  19
TORSDOF 7
