REMARK  Name = ZINC67059786
REMARK  8 active torsions:
REMARK  status: ('A' for Active; 'I' for Inactive)
REMARK    1  A    between atoms: C_1  and  C_2
REMARK    2  A    between atoms: N_8  and  C_9
REMARK    3  A    between atoms: C_9  and  C_11
REMARK    4  A    between atoms: C_9  and  C_12
REMARK    5  A    between atoms: C_12  and  N_13
REMARK    6  A    between atoms: N_16  and  N_17
REMARK    7  A    between atoms: C_18  and  C_20
REMARK    8  A    between atoms: C_20  and  C_21
REMARK                            x       y       z     vdW  Elec       q    Type
REMARK                         _______ _______ _______ _____ _____    ______ ____
ROOT
ATOM      1  N   UNL     1       2.681  -2.166   2.419  0.00  0.00    -0.300 N 
ATOM      2  C   UNL     1       3.111  -2.984   3.400  0.00  0.00    +0.316 C 
ATOM      3  O   UNL     1       3.673  -2.522   4.375  0.00  0.00    -0.251 OA
ATOM      4  N   UNL     1       2.919  -4.314   3.301  0.00  0.00    -0.218 N 
ATOM      5  H   UNL     1       2.233  -2.535   1.642  0.00  0.00    +0.150 HD
ATOM      6  H   UNL     1       3.228  -4.903   4.007  0.00  0.00    +0.174 HD
ENDROOT
BRANCH   4   7
ATOM      7  N   UNL     1       2.272  -4.847   2.178  0.00  0.00    -0.233 N 
ATOM      8  C   UNL     1       2.079  -6.177   2.079  0.00  0.00    +0.229 C 
ATOM      9  O   UNL     1       2.466  -6.913   2.962  0.00  0.00    -0.274 OA
ATOM     10  H   UNL     1       1.962  -4.258   1.472  0.00  0.00    +0.173 HD
BRANCH   8  11
ATOM     11  C   UNL     1       1.383  -6.750   0.871  0.00  0.00    +0.101 C 
BRANCH  11  12
ATOM     12  C   UNL     1       1.295  -8.271   1.008  0.00  0.00    -0.002 C 
ATOM     13  C   UNL     1       2.703  -8.868   0.984  0.00  0.00    +0.004 C 
ATOM     14  C   UNL     1       2.614 -10.390   1.120  0.00  0.00    +0.000 C 
ATOM     15  C   UNL     1       1.800 -10.959  -0.043  0.00  0.00    +0.000 C 
ATOM     16  C   UNL     1       0.391 -10.362  -0.019  0.00  0.00    +0.000 C 
ATOM     17  C   UNL     1       0.480  -8.841  -0.156  0.00  0.00    +0.004 C 
ENDBRANCH  11  12
ENDBRANCH   8  11
ENDBRANCH   4   7
BRANCH   1  18
ATOM     18  C   UNL     1       2.890  -0.720   2.527  0.00  0.00    +0.090 C 
BRANCH  18  19
ATOM     19  C   UNL     1       2.164  -0.013   1.381  0.00  0.00    -0.054 C 
ATOM     20  C   UNL     1       2.540   1.470   1.377  0.00  0.00    -0.012 C 
BRANCH  19  27
ATOM     21  C   UNL     1       0.785  -2.028  -0.005  0.00  0.00    -0.013 C 
ATOM     22  C   UNL     1       0.328  -1.554   1.376  0.00  0.00    -0.071 C 
ATOM     23  C   UNL     1      -1.192  -1.688   1.484  0.00  0.00    -0.016 C 
ATOM     24  C   UNL     1      -1.645  -1.212   2.867  0.00  0.00    -0.003 C 
ATOM     25  C   UNL     1      -1.173   0.229   3.080  0.00  0.00    -0.019 C 
ATOM     26  C   UNL     1       0.347   0.292   2.914  0.00  0.00    -0.078 C 
ATOM     27  N   UNL     1       0.713  -0.150   1.562  0.00  0.00    +0.384 N 
ATOM     28  H   UNL     1       0.235   0.422   0.882  0.00  0.00    -0.081 HD
ENDBRANCH  19  27
ENDBRANCH  18  19
ENDBRANCH   1  18
TORSDOF 6
