REMARK  Name = ZINC05722379
REMARK  10 active torsions:
REMARK  status: ('A' for Active; 'I' for Inactive)
REMARK    1  A    between atoms: C_1  and  C_2
REMARK    2  A    between atoms: C_4  and  C_22
REMARK    3  A    between atoms: C_6  and  C_13
REMARK    4  A    between atoms: C_8  and  C_12
REMARK    5  A    between atoms: C_16  and  O_21
REMARK    6  A    between atoms: C_17  and  O_19
REMARK    7  A    between atoms: O_19  and  C_20
REMARK    8  A    between atoms: C_25  and  O_30
REMARK    9  A    between atoms: C_26  and  O_28
REMARK   10  A    between atoms: O_28  and  C_29
REMARK                            x       y       z     vdW  Elec       q    Type
REMARK                         _______ _______ _______ _____ _____    ______ ____
ROOT
ATOM      1  C   UNL     1       0.543  -1.273   1.709  0.00  0.00    +0.014 C 
ATOM      2  C   UNL     1      -0.246  -0.465   2.741  0.00  0.00    +0.043 C 
ATOM      3  C   UNL     1      -1.739  -0.503   2.397  0.00  0.00    -0.030 C 
ATOM      4  C   UNL     1      -1.662   1.633   1.245  0.00  0.00    -0.030 C 
ATOM      5  C   UNL     1      -0.164   1.816   1.511  0.00  0.00    +0.043 C 
ATOM      6  C   UNL     1       0.210   0.979   2.716  0.00  0.00    +0.136 C 
ATOM      7  O   UNL     1       0.849   1.447   3.628  0.00  0.00    -0.297 OA
ATOM      8  C   UNL     1       0.637   1.352   0.293  0.00  0.00    +0.014 C 
ATOM      9  N   UNL     1      -1.970   0.194   1.117  0.00  0.00    +0.389 N 
ATOM     10  H   UNL     1      -2.954   0.083   0.844  0.00  0.00    -0.084 HD
ATOM     11  H   UNL     1      -1.367  -0.217   0.395  0.00  0.00    -0.084 HD
ENDROOT
BRANCH   4  12
ATOM     12  C   UNL     1      -2.034   2.331  -0.038  0.00  0.00    -0.057 A 
ATOM     13  C   UNL     1      -1.774   1.726  -1.253  0.00  0.00    +0.006 A 
ATOM     14  C   UNL     1      -2.118   2.359  -2.432  0.00  0.00    +0.049 A 
ATOM     15  C   UNL     1      -2.716   3.609  -2.398  0.00  0.00    +0.158 A 
ATOM     16  C   UNL     1      -2.973   4.221  -1.175  0.00  0.00    +0.161 A 
ATOM     17  C   UNL     1      -2.630   3.578   0.004  0.00  0.00    +0.051 A 
BRANCH  16  18
ATOM     18  O   UNL     1      -3.559   5.447  -1.136  0.00  0.00    -0.491 OA
ATOM     19  C   UNL     1      -3.793   6.014   0.154  0.00  0.00    +0.277 C 
ENDBRANCH  16  18
BRANCH  15  20
ATOM     20  O   UNL     1      -3.050   4.236  -3.558  0.00  0.00    -0.503 OA
ATOM     21  H   UNL     1      -2.351   4.799  -3.916  0.00  0.00    +0.292 HD
ENDBRANCH  15  20
ENDBRANCH   4  12
BRANCH   3  22
ATOM     22  C   UNL     1      -2.525   0.169   3.493  0.00  0.00    -0.057 A 
ATOM     23  C   UNL     1      -1.978   0.295   4.756  0.00  0.00    +0.006 A 
ATOM     24  C   UNL     1      -2.693   0.916   5.764  0.00  0.00    +0.049 A 
ATOM     25  C   UNL     1      -3.965   1.404   5.511  0.00  0.00    +0.158 A 
ATOM     26  C   UNL     1      -4.518   1.272   4.241  0.00  0.00    +0.161 A 
ATOM     27  C   UNL     1      -3.794   0.654   3.235  0.00  0.00    +0.051 A 
BRANCH  26  28
ATOM     28  O   UNL     1      -5.766   1.749   3.989  0.00  0.00    -0.491 OA
ATOM     29  C   UNL     1      -6.269   1.578   2.662  0.00  0.00    +0.277 C 
ENDBRANCH  26  28
BRANCH  25  30
ATOM     30  O   UNL     1      -4.671   2.010   6.503  0.00  0.00    -0.503 OA
ATOM     31  H   UNL     1      -5.221   1.406   7.020  0.00  0.00    +0.292 HD
ENDBRANCH  25  30
ENDBRANCH   3  22
TORSDOF 6
