REMARK  Name = ZINC32943938
REMARK  7 active torsions:
REMARK  status: ('A' for Active; 'I' for Inactive)
REMARK    1  A    between atoms: C_1  and  C_2
REMARK    2  A    between atoms: C_2  and  C_3
REMARK    3  A    between atoms: N_6  and  S_15
REMARK    4  A    between atoms: C_9  and  C_14
REMARK    5  A    between atoms: S_15  and  C_18
REMARK    6  A    between atoms: C_26  and  C_29
REMARK    7  A    between atoms: C_30  and  C_32
REMARK                            x       y       z     vdW  Elec       q    Type
REMARK                         _______ _______ _______ _____ _____    ______ ____
ROOT
ATOM      1  S   UNL     1      -0.944   0.594   2.411  0.00  0.00    +0.075 S 
ATOM      2  O   UNL     1      -2.130   0.999   3.081  0.00  0.00    -0.150 OA
ATOM      3  O   UNL     1      -0.832  -0.659   1.751  0.00  0.00    -0.150 OA
ENDROOT
BRANCH   1   4
ATOM      4  C   UNL     1       0.353   0.655   3.602  0.00  0.00    +0.111 A 
ATOM      5  C   UNL     1       0.235   1.477   4.707  0.00  0.00    +0.030 A 
ATOM      6  C   UNL     1       1.250   1.522   5.643  0.00  0.00    +0.018 A 
ATOM      7  C   UNL     1       2.391   0.746   5.476  0.00  0.00    +0.030 A 
ATOM      8  C   UNL     1       2.515  -0.079   4.362  0.00  0.00    +0.052 A 
ATOM      9  C   UNL     1       1.480  -0.122   3.431  0.00  0.00    +0.053 A 
ATOM     10  N   UNL     1       3.642  -0.872   4.130  0.00  0.00    -0.269 N 
ATOM     11  C   UNL     1       4.590  -1.232   5.180  0.00  0.00    +0.128 C 
ATOM     12  C   UNL     1       5.086   0.054   5.860  0.00  0.00    +0.066 C 
ATOM     13  S   UNL     1       3.664   0.820   6.695  0.00  0.00    -0.119 S 
ATOM     14  C   UNL     1       6.170  -0.284   6.885  0.00  0.00    +0.021 C 
ATOM     15  C   UNL     1       3.864  -1.325   2.881  0.00  0.00    +0.217 C 
ATOM     16  O   UNL     1       3.074  -1.073   1.995  0.00  0.00    -0.276 OA
ATOM     17  C   UNL     1       5.094  -2.143   2.583  0.00  0.00    +0.109 C 
ENDBRANCH   1   4
BRANCH   1  20
ATOM     18  C   UNL     1      -0.487   2.135  -1.119  0.00  0.00    +0.192 C 
ATOM     19  C   UNL     1       0.184   1.452   0.081  0.00  0.00    +0.176 C 
ATOM     20  N   UNL     1      -0.622   1.756   1.276  0.00  0.00    -0.196 N 
ATOM     21  C   UNL     1      -1.107   3.066   1.418  0.00  0.00    +0.093 A 
ATOM     22  C   UNL     1      -1.622   3.488   2.634  0.00  0.00    +0.031 A 
ATOM     23  C   UNL     1      -2.104   4.777   2.768  0.00  0.00    -0.048 A 
ATOM     24  C   UNL     1      -2.073   5.643   1.692  0.00  0.00    +0.007 A 
ATOM     25  C   UNL     1      -1.560   5.228   0.477  0.00  0.00    +0.048 A 
ATOM     26  C   UNL     1      -1.073   3.938   0.333  0.00  0.00    +0.143 A 
ATOM     27  O   UNL     1      -0.567   3.540  -0.864  0.00  0.00    -0.485 OA
ATOM     28  C   UNL     1      -2.664   5.237   4.090  0.00  0.00    +0.044 C 
BRANCH  18  30
ATOM     29  C   UNL     1      -0.389   2.464  -3.594  0.00  0.00    +0.007 C 
ATOM     30  C   UNL     1       0.344   1.889  -2.380  0.00  0.00    +0.043 C 
ENDBRANCH  18  30
ENDBRANCH   1  20
TORSDOF 3
