REMARK  Name = ZINC53681188
REMARK  11 active torsions:
REMARK  status: ('A' for Active; 'I' for Inactive)
REMARK    1  A    between atoms: C_1  and  C_2
REMARK    2  A    between atoms: C_2  and  C_4
REMARK    3  A    between atoms: C_2  and  N_16
REMARK    4  A    between atoms: N_6  and  C_7
REMARK    5  A    between atoms: C_10  and  C_13
REMARK    6  A    between atoms: N_16  and  C_17
REMARK    7  A    between atoms: N_16  and  C_18
REMARK    8  A    between atoms: C_18  and  C_19
REMARK    9  A    between atoms: C_19  and  C_20
REMARK   10  A    between atoms: C_20  and  O_21
REMARK   11  A    between atoms: O_21  and  C_22
REMARK                            x       y       z     vdW  Elec       q    Type
REMARK                         _______ _______ _______ _____ _____    ______ ____
ROOT
ATOM      1  C   UNL     1      -0.427   1.711   0.228  0.00  0.00    -0.004 C 
ATOM      2  C   UNL     1      -0.152   0.210   0.123  0.00  0.00    +0.016 C 
ENDROOT
BRANCH   2   3
ATOM      3  C   UNL     1       0.054  -0.360   1.503  0.00  0.00    +0.203 C 
ATOM      4  O   UNL     1      -0.884  -0.830   2.111  0.00  0.00    -0.277 OA
ATOM      5  N   UNL     1       1.281  -0.348   2.060  0.00  0.00    -0.287 N 
ATOM      6  H   UNL     1       2.018   0.086   1.601  0.00  0.00    +0.155 HD
BRANCH   5   7
ATOM      7  C   UNL     1       1.492  -0.959   3.296  0.00  0.00    +0.033 A 
ATOM      8  C   UNL     1       0.764  -2.093   3.642  0.00  0.00    +0.024 A 
ATOM      9  C   UNL     1       0.970  -2.699   4.861  0.00  0.00    +0.015 A 
ATOM     10  C   UNL     1       1.911  -2.173   5.751  0.00  0.00    +0.037 A 
ATOM     11  C   UNL     1       2.641  -1.034   5.399  0.00  0.00    +0.015 A 
ATOM     12  C   UNL     1       2.434  -0.437   4.176  0.00  0.00    +0.024 A 
BRANCH  10  13
ATOM     13  C   UNL     1       2.134  -2.820   7.059  0.00  0.00    +0.242 C 
ATOM     14  O   UNL     1       1.498  -3.810   7.364  0.00  0.00    -0.270 OA
ATOM     15  N   UNL     1       3.042  -2.312   7.916  0.00  0.00    -0.325 N 
ATOM     16  H   UNL     1       3.549  -1.522   7.673  0.00  0.00    +0.145 HD
ATOM     17  H   UNL     1       3.188  -2.737   8.775  0.00  0.00    +0.145 HD
ENDBRANCH  10  13
ENDBRANCH   5   7
ENDBRANCH   2   3
BRANCH   2  18
ATOM     18  N   UNL     1      -1.297  -0.454  -0.515  0.00  0.00    +0.385 N 
ATOM     19  C   UNL     1      -1.036  -1.896  -0.610  0.00  0.00    -0.095 C 
ATOM     20  H   UNL     1      -2.127  -0.298   0.038  0.00  0.00    -0.081 HD
BRANCH  18  21
ATOM     21  C   UNL     1      -1.496   0.098  -1.861  0.00  0.00    -0.075 C 
BRANCH  21  22
ATOM     22  C   UNL     1      -2.761  -0.503  -2.478  0.00  0.00    +0.022 C 
BRANCH  22  23
ATOM     23  C   UNL     1      -2.967   0.072  -3.880  0.00  0.00    +0.227 C 
BRANCH  23  24
ATOM     24  O   UNL     1      -4.149  -0.489  -4.456  0.00  0.00    -0.492 OA
BRANCH  24  25
ATOM     25  C   UNL     1      -4.478  -0.080  -5.710  0.00  0.00    +0.121 A 
ATOM     26  C   UNL     1      -3.677   0.837  -6.374  0.00  0.00    +0.047 A 
ATOM     27  C   UNL     1      -4.014   1.251  -7.648  0.00  0.00    +0.023 A 
ATOM     28  C   UNL     1      -5.149   0.752  -8.262  0.00  0.00    +0.041 A 
ATOM     29  C   UNL     1      -5.950  -0.163  -7.601  0.00  0.00    +0.023 A 
ATOM     30  C   UNL     1      -5.613  -0.584  -6.329  0.00  0.00    +0.047 A 
ATOM     31 CL   UNL     1      -5.571   1.274  -9.863  0.00  0.00    -0.084 Cl
ENDBRANCH  24  25
ENDBRANCH  23  24
ENDBRANCH  22  23
ENDBRANCH  21  22
ENDBRANCH  18  21
ENDBRANCH   2  18
TORSDOF 9
