REMARK  Name = ZINC36027433
REMARK  8 active torsions:
REMARK  status: ('A' for Active; 'I' for Inactive)
REMARK    1  A    between atoms: C_1  and  C_2
REMARK    2  A    between atoms: C_2  and  C_3
REMARK    3  A    between atoms: C_3  and  C_5
REMARK    4  A    between atoms: C_3  and  C_6
REMARK    5  A    between atoms: N_10  and  C_29
REMARK    6  A    between atoms: N_15  and  S_18
REMARK    7  A    between atoms: S_18  and  C_21
REMARK    8  A    between atoms: C_29  and  C_30
REMARK                            x       y       z     vdW  Elec       q    Type
REMARK                         _______ _______ _______ _____ _____    ______ ____
ROOT
ATOM      1  C   UNL     1      -2.214  -1.757   0.312  0.00  0.00    +0.022 C 
ATOM      2  C   UNL     1      -2.843  -2.835   1.168  0.00  0.00    +0.201 C 
ATOM      3  O   UNL     1      -3.927  -3.346   0.980  0.00  0.00    -0.277 OA
ATOM      4  N   UNL     1      -1.996  -3.131   2.175  0.00  0.00    -0.309 N 
ATOM      5  C   UNL     1      -0.790  -2.307   2.058  0.00  0.00    +0.006 C 
ATOM      6  N   UNL     1      -1.131  -1.188   1.151  0.00  0.00    +0.401 N 
ATOM      7  C   UNL     1       0.352  -3.125   1.457  0.00  0.00    +0.023 C 
ATOM      8  C   UNL     1       0.673  -4.304   2.381  0.00  0.00    +0.109 C 
ATOM      9  N   UNL     1       0.934  -3.788   3.732  0.00  0.00    -0.177 NA
ATOM     10  C   UNL     1      -0.073  -2.927   4.367  0.00  0.00    +0.109 C 
ATOM     11  C   UNL     1      -0.389  -1.760   3.426  0.00  0.00    +0.023 C 
ATOM     12  H   UNL     1      -0.338  -0.932   0.583  0.00  0.00    -0.082 HD
ATOM     13  H   UNL     1      -1.467  -0.395   1.676  0.00  0.00    -0.082 HD
ENDROOT
BRANCH   9  14
ATOM     14  S   UNL     1       2.337  -4.169   4.524  0.00  0.00    +0.062 S 
ATOM     15  O   UNL     1       2.088  -3.972   5.909  0.00  0.00    -0.153 OA
ATOM     16  O   UNL     1       2.775  -5.415   3.998  0.00  0.00    -0.153 OA
BRANCH  14  17
ATOM     17  C   UNL     1       3.543  -2.973   4.054  0.00  0.00    +0.125 A 
ATOM     18  C   UNL     1       4.011  -2.062   4.982  0.00  0.00    +0.030 A 
ATOM     19  C   UNL     1       4.956  -1.123   4.614  0.00  0.00    +0.003 A 
ATOM     20  C   UNL     1       5.435  -1.095   3.317  0.00  0.00    +0.021 A 
ATOM     21  C   UNL     1       4.968  -2.006   2.387  0.00  0.00    +0.061 A 
ATOM     22  C   UNL     1       4.025  -2.950   2.758  0.00  0.00    +0.086 A 
ATOM     23 CL   UNL     1       3.443  -4.100   1.594  0.00  0.00    -0.080 Cl
ATOM     24 CL   UNL     1       5.568  -1.971   0.759  0.00  0.00    -0.082 Cl
ENDBRANCH  14  17
ENDBRANCH   9  14
BRANCH   1  25
ATOM     25  C   UNL     1      -3.244  -0.679  -0.031  0.00  0.00    -0.020 C 
ATOM     26  C   UNL     1      -2.569   0.435  -0.833  0.00  0.00    +0.006 C 
BRANCH  25  28
ATOM     27  C   UNL     1      -5.461  -0.251  -1.100  0.00  0.00    +0.004 C 
ATOM     28  C   UNL     1      -4.370  -1.297  -0.863  0.00  0.00    -0.001 C 
ENDBRANCH  25  28
ENDBRANCH   1  25
BRANCH   4  29
ATOM     29  C   UNL     1      -2.243  -4.123   3.224  0.00  0.00    +0.141 C 
BRANCH  29  30
ATOM     30  C   UNL     1      -3.129  -3.523   4.285  0.00  0.00    -0.030 A 
ATOM     31  C   UNL     1      -2.921  -3.834   5.616  0.00  0.00    +0.005 A 
ATOM     32  C   UNL     1      -3.734  -3.283   6.589  0.00  0.00    +0.000 A 
ATOM     33  C   UNL     1      -4.753  -2.420   6.232  0.00  0.00    +0.000 A 
ATOM     34  C   UNL     1      -4.960  -2.109   4.901  0.00  0.00    +0.000 A 
ATOM     35  C   UNL     1      -4.145  -2.656   3.928  0.00  0.00    +0.005 A 
ENDBRANCH  29  30
ENDBRANCH   4  29
TORSDOF 6
