REMARK  Name = ZINC43139443
REMARK  9 active torsions:
REMARK  status: ('A' for Active; 'I' for Inactive)
REMARK    1  A    between atoms: C_1  and  O_2
REMARK    2  A    between atoms: O_2  and  C_3
REMARK    3  A    between atoms: C_6  and  C_9
REMARK    4  A    between atoms: C_9  and  C_11
REMARK    5  A    between atoms: C_9  and  N_25
REMARK    6  A    between atoms: C_11  and  N_12
REMARK    7  A    between atoms: N_15  and  N_16
REMARK    8  A    between atoms: N_16  and  C_17
REMARK    9  A    between atoms: C_21  and  C_23
REMARK                            x       y       z     vdW  Elec       q    Type
REMARK                         _______ _______ _______ _____ _____    ______ ____
ROOT
ATOM      1  C   UNL     1       1.470  -2.935  -5.474  0.00  0.00    +0.095 C 
ENDROOT
BRANCH   1   2
ATOM      2  N   UNL     1       0.734  -1.752  -5.929  0.00  0.00    -0.299 N 
ATOM      3  C   UNL     1      -0.283  -1.887  -6.802  0.00  0.00    +0.316 C 
ATOM      4  O   UNL     1      -0.591  -2.989  -7.213  0.00  0.00    -0.251 OA
ATOM      5  N   UNL     1      -0.960  -0.799  -7.220  0.00  0.00    -0.220 N 
ATOM      6  H   UNL     1       0.980  -0.873  -5.601  0.00  0.00    +0.150 HD
ATOM      7  H   UNL     1      -1.693  -0.895  -7.849  0.00  0.00    +0.174 HD
BRANCH   5   8
ATOM      8  N   UNL     1      -0.606   0.472  -6.747  0.00  0.00    -0.263 N 
ATOM      9  H   UNL     1       0.127   0.568  -6.119  0.00  0.00    +0.170 HD
BRANCH   8  10
ATOM     10  C   UNL     1      -1.307   1.599  -7.181  0.00  0.00    +0.046 A 
ATOM     11  C   UNL     1      -2.361   1.461  -8.078  0.00  0.00    +0.024 A 
ATOM     12  C   UNL     1      -3.057   2.573  -8.510  0.00  0.00    +0.003 A 
ATOM     13  C   UNL     1      -2.712   3.829  -8.055  0.00  0.00    +0.019 A 
ATOM     14  C   UNL     1      -1.656   3.980  -7.154  0.00  0.00    +0.054 A 
ATOM     15  C   UNL     1      -0.956   2.856  -6.713  0.00  0.00    +0.043 A 
BRANCH  14  16
ATOM     16  C   UNL     1      -1.296   5.282  -6.680  0.00  0.00    +0.099 C 
ATOM     17  N   UNL     1      -1.011   6.316  -6.304  0.00  0.00    -0.191 NA
ENDBRANCH  14  16
ENDBRANCH   8  10
ENDBRANCH   5   8
ENDBRANCH   1   2
BRANCH   1  18
ATOM     18  C   UNL     1       2.476  -2.527  -4.396  0.00  0.00    -0.020 C 
BRANCH  18  19
ATOM     19  N   UNL     1       3.276  -3.695  -4.006  0.00  0.00    +0.385 N 
ATOM     20  C   UNL     1       4.203  -3.315  -2.932  0.00  0.00    -0.078 C 
ATOM     21  C   UNL     1       4.982  -4.546  -2.466  0.00  0.00    -0.019 C 
ATOM     22  C   UNL     1       5.773  -5.120  -3.645  0.00  0.00    -0.004 C 
ATOM     23  C   UNL     1       4.805  -5.444  -4.787  0.00  0.00    -0.019 C 
ATOM     24  C   UNL     1       4.032  -4.179  -5.168  0.00  0.00    -0.078 C 
ATOM     25  H   UNL     1       2.664  -4.426  -3.676  0.00  0.00    -0.081 HD
ENDBRANCH  18  19
BRANCH  18  29
ATOM     26  C   UNL     1       0.381  -1.030  -0.986  0.00  0.00    +0.120 A 
ATOM     27  C   UNL     1       0.945  -0.149  -1.896  0.00  0.00    +0.046 A 
ATOM     28  C   UNL     1       1.622  -0.635  -2.998  0.00  0.00    +0.005 A 
ATOM     29  C   UNL     1       1.737  -1.999  -3.193  0.00  0.00    -0.059 A 
ATOM     30  C   UNL     1       1.175  -2.880  -2.288  0.00  0.00    +0.005 A 
ATOM     31  C   UNL     1       0.503  -2.398  -1.181  0.00  0.00    +0.046 A 
BRANCH  26  33
ATOM     32  C   UNL     1      -0.371   0.865   0.236  0.00  0.00    +0.277 C 
ATOM     33  O   UNL     1      -0.285  -0.555   0.099  0.00  0.00    -0.495 OA
ENDBRANCH  26  33
ENDBRANCH  18  29
ENDBRANCH   1  18
TORSDOF 8
