REMARK  Name = ZINC67559342
REMARK  7 active torsions:
REMARK  status: ('A' for Active; 'I' for Inactive)
REMARK    1  A    between atoms: C_4  and  C_7
REMARK    2  A    between atoms: C_7  and  C_8
REMARK    3  A    between atoms: C_7  and  C_14
REMARK    4  A    between atoms: C_23  and  CA_25
REMARK    5  A    between atoms: CA_25  and  C_27
REMARK    6  A    between atoms: CA_25  and  N_29
REMARK    7  A    between atoms: C_27  and  O_28
REMARK                            x       y       z     vdW  Elec       q    Type
REMARK                         _______ _______ _______ _____ _____    ______ ____
ROOT
ATOM      1  C   UNL     1       3.671  -1.663  -1.202  0.00  0.00    +0.100 A 
ATOM      2  C   UNL     1       4.570  -1.692  -2.275  0.00  0.00    +0.036 A 
ATOM      3  C   UNL     1       4.204  -2.691  -3.109  0.00  0.00    +0.144 A 
ATOM      4  O   UNL     1       3.114  -3.274  -2.599  0.00  0.00    -0.359 OA
ATOM      5  N   UNL     1       2.797  -2.615  -1.384  0.00  0.00    -0.082 NA
ATOM      6  C   UNL     1       4.931  -3.054  -4.380  0.00  0.00    +0.096 C 
ATOM      7  C   UNL     1       5.821  -1.875  -4.795  0.00  0.00    +0.116 C 
ATOM      8  N   UNL     1       6.541  -1.376  -3.614  0.00  0.00    -0.298 N 
ATOM      9  C   UNL     1       5.756  -0.788  -2.513  0.00  0.00    +0.148 C 
ATOM     10  C   UNL     1       7.884  -1.453  -3.540  0.00  0.00    +0.204 C 
ATOM     11  O   UNL     1       8.463  -1.036  -2.559  0.00  0.00    -0.277 OA
ENDROOT
BRANCH   1  12
ATOM     12  C   UNL     1       3.711  -0.707  -0.038  0.00  0.00    +0.101 C 
BRANCH  12  16
ATOM     13  C   UNL     1       0.074   1.530   0.090  0.00  0.00    +0.000 A 
ATOM     14  C   UNL     1       1.290   2.187   0.087  0.00  0.00    +0.000 A 
ATOM     15  C   UNL     1       2.467   1.463   0.046  0.00  0.00    +0.004 A 
ATOM     16  C   UNL     1       2.428   0.082   0.008  0.00  0.00    -0.034 A 
ATOM     17  C   UNL     1       1.212  -0.576   0.013  0.00  0.00    +0.004 A 
ATOM     18  C   UNL     1       0.035   0.148   0.052  0.00  0.00    +0.000 A 
ENDBRANCH  12  16
BRANCH  12  19
ATOM     19  C   UNL     1       3.870  -1.483   1.245  0.00  0.00    -0.034 A 
ATOM     20  C   UNL     1       3.012  -2.528   1.531  0.00  0.00    +0.004 A 
ATOM     21  C   UNL     1       3.158  -3.240   2.707  0.00  0.00    +0.000 A 
ATOM     22  C   UNL     1       4.161  -2.906   3.597  0.00  0.00    +0.000 A 
ATOM     23  C   UNL     1       5.020  -1.861   3.310  0.00  0.00    +0.000 A 
ATOM     24  C   UNL     1       4.877  -1.153   2.132  0.00  0.00    +0.004 A 
ENDBRANCH  12  19
ENDBRANCH   1  12
BRANCH  10  25
ATOM     25  CA  UNL     1       8.668  -2.058  -4.677  0.00  0.00    +0.039 C 
BRANCH  25  26
ATOM     26  N   UNL     1       9.994  -2.466  -4.194  0.00  0.00    +0.387 N 
ATOM     27  H1  UNL     1      10.485  -1.660  -3.839  0.00  0.00    -0.089 HD
ATOM     28  H2  UNL     1       9.889  -3.148  -3.458  0.00  0.00    -0.089 HD
ATOM     29  H3  UNL     1      10.518  -2.871  -4.955  0.00  0.00    -0.089 HD
ENDBRANCH  25  26
BRANCH  25  30
ATOM     30  C   UNL     1       8.827  -1.024  -5.793  0.00  0.00    +0.149 C 
BRANCH  30  31
ATOM     31  O   UNL     1       9.467  -1.632  -6.917  0.00  0.00    -0.396 OA
ATOM     32  H   UNL     1       9.601  -1.033  -7.665  0.00  0.00    +0.209 HD
ENDBRANCH  30  31
ENDBRANCH  25  30
ENDBRANCH  10  25
TORSDOF 7
