REMARK  Name = ZINC50198911
REMARK  6 active torsions:
REMARK  status: ('A' for Active; 'I' for Inactive)
REMARK    1  A    between atoms: N_3  and  C_17
REMARK    2  A    between atoms: N_6  and  S_8
REMARK    3  A    between atoms: S_8  and  C_11
REMARK    4  A    between atoms: C_17  and  C_18
REMARK    5  A    between atoms: C_18  and  C_19
REMARK    6  A    between atoms: C_19  and  N_20
REMARK                            x       y       z     vdW  Elec       q    Type
REMARK                         _______ _______ _______ _____ _____    ______ ____
ROOT
ATOM      1  C   UNL     1      -0.102   1.386  -0.525  0.00  0.00    -0.002 C 
ATOM      2  C   UNL     1       1.271   2.006  -0.386  0.00  0.00    -0.077 C 
ATOM      3  N   UNL     1       1.873   2.144  -1.710  0.00  0.00    +0.381 N 
ATOM      4  C   UNL     1       2.595   1.016  -2.158  0.00  0.00    -0.062 C 
ATOM      5  C   UNL     1       1.646  -0.194  -2.327  0.00  0.00    +0.090 C 
ATOM      6  N   UNL     1       1.214  -0.664  -1.027  0.00  0.00    -0.183 NA
ATOM      7  C   UNL     1       0.005  -0.141  -0.358  0.00  0.00    +0.107 C 
ATOM      8  H   UNL     1       1.139   2.337  -2.375  0.00  0.00    -0.082 HD
ENDROOT
BRANCH   6   9
ATOM      9  S   UNL     1       2.106  -1.831  -0.263  0.00  0.00    +0.035 S 
ATOM     10  O   UNL     1       3.443  -1.602  -0.688  0.00  0.00    -0.158 OA
ATOM     11  O   UNL     1       1.753  -1.718   1.109  0.00  0.00    -0.158 OA
BRANCH   9  12
ATOM     12  C   UNL     1       1.497  -3.401  -0.938  0.00  0.00    +0.152 C 
ATOM     13  C   UNL     1      -0.018  -3.493  -0.733  0.00  0.00    +0.056 C 
ATOM     14  C   UNL     1      -0.512  -4.853  -1.234  0.00  0.00    +0.161 C 
ATOM     15  O   UNL     1       0.177  -5.893  -0.538  0.00  0.00    -0.380 OA
ATOM     16  C   UNL     1       1.593  -5.886  -0.731  0.00  0.00    +0.161 C 
ATOM     17  C   UNL     1       2.171  -4.568  -0.210  0.00  0.00    +0.056 C 
ENDBRANCH   9  12
ENDBRANCH   6   9
BRANCH   3  18
ATOM     18  C   UNL     1       2.784   3.297  -1.687  0.00  0.00    -0.081 C 
BRANCH  18  19
ATOM     19  C   UNL     1       1.974   4.583  -1.511  0.00  0.00    -0.038 C 
BRANCH  19  20
ATOM     20  C   UNL     1       2.927   5.772  -1.377  0.00  0.00    -0.088 C 
BRANCH  20  21
ATOM     21  N   UNL     1       2.149   7.007  -1.208  0.00  0.00    +0.378 N 
ATOM     22  H   UNL     1       2.778   7.791  -1.120  0.00  0.00    -0.090 HD
ATOM     23  H   UNL     1       1.554   7.142  -2.011  0.00  0.00    -0.090 HD
ATOM     24  H   UNL     1       1.582   6.936  -0.377  0.00  0.00    -0.090 HD
ENDBRANCH  20  21
ENDBRANCH  19  20
ENDBRANCH  18  19
ENDBRANCH   3  18
TORSDOF 6
