REMARK  Name = ZINC13915647
REMARK  9 active torsions:
REMARK  status: ('A' for Active; 'I' for Inactive)
REMARK    1  A    between atoms: C_1  and  C_2
REMARK    2  A    between atoms: C_2  and  O_3
REMARK    3  A    between atoms: O_3  and  C_4
REMARK    4  A    between atoms: C_6  and  C_12
REMARK    5  A    between atoms: C_9  and  O_10
REMARK    6  A    between atoms: C_14  and  C_21
REMARK    7  A    between atoms: C_15  and  C_20
REMARK    8  A    between atoms: N_23  and  C_24
REMARK    9  A    between atoms: C_27  and  C_30
REMARK                            x       y       z     vdW  Elec       q    Type
REMARK                         _______ _______ _______ _____ _____    ______ ____
ROOT
ATOM      1  C   UNL     1       0.272   0.421   1.259  0.00  0.00    +0.142 C 
ATOM      2  C   UNL     1       0.776   0.470   2.687  0.00  0.00    +0.056 C 
ATOM      3  C   UNL     1       2.090   0.242   2.897  0.00  0.00    +0.019 C 
ATOM      4  N   UNL     1       2.935  -0.025   1.857  0.00  0.00    -0.273 N 
ATOM      5  C   UNL     1       2.543  -0.080   0.577  0.00  0.00    +0.304 C 
ATOM      6  O   UNL     1       3.369  -0.325  -0.281  0.00  0.00    -0.252 OA
ATOM      7  N   UNL     1       1.263   0.127   0.210  0.00  0.00    -0.288 N 
ATOM      8  C   UNL     1       2.633   0.280   4.302  0.00  0.00    +0.061 C 
ATOM      9  H   UNL     1       3.871  -0.182   2.056  0.00  0.00    +0.156 HD
ATOM     10  H   UNL     1       1.000   0.082  -0.723  0.00  0.00    +0.151 HD
ENDROOT
BRANCH   1  13
ATOM     11  C   UNL     1      -2.312   3.121   0.700  0.00  0.00    +0.163 A 
ATOM     12  C   UNL     1      -1.732   1.895   0.986  0.00  0.00    +0.055 A 
ATOM     13  C   UNL     1      -0.357   1.754   0.943  0.00  0.00    -0.018 A 
ATOM     14  C   UNL     1       0.441   2.831   0.606  0.00  0.00    +0.025 A 
ATOM     15  C   UNL     1      -0.131   4.056   0.315  0.00  0.00    +0.063 A 
ATOM     16  C   UNL     1      -1.509   4.205   0.361  0.00  0.00    +0.173 A 
ATOM     17 BR   UNL     1       0.965   5.526  -0.147  0.00  0.00    -0.046 Br
BRANCH  16  18
ATOM     18  O   UNL     1      -2.074   5.409   0.075  0.00  0.00    -0.503 OA
ATOM     19  H   UNL     1      -2.290   5.530  -0.860  0.00  0.00    +0.292 HD
ENDBRANCH  16  18
BRANCH  11  20
ATOM     20  O   UNL     1      -3.663   3.263   0.747  0.00  0.00    -0.489 OA
BRANCH  20  22
ATOM     21  C   UNL     1      -5.909   2.451   1.119  0.00  0.00    +0.048 C 
ATOM     22  C   UNL     1      -4.432   2.079   0.971  0.00  0.00    +0.226 C 
ENDBRANCH  20  22
ENDBRANCH  11  20
ENDBRANCH   1  13
BRANCH   2  23
ATOM     23  C   UNL     1      -0.101   0.746   3.764  0.00  0.00    +0.248 C 
ATOM     24  O   UNL     1      -1.027  -0.007   4.003  0.00  0.00    -0.270 OA
ATOM     25  N   UNL     1       0.091   1.841   4.525  0.00  0.00    -0.282 N 
ATOM     26  H   UNL     1       0.892   2.376   4.413  0.00  0.00    +0.155 HD
BRANCH  25  27
ATOM     27  C   UNL     1      -0.866   2.207   5.478  0.00  0.00    +0.034 A 
ATOM     28  C   UNL     1      -1.710   1.247   6.021  0.00  0.00    +0.023 A 
ATOM     29  C   UNL     1      -2.651   1.611   6.964  0.00  0.00    +0.005 A 
ATOM     30  C   UNL     1      -2.760   2.931   7.361  0.00  0.00    -0.050 A 
ATOM     31  C   UNL     1      -1.924   3.890   6.818  0.00  0.00    +0.005 A 
ATOM     32  C   UNL     1      -0.978   3.532   5.878  0.00  0.00    +0.023 A 
ATOM     33  C   UNL     1      -3.791   3.325   8.386  0.00  0.00    +0.044 C 
ENDBRANCH  25  27
ENDBRANCH   2  23
TORSDOF 6
