REMARK  Name = ZINC67119439
REMARK  8 active torsions:
REMARK  status: ('A' for Active; 'I' for Inactive)
REMARK    1  A    between atoms: C_1  and  C_2
REMARK    2  A    between atoms: C_2  and  C_4
REMARK    3  A    between atoms: C_2  and  N_16
REMARK    4  A    between atoms: C_10  and  C_13
REMARK    5  A    between atoms: C_22  and  C_24
REMARK    6  A    between atoms: C_24  and  N_25
REMARK    7  A    between atoms: N_25  and  C_26
REMARK    8  A    between atoms: N_25  and  C_27
REMARK                            x       y       z     vdW  Elec       q    Type
REMARK                         _______ _______ _______ _____ _____    ______ ____
ROOT
ATOM      1  C   UNL     1      -0.043   1.520   0.051  0.00  0.00    +0.034 C 
ATOM      2  C   UNL     1       0.001  -0.009   0.031  0.00  0.00    +0.140 C 
ENDROOT
BRANCH   2   3
ATOM      3  C   UNL     1       0.613  -0.477  -1.264  0.00  0.00    +0.233 C 
ATOM      4  O   UNL     1      -0.100  -0.769  -2.201  0.00  0.00    -0.274 OA
ATOM      5  N   UNL     1       1.952  -0.570  -1.381  0.00  0.00    -0.299 N 
ATOM      6  C   UNL     1       2.833  -0.110  -0.299  0.00  0.00    +0.108 C 
ATOM      7  C   UNL     1       3.784  -1.248   0.081  0.00  0.00    +0.020 C 
ATOM      8  C   UNL     1       4.524  -1.728  -1.170  0.00  0.00    +0.016 C 
ATOM      9  C   UNL     1       3.515  -2.261  -2.189  0.00  0.00    +0.092 C 
ATOM     10  C   UNL     1       2.560  -1.139  -2.592  0.00  0.00    +0.120 C 
BRANCH   9  11
ATOM     11  C   UNL     1       4.247  -2.763  -3.407  0.00  0.00    +0.215 C 
ATOM     12  O   UNL     1       4.026  -2.271  -4.493  0.00  0.00    -0.276 OA
ATOM     13  N   UNL     1       5.147  -3.759  -3.289  0.00  0.00    -0.329 N 
ATOM     14  H   UNL     1       5.324  -4.153  -2.421  0.00  0.00    +0.145 HD
ATOM     15  H   UNL     1       5.619  -4.082  -4.073  0.00  0.00    +0.145 HD
ENDBRANCH   9  11
ENDBRANCH   2   3
BRANCH   2  16
ATOM     16  N   UNL     1      -1.364  -0.539   0.147  0.00  0.00    -0.289 NA
ATOM     17  C   UNL     1      -1.360  -2.008   0.141  0.00  0.00    +0.104 C 
ATOM     18  C   UNL     1      -2.804  -2.519   0.081  0.00  0.00    +0.123 C 
ATOM     19  N   UNL     1      -3.563  -1.904   1.180  0.00  0.00    -0.301 N 
ATOM     20  C   UNL     1      -3.504  -0.443   1.334  0.00  0.00    +0.123 C 
ATOM     21  C   UNL     1      -2.033  -0.013   1.345  0.00  0.00    +0.104 C 
ATOM     22  C   UNL     1      -4.294  -2.659   2.024  0.00  0.00    +0.199 C 
ATOM     23  O   UNL     1      -4.332  -3.863   1.882  0.00  0.00    -0.278 OA
BRANCH  22  24
ATOM     24  C   UNL     1      -5.065  -2.008   3.143  0.00  0.00    +0.018 C 
BRANCH  24  25
ATOM     25  N   UNL     1      -5.774  -3.038   3.913  0.00  0.00    +0.382 N 
ATOM     26  C   UNL     1      -6.428  -2.419   5.074  0.00  0.00    -0.096 C 
ATOM     27  C   UNL     1      -6.788  -3.675   3.062  0.00  0.00    -0.096 C 
ATOM     28  H   UNL     1      -5.116  -3.734   4.230  0.00  0.00    -0.082 HD
ENDBRANCH  24  25
ENDBRANCH  22  24
ENDBRANCH   2  16
TORSDOF 5
