REMARK  Name = ZINC48024582
REMARK  7 active torsions:
REMARK  status: ('A' for Active; 'I' for Inactive)
REMARK    1  A    between atoms: C_1  and  C_2
REMARK    2  A    between atoms: C_5  and  N_8
REMARK    3  A    between atoms: C_9  and  C_11
REMARK    4  A    between atoms: C_11  and  C_13
REMARK    5  A    between atoms: C_11  and  N_14
REMARK    6  A    between atoms: C_17  and  C_20
REMARK    7  A    between atoms: C_20  and  C_21
REMARK                            x       y       z     vdW  Elec       q    Type
REMARK                         _______ _______ _______ _____ _____    ______ ____
ROOT
ATOM      1  C   UNL     1      -1.941  -2.293   4.845  0.00  0.00    +0.016 C 
ATOM      2  C   UNL     1      -3.430  -2.191   4.511  0.00  0.00    -0.004 C 
ENDROOT
BRANCH   1   3
ATOM      3  N   UNL     1      -1.748  -3.264   5.931  0.00  0.00    +0.387 N 
ATOM      4  C   UNL     1      -0.325  -3.327   6.283  0.00  0.00    -0.078 C 
ATOM      5  C   UNL     1      -0.107  -4.395   7.357  0.00  0.00    -0.015 C 
ATOM      6  C   UNL     1      -0.927  -4.036   8.599  0.00  0.00    -0.006 C 
ATOM      7  C   UNL     1      -2.400  -3.901   8.205  0.00  0.00    -0.015 C 
ATOM      8  C   UNL     1      -2.533  -2.851   7.100  0.00  0.00    -0.078 C 
ATOM      9  H   UNL     1      -2.057  -4.175   5.625  0.00  0.00    -0.081 HD
BRANCH   6  10
ATOM     10  C   UNL     1      -0.776  -5.140   9.648  0.00  0.00    +0.099 C 
BRANCH  10  11
ATOM     11  C   UNL     1      -1.482  -4.730  10.914  0.00  0.00    +0.211 C 
ATOM     12  O   UNL     1      -2.050  -3.659  10.973  0.00  0.00    -0.276 OA
ATOM     13  N   UNL     1      -1.483  -5.552  11.982  0.00  0.00    -0.329 N 
ATOM     14  H   UNL     1      -1.030  -6.408  11.935  0.00  0.00    +0.145 HD
ATOM     15  H   UNL     1      -1.938  -5.288  12.797  0.00  0.00    +0.145 HD
ENDBRANCH  10  11
ENDBRANCH   6  10
ENDBRANCH   1   3
BRANCH   1  17
ATOM     16  N   UNL     1      -0.743  -1.841   2.729  0.00  0.00    -0.314 N 
ATOM     17  C   UNL     1      -1.182  -2.747   3.625  0.00  0.00    +0.199 C 
ATOM     18  O   UNL     1      -0.967  -3.928   3.449  0.00  0.00    -0.278 OA
ATOM     19  H   UNL     1      -0.915  -0.897   2.869  0.00  0.00    +0.149 HD
BRANCH  16  24
ATOM     20  C   UNL     1       2.432   1.288   1.729  0.00  0.00    +0.007 C 
ATOM     21  C   UNL     1       1.876  -0.056   1.254  0.00  0.00    -0.014 C 
ATOM     22  C   UNL     1       0.395   0.100   0.905  0.00  0.00    +0.005 C 
ATOM     23  C   UNL     1      -0.161  -1.244   0.430  0.00  0.00    +0.022 C 
ATOM     24  C   UNL     1      -0.006  -2.283   1.542  0.00  0.00    +0.073 C 
ATOM     25  C   UNL     1       1.476  -2.438   1.891  0.00  0.00    +0.022 C 
ATOM     26  C   UNL     1       2.032  -1.094   2.367  0.00  0.00    +0.005 C 
ENDBRANCH  16  24
ENDBRANCH   1  17
TORSDOF 5
