REMARK  Name = ZINC62836140
REMARK  5 active torsions:
REMARK  status: ('A' for Active; 'I' for Inactive)
REMARK    1  A    between atoms: C_3  and  C_18
REMARK    2  A    between atoms: C_4  and  C_14
REMARK    3  A    between atoms: C_6  and  S_7
REMARK    4  A    between atoms: S_7  and  C_8
REMARK    5  A    between atoms: C_8  and  C_9
REMARK                            x       y       z     vdW  Elec       q    Type
REMARK                         _______ _______ _______ _____ _____    ______ ____
ROOT
ATOM      1  C   UNL     1       0.020   1.332  -0.019  0.00  0.00    +0.015 A 
ATOM      2  C   UNL     1       1.154   2.090   0.161  0.00  0.00    +0.013 A 
ATOM      3  C   UNL     1       2.400   1.466   0.269  0.00  0.00    +0.024 A 
ATOM      4  C   UNL     1       2.490   0.073   0.195  0.00  0.00    +0.066 A 
ATOM      5  C   UNL     1       1.353  -0.680   0.015  0.00  0.00    +0.027 A 
ATOM      6  C   UNL     1       0.113  -0.056  -0.093  0.00  0.00    +0.008 A 
ENDROOT
BRANCH   3   7
ATOM      7  C   UNL     1       3.619   2.277   0.462  0.00  0.00    +0.095 C 
ATOM      8  N   UNL     1       4.620   2.194  -0.414  0.00  0.00    -0.387 N 
ATOM      9  N   UNL     1       3.718   3.092   1.512  0.00  0.00    -0.345 N 
ATOM     10  H   UNL     1       4.514   1.669  -1.223  0.00  0.00    +0.157 HD
ATOM     11  H   UNL     1       2.989   3.153   2.149  0.00  0.00    +0.144 HD
ATOM     12  H   UNL     1       4.519   3.625   1.639  0.00  0.00    +0.144 HD
ATOM     13  H   UNL     1       5.455   2.657  -0.242  0.00  0.00    +0.157 HD
ENDBRANCH   3   7
BRANCH   4  14
ATOM     14  C   UNL     1       3.832  -0.603   0.311  0.00  0.00    +0.418 C 
ATOM     15  F   UNL     1       3.655  -1.990   0.341  0.00  0.00    -0.166 F 
ATOM     16  F   UNL     1       4.625  -0.258  -0.789  0.00  0.00    -0.166 F 
ATOM     17  F   UNL     1       4.463  -0.188   1.489  0.00  0.00    -0.166 F 
ENDBRANCH   4  14
BRANCH   6  18
ATOM     18  S   UNL     1      -1.341  -1.024  -0.323  0.00  0.00    -0.125 S 
BRANCH  18  19
ATOM     19  C   UNL     1      -2.676   0.203  -0.406  0.00  0.00    +0.078 C 
BRANCH  19  20
ATOM     20  C   UNL     1      -4.014  -0.512  -0.607  0.00  0.00    -0.001 C 
ATOM     21  C   UNL     1      -4.061  -1.160  -2.006  0.00  0.00    +0.004 C 
ATOM     22  C   UNL     1      -5.529  -0.971  -2.462  0.00  0.00    +0.000 C 
ATOM     23  C   UNL     1      -5.876   0.439  -1.922  0.00  0.00    +0.000 C 
ATOM     24  C   UNL     1      -5.168   0.504  -0.554  0.00  0.00    +0.004 C 
ENDBRANCH  19  20
ENDBRANCH  18  19
ENDBRANCH   6  18
TORSDOF 5
