REMARK  Name = ZINC36313587
REMARK  15 active torsions:
REMARK  status: ('A' for Active; 'I' for Inactive)
REMARK    1  A    between atoms: C_1  and  C_2
REMARK    2  A    between atoms: C_2  and  C_3
REMARK    3  A    between atoms: C_2  and  C_4
REMARK    4  A    between atoms: C_4  and  N_5
REMARK    5  A    between atoms: N_5  and  C_6
REMARK    6  A    between atoms: N_5  and  C_23
REMARK    7  A    between atoms: C_6  and  C_7
REMARK    8  A    between atoms: C_23  and  C_24
REMARK    9  A    between atoms: C_24  and  C_26
REMARK   10  A    between atoms: C_24  and  O_32
REMARK   11  A    between atoms: C_26  and  O_27
REMARK   12  A    between atoms: O_27  and  C_28
REMARK   13  A    between atoms: C_28  and  C_29
REMARK   14  A    between atoms: C_29  and  C_30
REMARK   15  A    between atoms: C_29  and  C_31
REMARK                            x       y       z     vdW  Elec       q    Type
REMARK                         _______ _______ _______ _____ _____    ______ ____
ROOT
ATOM      1  C   UNL     1      -1.877  -1.060  -2.393  0.00  0.00    -0.003 C 
ENDROOT
BRANCH   1   2
ATOM      2  C   UNL     1      -2.859  -1.116  -3.534  0.00  0.00    +0.094 A 
ATOM      3  N   UNL     1      -2.647  -1.987  -4.554  0.00  0.00    -0.312 N 
ATOM      4  H   UNL     1      -1.866  -2.561  -4.534  0.00  0.00    +0.170 HD
ATOM      5  C   UNL     1      -3.499  -2.070  -5.593  0.00  0.00    +0.260 A 
ATOM      6  O   UNL     1      -3.296  -2.856  -6.502  0.00  0.00    -0.267 OA
ATOM      7  C   UNL     1      -4.651  -1.216  -5.613  0.00  0.00    +0.075 A 
ATOM      8  C   UNL     1      -5.702  -1.136  -6.632  0.00  0.00    -0.023 A 
ATOM      9  C   UNL     1      -6.686  -0.239  -6.418  0.00  0.00    -0.004 A 
ATOM     10  S   UNL     1      -6.285   0.528  -4.870  0.00  0.00    -0.073 S 
ATOM     11  C   UNL     1      -4.786  -0.352  -4.516  0.00  0.00    +0.116 A 
ATOM     12  N   UNL     1      -3.903  -0.331  -3.522  0.00  0.00    -0.229 NA
ATOM     13  C   UNL     1      -7.861   0.062  -7.296  0.00  0.00    +0.043 C 
ATOM     14  C   UNL     1      -8.544  -1.252  -7.696  0.00  0.00    +0.005 C 
ATOM     15  C   UNL     1      -7.900  -1.757  -8.984  0.00  0.00    +0.001 C 
ATOM     16  C   UNL     1      -6.421  -1.375  -9.013  0.00  0.00    +0.005 C 
ATOM     17  C   UNL     1      -5.674  -2.039  -7.862  0.00  0.00    +0.037 C 
ENDBRANCH   1   2
BRANCH   1  18
ATOM     18  N   UNL     1      -2.391  -0.165  -1.348  0.00  0.00    +0.386 N 
ATOM     19  H   UNL     1      -2.647   0.720  -1.759  0.00  0.00    -0.081 HD
BRANCH  18  20
ATOM     20  C   UNL     1      -1.351   0.050  -0.333  0.00  0.00    -0.075 C 
BRANCH  20  22
ATOM     21  C   UNL     1      -0.554   2.099  -1.520  0.00  0.00    +0.005 C 
ATOM     22  C   UNL     1      -0.141   0.729  -0.977  0.00  0.00    -0.034 C 
ATOM     23  C   UNL     1       0.961   0.907   0.069  0.00  0.00    +0.005 C 
ENDBRANCH  20  22
ENDBRANCH  18  20
BRANCH  18  24
ATOM     24  C   UNL     1      -3.571  -0.773  -0.720  0.00  0.00    -0.044 C 
BRANCH  24  25
ATOM     25  C   UNL     1      -4.221   0.236   0.229  0.00  0.00    +0.124 C 
BRANCH  25  26
ATOM     26  O   UNL     1      -3.372   0.442   1.360  0.00  0.00    -0.391 OA
ATOM     27  H   UNL     1      -3.198  -0.359   1.872  0.00  0.00    +0.210 HD
ENDBRANCH  25  26
BRANCH  25  28
ATOM     28  C   UNL     1      -5.574  -0.303   0.698  0.00  0.00    +0.189 C 
BRANCH  28  29
ATOM     29  O   UNL     1      -6.232   0.688   1.490  0.00  0.00    -0.377 OA
BRANCH  29  30
ATOM     30  C   UNL     1      -7.512   0.283   1.981  0.00  0.00    +0.163 C 
BRANCH  30  31
ATOM     31  C   UNL     1      -8.121   1.415   2.811  0.00  0.00    +0.009 C 
ATOM     32  C   UNL     1      -9.541   1.031   3.232  0.00  0.00    +0.009 C 
ATOM     33  C   UNL     1      -7.266   1.652   4.057  0.00  0.00    +0.009 C 
ENDBRANCH  30  31
ENDBRANCH  29  30
ENDBRANCH  28  29
ENDBRANCH  25  28
ENDBRANCH  24  25
ENDBRANCH  18  24
ENDBRANCH   1  18
TORSDOF 11
