REMARK  Name = ZINC59170591
REMARK  10 active torsions:
REMARK  status: ('A' for Active; 'I' for Inactive)
REMARK    1  A    between atoms: C_1  and  C_2
REMARK    2  A    between atoms: C_2  and  O_3
REMARK    3  A    between atoms: O_3  and  C_4
REMARK    4  A    between atoms: C_8  and  N_10
REMARK    5  A    between atoms: C_11  and  C_13
REMARK    6  A    between atoms: C_18  and  O_34
REMARK    7  A    between atoms: N_23  and  C_24
REMARK    8  A    between atoms: C_27  and  S_30
REMARK    9  A    between atoms: S_30  and  N_33
REMARK   10  A    between atoms: O_34  and  C_35
REMARK                            x       y       z     vdW  Elec       q    Type
REMARK                         _______ _______ _______ _____ _____    ______ ____
ROOT
ATOM      1  C   UNL     1       2.775  -6.134   5.097  0.00  0.00    +0.098 A 
ATOM      2  C   UNL     1       2.902  -7.508   5.249  0.00  0.00    +0.030 A 
ATOM      3  C   UNL     1       3.510  -7.997   6.433  0.00  0.00    +0.018 A 
ATOM      4  C   UNL     1       3.844  -9.355   6.549  0.00  0.00    +0.015 A 
ATOM      5  C   UNL     1       4.467  -9.806   7.675  0.00  0.00    +0.046 A 
ATOM      6  C   UNL     1       4.768  -8.931   8.717  0.00  0.00    +0.124 A 
ATOM      7  C   UNL     1       4.428  -7.589   8.628  0.00  0.00    +0.092 A 
ATOM      8  C   UNL     1       3.788  -7.115   7.495  0.00  0.00    +0.141 A 
ATOM      9  O   UNL     1       3.412  -5.814   7.415  0.00  0.00    -0.438 OA
ATOM     10  C   UNL     1       3.322  -5.279   6.168  0.00  0.00    +0.212 A 
ATOM     11  N   UNL     1       3.704  -4.043   5.925  0.00  0.00    -0.325 N 
ATOM     12  H   UNL     1       3.738  -3.717   5.013  0.00  0.00    +0.169 HD
ENDROOT
BRANCH  11  13
ATOM     13  C   UNL     1       4.054  -3.220   6.960  0.00  0.00    +0.042 A 
ATOM     14  C   UNL     1       3.266  -3.168   8.112  0.00  0.00    +0.027 A 
ATOM     15  C   UNL     1       3.625  -2.335   9.152  0.00  0.00    +0.030 A 
ATOM     16  C   UNL     1       4.762  -1.553   9.055  0.00  0.00    +0.105 A 
ATOM     17  C   UNL     1       5.547  -1.599   7.916  0.00  0.00    +0.030 A 
ATOM     18  C   UNL     1       5.204  -2.431   6.871  0.00  0.00    +0.027 A 
BRANCH  16  19
ATOM     19  S   UNL     1       5.212  -0.492  10.387  0.00  0.00    +0.056 S 
ATOM     20  O   UNL     1       6.015   0.541   9.831  0.00  0.00    -0.153 OA
ATOM     21  O   UNL     1       4.021  -0.223  11.113  0.00  0.00    -0.153 OA
BRANCH  19  22
ATOM     22  N   UNL     1       6.194  -1.363  11.397  0.00  0.00    -0.204 NA
ATOM     23  H   UNL     1       6.880  -0.912  11.915  0.00  0.00    +0.144 HD
ATOM     24  H   UNL     1       6.085  -2.324  11.470  0.00  0.00    +0.144 HD
ENDBRANCH  19  22
ENDBRANCH  16  19
ENDBRANCH  11  13
BRANCH   1  26
ATOM     25  N   UNL     1       1.889  -4.227   3.854  0.00  0.00    -0.281 N 
ATOM     26  C   UNL     1       2.126  -5.552   3.911  0.00  0.00    +0.253 C 
ATOM     27  O   UNL     1       1.804  -6.268   2.981  0.00  0.00    -0.270 OA
ATOM     28  H   UNL     1       2.195  -3.648   4.570  0.00  0.00    +0.155 HD
BRANCH  25  33
ATOM     29  C   UNL     1      -0.332  -2.072   1.864  0.00  0.00    +0.122 A 
ATOM     30  C   UNL     1      -0.159  -2.618   0.599  0.00  0.00    +0.046 A 
ATOM     31  C   UNL     1       0.690  -3.693   0.419  0.00  0.00    +0.005 A 
ATOM     32  C   UNL     1       1.370  -4.228   1.496  0.00  0.00    +0.023 A 
ATOM     33  C   UNL     1       1.201  -3.685   2.764  0.00  0.00    +0.037 A 
ATOM     34  C   UNL     1       0.353  -2.601   2.946  0.00  0.00    +0.069 A 
BRANCH  29  35
ATOM     35  O   UNL     1      -1.167  -1.014   2.039  0.00  0.00    -0.492 OA
BRANCH  35  37
ATOM     36  C   UNL     1      -2.730   0.662   1.272  0.00  0.00    +0.048 C 
ATOM     37  C   UNL     1      -1.841  -0.520   0.880  0.00  0.00    +0.225 C 
ENDBRANCH  35  37
ENDBRANCH  29  35
ENDBRANCH  25  33
ENDBRANCH   1  26
BRANCH   6  38
ATOM     38  O   UNL     1       5.398  -9.393   9.826  0.00  0.00    -0.495 OA
ATOM     39  C   UNL     1       5.721 -10.785   9.855  0.00  0.00    +0.277 C 
ENDBRANCH   6  38
TORSDOF 8
