REMARK  Name = ZINC21264072
REMARK  20 active torsions:
REMARK  status: ('A' for Active; 'I' for Inactive)
REMARK    1  A    between atoms: C_1  and  C_2
REMARK    2  A    between atoms: C_2  and  C_32
REMARK    3  A    between atoms: C_4  and  N_10
REMARK    4  A    between atoms: C_6  and  C_8
REMARK    5  A    between atoms: C_6  and  C_9
REMARK    6  A    between atoms: N_10  and  C_11
REMARK    7  A    between atoms: C_11  and  N_13
REMARK    8  A    between atoms: N_13  and  C_14
REMARK    9  A    between atoms: N_13  and  C_19
REMARK   10  A    between atoms: C_14  and  C_15
REMARK   11  A    between atoms: C_15  and  N_16
REMARK   12  A    between atoms: N_16  and  C_17
REMARK   13  A    between atoms: N_16  and  C_18
REMARK   14  A    between atoms: C_19  and  C_20
REMARK   15  A    between atoms: C_23  and  O_30
REMARK   16  A    between atoms: C_24  and  O_28
REMARK   17  A    between atoms: C_25  and  O_26
REMARK   18  A    between atoms: O_26  and  C_27
REMARK   19  A    between atoms: O_28  and  C_29
REMARK   20  A    between atoms: O_30  and  C_31
REMARK                            x       y       z     vdW  Elec       q    Type
REMARK                         _______ _______ _______ _____ _____    ______ ____
ROOT
ATOM      1  N   UNL     1       0.002  -0.004   0.002  0.00  0.00    -0.310 N 
ENDROOT
BRANCH   1   2
ATOM      2  C   UNL     1      -0.016   1.344   0.009  0.00  0.00    +0.133 C 
ATOM      3  S   UNL     1       1.455   2.220   0.000  0.00  0.00    -0.019 S 
BRANCH   2   4
ATOM      4  N   UNL     1      -1.192   2.002   0.019  0.00  0.00    -0.324 N 
ATOM      5  H   UNL     1      -2.138   1.439   0.020  0.00  0.00    +0.148 HD
BRANCH   4   9
ATOM      6  C   UNL     1      -1.685   6.043  -1.663  0.00  0.00    -0.010 C 
ATOM      7  C   UNL     1      -2.589   5.484  -0.558  0.00  0.00    -0.072 C 
ATOM      8  C   UNL     1      -2.530   3.958  -0.574  0.00  0.00    +0.009 C 
ATOM      9  C   UNL     1      -1.212   3.470   0.027  0.00  0.00    +0.069 C 
ATOM     10  C   UNL     1      -1.123   3.966   1.469  0.00  0.00    +0.009 C 
ATOM     11  C   UNL     1      -1.162   5.492   1.509  0.00  0.00    -0.072 C 
ATOM     12  N   UNL     1      -2.249   6.049   0.731  0.00  0.00    +0.386 N 
ATOM     13  C   UNL     1       0.190   6.052   1.052  0.00  0.00    -0.010 C 
ATOM     14  C   UNL     1      -1.358   5.914   2.983  0.00  0.00    -0.010 C 
ATOM     15  C   UNL     1      -4.038   5.897  -0.899  0.00  0.00    -0.010 C 
ATOM     16  H   UNL     1      -1.968   7.106   0.606  0.00  0.00    -0.084 HD
ATOM     17  H   UNL     1      -3.117   5.978   1.403  0.00  0.00    -0.084 HD
ENDBRANCH   4   9
ENDBRANCH   2   4
ENDBRANCH   1   2
BRANCH   1  18
ATOM     18  C   UNL     1      -1.256  -0.754   0.010  0.00  0.00    +0.088 C 
BRANCH  18  19
ATOM     19  C   UNL     1      -1.708  -1.007  -1.430  0.00  0.00    -0.060 C 
BRANCH  19  20
ATOM     20  N   UNL     1      -2.970  -1.759  -1.422  0.00  0.00    +0.377 N 
ATOM     21  C   UNL     1      -3.558  -1.816  -2.767  0.00  0.00    -0.097 C 
ATOM     22  C   UNL     1      -2.776  -3.108  -0.874  0.00  0.00    -0.097 C 
ATOM     23  H   UNL     1      -3.676  -1.227  -0.767  0.00  0.00    -0.083 HD
ENDBRANCH  19  20
ENDBRANCH  18  19
ENDBRANCH   1  18
BRANCH   1  24
ATOM     24  C   UNL     1       1.281  -0.719  -0.014  0.00  0.00    +0.145 C 
BRANCH  24  25
ATOM     25  C   UNL     1       1.732  -0.972   1.401  0.00  0.00    +0.015 A 
ATOM     26  C   UNL     1       2.686  -0.154   1.978  0.00  0.00    +0.012 A 
ATOM     27  C   UNL     1       3.103  -0.381   3.276  0.00  0.00    +0.050 A 
ATOM     28  C   UNL     1       2.567  -1.432   4.005  0.00  0.00    +0.165 A 
ATOM     29  C   UNL     1       1.609  -2.257   3.429  0.00  0.00    +0.204 A 
ATOM     30  C   UNL     1       1.188  -2.022   2.125  0.00  0.00    +0.170 A 
BRANCH  30  31
ATOM     31  O   UNL     1       0.246  -2.823   1.558  0.00  0.00    -0.491 OA
ATOM     32  C   UNL     1       0.713  -3.978   0.858  0.00  0.00    +0.277 C 
ENDBRANCH  30  31
BRANCH  29  33
ATOM     33  O   UNL     1       1.080  -3.289   4.141  0.00  0.00    -0.488 OA
ATOM     34  C   UNL     1      -0.092  -3.013   4.910  0.00  0.00    +0.277 C 
ENDBRANCH  29  33
BRANCH  28  35
ATOM     35  O   UNL     1       2.978  -1.655   5.282  0.00  0.00    -0.491 OA
ATOM     36  C   UNL     1       3.966  -0.767   5.809  0.00  0.00    +0.277 C 
ENDBRANCH  28  35
ENDBRANCH  24  25
ENDBRANCH   1  24
TORSDOF 11
