REMARK  Name = ZINC66244211
REMARK  8 active torsions:
REMARK  status: ('A' for Active; 'I' for Inactive)
REMARK    1  A    between atoms: C_1  and  O_2
REMARK    2  A    between atoms: O_2  and  C_3
REMARK    3  A    between atoms: C_6  and  C_9
REMARK    4  A    between atoms: C_9  and  C_10
REMARK    5  A    between atoms: C_10  and  N_11
REMARK    6  A    between atoms: N_14  and  C_15
REMARK    7  A    between atoms: C_15  and  C_16
REMARK    8  A    between atoms: C_20  and  C_22
REMARK                            x       y       z     vdW  Elec       q    Type
REMARK                         _______ _______ _______ _____ _____    ______ ____
ROOT
ATOM      1  N   UNL     1       3.667  -4.038  -6.192  0.00  0.00    -0.357 N 
ATOM      2  C   UNL     1       5.011  -4.040  -5.902  0.00  0.00    +0.169 C 
ATOM      3  N   UNL     1       5.438  -3.521  -4.785  0.00  0.00    -0.371 N 
ATOM      4  N   UNL     1       5.905  -4.590  -6.790  0.00  0.00    -0.354 N 
ATOM      5  H   UNL     1       3.350  -4.424  -7.023  0.00  0.00    +0.162 HD
ATOM      6  H   UNL     1       6.386  -3.523  -4.581  0.00  0.00    +0.159 HD
ATOM      7  H   UNL     1       5.587  -4.976  -7.622  0.00  0.00    +0.163 HD
ATOM      8  H   UNL     1       4.808  -3.133  -4.158  0.00  0.00    +0.159 HD
ENDROOT
BRANCH   1   9
ATOM      9  C   UNL     1       2.715  -3.452  -5.245  0.00  0.00    +0.120 C 
BRANCH   9  10
ATOM     10  C   UNL     1       1.297  -3.578  -5.804  0.00  0.00    +0.056 C 
BRANCH  10  14
ATOM     11  C   UNL     1      -1.482  -1.870  -3.043  0.00  0.00    +0.120 A 
ATOM     12  C   UNL     1      -0.912  -1.082  -4.033  0.00  0.00    +0.046 A 
ATOM     13  C   UNL     1      -0.014  -1.637  -4.924  0.00  0.00    +0.007 A 
ATOM     14  C   UNL     1       0.317  -2.976  -4.831  0.00  0.00    -0.045 A 
ATOM     15  C   UNL     1      -0.250  -3.763  -3.846  0.00  0.00    +0.007 A 
ATOM     16  C   UNL     1      -1.144  -3.212  -2.948  0.00  0.00    +0.046 A 
BRANCH  11  18
ATOM     17  C   UNL     1      -2.666   0.062  -2.323  0.00  0.00    +0.277 C 
ATOM     18  O   UNL     1      -2.365  -1.327  -2.165  0.00  0.00    -0.495 OA
ENDBRANCH  11  18
ENDBRANCH  10  14
ENDBRANCH   9  10
ENDBRANCH   1   9
BRANCH   4  19
ATOM     19  C   UNL     1       7.337  -4.592  -6.482  0.00  0.00    +0.151 C 
BRANCH  19  20
ATOM     20  C   UNL     1       8.093  -5.248  -7.609  0.00  0.00    -0.028 A 
ATOM     21  C   UNL     1       8.316  -6.613  -7.588  0.00  0.00    +0.005 A 
ATOM     22  C   UNL     1       9.008  -7.223  -8.619  0.00  0.00    +0.001 A 
ATOM     23  C   UNL     1       9.482  -6.471  -9.675  0.00  0.00    +0.013 A 
ATOM     24  C   UNL     1       9.260  -5.094  -9.702  0.00  0.00    +0.037 A 
ATOM     25  C   UNL     1       8.556  -4.486  -8.662  0.00  0.00    +0.018 A 
BRANCH  24  26
ATOM     26  C   UNL     1       9.765  -4.283 -10.831  0.00  0.00    +0.247 C 
ATOM     27  O   UNL     1       9.687  -4.707 -11.967  0.00  0.00    -0.270 OA
ATOM     28  N   UNL     1      10.311  -3.073 -10.599  0.00  0.00    -0.298 N 
ATOM     29  C   UNL     1      10.534  -2.603  -9.225  0.00  0.00    +0.108 C 
ATOM     30  C   UNL     1      12.002  -2.189  -9.078  0.00  0.00    +0.019 C 
ATOM     31  C   UNL     1      12.349  -1.162 -10.158  0.00  0.00    +0.003 C 
ATOM     32  C   UNL     1      12.161  -1.790 -11.541  0.00  0.00    +0.019 C 
ATOM     33  C   UNL     1      10.700  -2.201 -11.716  0.00  0.00    +0.108 C 
ENDBRANCH  24  26
ENDBRANCH  19  20
ENDBRANCH   4  19
TORSDOF 7
