REMARK  Name = ZINC25177311
REMARK  6 active torsions:
REMARK  status: ('A' for Active; 'I' for Inactive)
REMARK    1  A    between atoms: C_1  and  C_2
REMARK    2  A    between atoms: C_5  and  N_9
REMARK    3  A    between atoms: C_6  and  O_8
REMARK    4  A    between atoms: C_10  and  C_12
REMARK    5  A    between atoms: N_17  and  S_19
REMARK    6  A    between atoms: S_19  and  C_22
REMARK                            x       y       z     vdW  Elec       q    Type
REMARK                         _______ _______ _______ _____ _____    ______ ____
ROOT
ATOM      1  C   UNL     1      -0.166   0.046   4.888  0.00  0.00    +0.091 C 
ATOM      2  C   UNL     1      -1.429   0.910   4.878  0.00  0.00    +0.015 C 
ATOM      3  C   UNL     1      -1.524   1.693   6.189  0.00  0.00    +0.018 C 
ATOM      4  C   UNL     1      -1.621   0.709   7.360  0.00  0.00    +0.109 C 
ATOM      5  N   UNL     1      -0.484  -0.219   7.293  0.00  0.00    -0.175 NA
ATOM      6  C   UNL     1      -0.247  -0.956   6.044  0.00  0.00    +0.122 C 
ENDROOT
BRANCH   1   8
ATOM      7  N   UNL     1       0.026  -0.018   2.423  0.00  0.00    -0.282 N 
ATOM      8  C   UNL     1      -0.055  -0.699   3.583  0.00  0.00    +0.222 C 
ATOM      9  O   UNL     1      -0.040  -1.912   3.577  0.00  0.00    -0.275 OA
ATOM     10  H   UNL     1       0.104   1.079   2.433  0.00  0.00    +0.155 HD
BRANCH   7  15
ATOM     11  C   UNL     1      -0.035  -2.817  -2.518  0.00  0.00    +0.044 C 
ATOM     12  C   UNL     1      -0.017  -2.072  -1.208  0.00  0.00    -0.047 A 
ATOM     13  C   UNL     1      -0.593  -2.638  -0.085  0.00  0.00    +0.005 A 
ATOM     14  C   UNL     1      -0.580  -1.960   1.119  0.00  0.00    +0.027 A 
ATOM     15  C   UNL     1       0.012  -0.708   1.203  0.00  0.00    +0.075 A 
ATOM     16  C   UNL     1       0.592  -0.139   0.072  0.00  0.00    +0.138 A 
ATOM     17  C   UNL     1       0.571  -0.823  -1.133  0.00  0.00    +0.050 A 
BRANCH  16  18
ATOM     18  O   UNL     1       1.173   1.088   0.148  0.00  0.00    -0.505 OA
ATOM     19  H   UNL     1       1.631   1.537  -0.746  0.00  0.00    +0.292 HD
ENDBRANCH  16  18
ENDBRANCH   7  15
ENDBRANCH   1   8
BRANCH   5  20
ATOM     20  S   UNL     1       0.510  -0.432   8.600  0.00  0.00    +0.067 S 
ATOM     21  O   UNL     1       1.754  -0.895   8.093  0.00  0.00    -0.152 OA
ATOM     22  O   UNL     1       0.400   0.745   9.389  0.00  0.00    -0.152 OA
BRANCH  20  23
ATOM     23  C   UNL     1      -0.164  -1.747   9.559  0.00  0.00    +0.144 A 
ATOM     24  C   UNL     1       0.077  -3.077   9.472  0.00  0.00    +0.037 A 
ATOM     25  C   UNL     1      -0.571  -3.935  10.342  0.00  0.00    +0.025 A 
ATOM     26  C   UNL     1      -1.437  -3.420  11.249  0.00  0.00    +0.057 A 
ATOM     27  S   UNL     1      -1.349  -1.673  10.893  0.00  0.00    -0.062 S 
ATOM     28 BR   UNL     1      -2.469  -4.318  12.554  0.00  0.00    -0.043 Br
ENDBRANCH  20  23
ENDBRANCH   5  20
TORSDOF 5
