REMARK  Name = ZINC43190088
REMARK  13 active torsions:
REMARK  status: ('A' for Active; 'I' for Inactive)
REMARK    1  A    between atoms: C_1  and  C_2
REMARK    2  A    between atoms: C_2  and  C_3
REMARK    3  A    between atoms: C_2  and  C_4
REMARK    4  A    between atoms: C_2  and  N_27
REMARK    5  A    between atoms: C_4  and  N_5
REMARK    6  A    between atoms: N_8  and  N_9
REMARK    7  A    between atoms: C_10  and  C_12
REMARK    8  A    between atoms: C_12  and  O_13
REMARK    9  A    between atoms: O_13  and  C_14
REMARK   10  A    between atoms: C_19  and  C_20
REMARK   11  A    between atoms: C_20  and  C_21
REMARK   12  A    between atoms: N_27  and  C_28
REMARK   13  A    between atoms: N_27  and  C_29
REMARK                            x       y       z     vdW  Elec       q    Type
REMARK                         _______ _______ _______ _____ _____    ______ ____
ROOT
ATOM      1  N   UNL     1      -1.330  -4.720  -0.011  0.00  0.00    -0.230 N 
ATOM      2  C   UNL     1      -1.312  -6.067  -0.018  0.00  0.00    +0.267 C 
ATOM      3  O   UNL     1      -2.354  -6.688  -0.011  0.00  0.00    -0.271 OA
ATOM      4  H   UNL     1      -0.497  -4.223  -0.016  0.00  0.00    +0.173 HD
ENDROOT
BRANCH   1   8
ATOM      5  N   UNL     1      -1.413  -1.998   0.005  0.00  0.00    -0.300 N 
ATOM      6  C   UNL     1      -2.571  -2.688   0.012  0.00  0.00    +0.316 C 
ATOM      7  O   UNL     1      -3.632  -2.095   0.025  0.00  0.00    -0.251 OA
ATOM      8  N   UNL     1      -2.553  -4.036   0.005  0.00  0.00    -0.218 N 
ATOM      9  H   UNL     1      -0.567  -2.472  -0.006  0.00  0.00    +0.150 HD
ATOM     10  H   UNL     1      -3.386  -4.532   0.010  0.00  0.00    +0.174 HD
BRANCH   5  11
ATOM     11  C   UNL     1      -1.433  -0.534   0.013  0.00  0.00    +0.093 C 
BRANCH  11  13
ATOM     12  C   UNL     1      -0.019   1.526   0.010  0.00  0.00    -0.008 C 
ATOM     13  C   UNL     1       0.002  -0.004   0.002  0.00  0.00    -0.056 C 
ATOM     14  C   UNL     1       0.742  -0.511   1.242  0.00  0.00    -0.008 C 
BRANCH  13  15
ATOM     15  N   UNL     1       0.690  -0.478  -1.207  0.00  0.00    +0.380 N 
ATOM     16  C   UNL     1      -0.021   0.009  -2.397  0.00  0.00    -0.096 C 
ATOM     17  C   UNL     1       2.068   0.031  -1.217  0.00  0.00    -0.096 C 
ATOM     18  H   UNL     1       0.703  -1.487  -1.212  0.00  0.00    -0.082 HD
ENDBRANCH  13  15
ENDBRANCH  11  13
ENDBRANCH   5  11
ENDBRANCH   1   8
BRANCH   2  19
ATOM     19  C   UNL     1       0.003  -6.803  -0.035  0.00  0.00    +0.326 C 
BRANCH  19  20
ATOM     20  O   UNL     1      -0.239  -8.211  -0.040  0.00  0.00    -0.482 OA
BRANCH  20  21
ATOM     21  C   UNL     1       0.850  -9.024  -0.054  0.00  0.00    +0.125 A 
ATOM     22  C   UNL     1       2.125  -8.478  -0.058  0.00  0.00    +0.046 A 
ATOM     23  C   UNL     1       3.230  -9.306  -0.072  0.00  0.00    +0.004 A 
ATOM     24  C   UNL     1       3.066 -10.680  -0.084  0.00  0.00    +0.001 A 
ATOM     25  C   UNL     1       1.797 -11.226  -0.081  0.00  0.00    +0.007 A 
ATOM     26  C   UNL     1       0.688 -10.402  -0.060  0.00  0.00    -0.001 A 
BRANCH  26  27
ATOM     27  C   UNL     1      -0.696 -10.999  -0.051  0.00  0.00    +0.074 C 
BRANCH  27  28
ATOM     28  C   UNL     1      -1.219 -11.077  -1.462  0.00  0.00    -0.043 A 
ATOM     29  C   UNL     1      -1.925 -10.016  -1.997  0.00  0.00    +0.004 A 
ATOM     30  C   UNL     1      -2.405 -10.087  -3.291  0.00  0.00    +0.000 A 
ATOM     31  C   UNL     1      -2.179 -11.219  -4.051  0.00  0.00    +0.000 A 
ATOM     32  C   UNL     1      -1.471 -12.280  -3.517  0.00  0.00    +0.000 A 
ATOM     33  C   UNL     1      -0.988 -12.207  -2.224  0.00  0.00    +0.004 A 
ENDBRANCH  27  28
ENDBRANCH  26  27
ENDBRANCH  20  21
ENDBRANCH  19  20
ENDBRANCH   2  19
TORSDOF 9
