REMARK  Name = ZINC12881476
REMARK  7 active torsions:
REMARK  status: ('A' for Active; 'I' for Inactive)
REMARK    1  A    between atoms: C_1  and  C_2
REMARK    2  A    between atoms: C_16  and  C_18
REMARK    3  A    between atoms: C_18  and  C_19
REMARK    4  A    between atoms: N_24  and  C_27
REMARK    5  A    between atoms: C_27  and  C_28
REMARK    6  A    between atoms: C_31  and  O_34
REMARK    7  A    between atoms: O_34  and  C_35
REMARK                            x       y       z     vdW  Elec       q    Type
REMARK                         _______ _______ _______ _____ _____    ______ ____
ROOT
ATOM      1  C   UNL     1      -5.901   1.155   3.831  0.00  0.00    +0.045 C 
ATOM      2  C   UNL     1      -4.905   2.053   3.144  0.00  0.00    -0.029 A 
ATOM      3  C   UNL     1      -4.938   3.414   3.366  0.00  0.00    +0.005 A 
ATOM      4  C   UNL     1      -4.029   4.247   2.740  0.00  0.00    +0.001 A 
ATOM      5  C   UNL     1      -3.080   3.712   1.886  0.00  0.00    +0.004 A 
ATOM      6  C   UNL     1      -3.044   2.354   1.660  0.00  0.00    -0.027 A 
ATOM      7  C   UNL     1      -3.954   1.507   2.286  0.00  0.00    +0.039 A 
ATOM      8  N   UNL     1      -3.720   0.183   1.906  0.00  0.00    -0.286 N 
ATOM      9  C   UNL     1      -2.689   0.076   1.046  0.00  0.00    +0.211 C 
ATOM     10  O   UNL     1      -2.262  -0.946   0.551  0.00  0.00    -0.277 OA
ATOM     11  C   UNL     1      -2.171   1.469   0.816  0.00  0.00    +0.050 C 
ATOM     12  C   UNL     1      -2.244   1.857  -0.665  0.00  0.00    +0.088 C 
ATOM     13  C   UNL     1      -0.803   1.619  -1.206  0.00  0.00    +0.073 C 
ATOM     14  C   UNL     1      -0.013   1.086   0.008  0.00  0.00    -0.049 C 
ATOM     15  C   UNL     1      -0.990   0.501  -2.206  0.00  0.00    +0.224 C 
ATOM     16  O   UNL     1      -0.107   0.004  -2.871  0.00  0.00    -0.275 OA
ATOM     17  N   UNL     1      -2.280   0.147  -2.245  0.00  0.00    -0.237 N 
ATOM     18  C   UNL     1      -3.072   0.842  -1.420  0.00  0.00    +0.225 C 
ATOM     19  O   UNL     1      -4.267   0.681  -1.297  0.00  0.00    -0.275 OA
ATOM     20  H   UNL     1      -4.240  -0.571   2.225  0.00  0.00    +0.155 HD
ATOM     21  N   UNL     1      -0.766   1.574   1.166  0.00  0.00    +0.394 N 
ATOM     22  H   UNL     1      -0.561   0.999   1.991  0.00  0.00    -0.083 HD
ATOM     23  H   UNL     1      -0.520   2.552   1.361  0.00  0.00    -0.083 HD
ENDROOT
BRANCH  14  24
ATOM     24  C   UNL     1       1.415   1.637  -0.003  0.00  0.00    +0.080 C 
BRANCH  24  25
ATOM     25  C   UNL     1       2.193   1.038   1.141  0.00  0.00    +0.209 C 
ATOM     26  O   UNL     1       1.658   0.248   1.890  0.00  0.00    -0.276 OA
ATOM     27  N   UNL     1       3.483   1.380   1.330  0.00  0.00    -0.329 N 
ATOM     28  H   UNL     1       3.910   2.011   0.731  0.00  0.00    +0.145 HD
ATOM     29  H   UNL     1       3.983   0.994   2.066  0.00  0.00    +0.145 HD
ENDBRANCH  24  25
ENDBRANCH  14  24
BRANCH  17  30
ATOM     30  C   UNL     1      -2.783  -0.915  -3.119  0.00  0.00    +0.151 C 
BRANCH  30  31
ATOM     31  C   UNL     1      -3.188  -0.325  -4.445  0.00  0.00    -0.029 A 
ATOM     32  C   UNL     1      -4.482   0.121  -4.636  0.00  0.00    +0.009 A 
ATOM     33  C   UNL     1      -4.854   0.668  -5.849  0.00  0.00    +0.046 A 
ATOM     34  C   UNL     1      -3.930   0.759  -6.880  0.00  0.00    +0.120 A 
ATOM     35  C   UNL     1      -2.633   0.305  -6.688  0.00  0.00    +0.046 A 
ATOM     36  C   UNL     1      -2.265  -0.236  -5.471  0.00  0.00    +0.009 A 
BRANCH  34  37
ATOM     37  O   UNL     1      -4.295   1.292  -8.076  0.00  0.00    -0.495 OA
ATOM     38  C   UNL     1      -5.646   1.738  -8.202  0.00  0.00    +0.277 C 
ENDBRANCH  34  37
ENDBRANCH  30  31
ENDBRANCH  17  30
TORSDOF 5
