REMARK  Name = ZINC19311039
REMARK  7 active torsions:
REMARK  status: ('A' for Active; 'I' for Inactive)
REMARK    1  A    between atoms: C_1  and  N_2
REMARK    2  A    between atoms: N_5  and  S_8
REMARK    3  A    between atoms: S_8  and  C_11
REMARK    4  A    between atoms: C_14  and  N_17
REMARK    5  A    between atoms: C_18  and  C_20
REMARK    6  A    between atoms: C_22  and  C_30
REMARK    7  A    between atoms: C_24  and  C_26
REMARK                            x       y       z     vdW  Elec       q    Type
REMARK                         _______ _______ _______ _____ _____    ______ ____
ROOT
ATOM      1  N   UNL     1       3.407   0.303   6.227  0.00  0.00    -0.282 N 
ATOM      2  C   UNL     1       4.594  -0.200   5.834  0.00  0.00    +0.248 C 
ATOM      3  O   UNL     1       4.761  -0.527   4.675  0.00  0.00    -0.270 OA
ATOM      4  H   UNL     1       3.283   0.680   7.253  0.00  0.00    +0.155 HD
ENDROOT
BRANCH   1   8
ATOM      5  C   UNL     1       0.212   0.436   3.558  0.00  0.00    +0.106 A 
ATOM      6  C   UNL     1       1.123  -0.602   3.493  0.00  0.00    +0.030 A 
ATOM      7  C   UNL     1       2.187  -0.646   4.372  0.00  0.00    +0.025 A 
ATOM      8  C   UNL     1       2.334   0.348   5.331  0.00  0.00    +0.034 A 
ATOM      9  C   UNL     1       1.414   1.386   5.398  0.00  0.00    +0.025 A 
ATOM     10  C   UNL     1       0.356   1.427   4.512  0.00  0.00    +0.030 A 
BRANCH   5  11
ATOM     11  S   UNL     1      -1.140   0.492   2.429  0.00  0.00    +0.061 S 
ATOM     12  O   UNL     1      -2.158   1.264   3.052  0.00  0.00    -0.153 OA
ATOM     13  O   UNL     1      -1.357  -0.842   1.989  0.00  0.00    -0.153 OA
BRANCH  11  18
ATOM     14  C   UNL     1      -1.254   3.029  -2.694  0.00  0.00    -0.096 C 
ATOM     15  N   UNL     1      -0.733   2.576  -1.398  0.00  0.00    +0.380 N 
ATOM     16  C   UNL     1      -0.716   1.109  -1.321  0.00  0.00    -0.062 C 
ATOM     17  C   UNL     1      -0.002   0.676  -0.036  0.00  0.00    +0.091 C 
ATOM     18  N   UNL     1      -0.637   1.351   1.106  0.00  0.00    -0.180 NA
ATOM     19  C   UNL     1      -0.818   2.810   1.039  0.00  0.00    +0.091 C 
ATOM     20  C   UNL     1      -1.500   3.159  -0.289  0.00  0.00    -0.062 C 
ATOM     21  H   UNL     1       0.305   2.928  -1.307  0.00  0.00    -0.082 HD
ENDBRANCH  11  18
ENDBRANCH   5  11
ENDBRANCH   1   8
BRANCH   2  22
ATOM     22  C   UNL     1       5.691  -0.356   6.811  0.00  0.00    +0.038 A 
ATOM     23  C   UNL     1       5.505   0.024   8.142  0.00  0.00    +0.025 A 
ATOM     24  C   UNL     1       6.532  -0.129   9.050  0.00  0.00    +0.056 A 
ATOM     25  C   UNL     1       7.749  -0.646   8.642  0.00  0.00    +0.024 A 
ATOM     26  C   UNL     1       7.942  -1.019   7.324  0.00  0.00    +0.056 A 
ATOM     27  C   UNL     1       6.922  -0.877   6.407  0.00  0.00    +0.025 A 
BRANCH  26  28
ATOM     28  C   UNL     1       9.271  -1.582   6.889  0.00  0.00    +0.417 C 
ATOM     29  F   UNL     1       9.225  -1.884   5.524  0.00  0.00    -0.166 F 
ATOM     30  F   UNL     1      10.277  -0.639   7.125  0.00  0.00    -0.166 F 
ATOM     31  F   UNL     1       9.543  -2.747   7.615  0.00  0.00    -0.166 F 
ENDBRANCH  26  28
BRANCH  24  32
ATOM     32  C   UNL     1       6.330   0.274  10.488  0.00  0.00    +0.417 C 
ATOM     33  F   UNL     1       6.690   1.616  10.651  0.00  0.00    -0.166 F 
ATOM     34  F   UNL     1       4.985   0.107  10.834  0.00  0.00    -0.166 F 
ATOM     35  F   UNL     1       7.127  -0.526  11.313  0.00  0.00    -0.166 F 
ENDBRANCH  24  32
ENDBRANCH   2  22
TORSDOF 6
