REMARK  Name = ZINC35908071
REMARK  4 active torsions:
REMARK  status: ('A' for Active; 'I' for Inactive)
REMARK    1  A    between atoms: C_6  and  N_7
REMARK    2  A    between atoms: C_8  and  C_10
REMARK    3  A    between atoms: C_15  and  C_31
REMARK    4  A    between atoms: N_23  and  C_26
REMARK                            x       y       z     vdW  Elec       q    Type
REMARK                         _______ _______ _______ _____ _____    ______ ____
ROOT
ATOM      1  C   UNL     1      -2.480  -2.828  -0.204  0.00  0.00    +0.098 C 
ATOM      2  C   UNL     1      -3.326  -2.569   1.042  0.00  0.00    +0.051 C 
ATOM      3  C   UNL     1      -2.632  -3.148   2.248  0.00  0.00    -0.025 A 
ATOM      4  C   UNL     1      -2.889  -2.612   3.498  0.00  0.00    +0.017 A 
ATOM      5  C   UNL     1      -2.259  -3.125   4.616  0.00  0.00    +0.055 A 
ATOM      6  C   UNL     1      -1.370  -4.177   4.489  0.00  0.00    +0.014 A 
ATOM      7  C   UNL     1      -1.112  -4.717   3.246  0.00  0.00    +0.024 A 
ATOM      8  C   UNL     1      -1.746  -4.203   2.119  0.00  0.00    +0.033 A 
ATOM      9  N   UNL     1      -1.472  -4.782   0.869  0.00  0.00    -0.329 N 
ATOM     10  C   UNL     1      -2.182  -4.327  -0.316  0.00  0.00    +0.069 C 
ATOM     11  C   UNL     1      -1.426  -4.584  -1.610  0.00  0.00    -0.055 C 
ATOM     12  N   UNL     1      -0.731  -5.870  -1.591  0.00  0.00    +0.384 N 
ATOM     13  C   UNL     1       0.260  -5.860  -0.504  0.00  0.00    -0.059 C 
ATOM     14  C   UNL     1      -0.484  -5.863   0.829  0.00  0.00    +0.087 C 
ATOM     15  H   UNL     1      -1.397  -6.612  -1.433  0.00  0.00    -0.081 HD
ENDROOT
BRANCH  12  16
ATOM     16  C   UNL     1      -0.051  -6.081  -2.875  0.00  0.00    -0.068 C 
ATOM     17  C   UNL     1      -1.086  -6.150  -4.017  0.00  0.00    -0.015 C 
ATOM     18  C   UNL     1      -0.522  -7.227  -4.977  0.00  0.00    -0.002 C 
ATOM     19  C   UNL     1       0.070  -8.276  -4.003  0.00  0.00    -0.002 C 
ATOM     20  C   UNL     1       0.684  -7.433  -2.867  0.00  0.00    -0.015 C 
ENDBRANCH  12  16
BRANCH   1  22
ATOM     21  N   UNL     1      -1.200  -0.722   0.010  0.00  0.00    -0.285 N 
ATOM     22  C   UNL     1      -1.184  -2.065  -0.099  0.00  0.00    +0.222 C 
ATOM     23  O   UNL     1      -0.127  -2.660  -0.113  0.00  0.00    -0.275 OA
ATOM     24  H   UNL     1      -2.045  -0.251   0.088  0.00  0.00    +0.155 HD
BRANCH  21  30
ATOM     25  C   UNL     1       0.065   1.248  -0.586  0.00  0.00    +0.026 A 
ATOM     26  C   UNL     1       1.253   1.953  -0.584  0.00  0.00    +0.040 A 
ATOM     27  C   UNL     1       2.380   1.412   0.011  0.00  0.00    +0.124 A 
ATOM     28  C   UNL     1       2.319   0.163   0.605  0.00  0.00    +0.040 A 
ATOM     29  C   UNL     1       1.134  -0.546   0.606  0.00  0.00    +0.026 A 
ATOM     30  C   UNL     1       0.003  -0.005   0.010  0.00  0.00    +0.034 A 
ATOM     31  F   UNL     1       3.541   2.104   0.011  0.00  0.00    -0.205 F 
ENDBRANCH  21  30
ENDBRANCH   1  22
BRANCH   5  32
ATOM     32  C   UNL     1      -2.542  -2.538   5.975  0.00  0.00    +0.417 C 
ATOM     33  F   UNL     1      -3.619  -3.212   6.560  0.00  0.00    -0.166 F 
ATOM     34  F   UNL     1      -1.410  -2.674   6.786  0.00  0.00    -0.166 F 
ATOM     35  F   UNL     1      -2.858  -1.182   5.840  0.00  0.00    -0.166 F 
ENDBRANCH   5  32
TORSDOF 4
