REMARK  Name = ZINC43222527
REMARK  12 active torsions:
REMARK  status: ('A' for Active; 'I' for Inactive)
REMARK    1  A    between atoms: C_1  and  C_2
REMARK    2  A    between atoms: C_5  and  C_8
REMARK    3  A    between atoms: C_8  and  C_9
REMARK    4  A    between atoms: C_9  and  N_10
REMARK    5  A    between atoms: C_11  and  C_13
REMARK    6  A    between atoms: C_18  and  C_20
REMARK    7  A    between atoms: N_22  and  C_23
REMARK    8  A    between atoms: C_23  and  C_25
REMARK    9  A    between atoms: C_23  and  C_26
REMARK   10  A    between atoms: C_26  and  C_27
REMARK   11  A    between atoms: C_27  and  C_28
REMARK   12  A    between atoms: C_27  and  C_29
REMARK                            x       y       z     vdW  Elec       q    Type
REMARK                         _______ _______ _______ _____ _____    ______ ____
ROOT
ATOM      1  C   UNL     1       2.533  -8.357   0.202  0.00  0.00    +0.068 C 
ATOM      2  C   UNL     1       1.787  -8.880  -1.045  0.00  0.00    -0.069 C 
ATOM      3  N   UNL     1       2.853  -9.086  -2.059  0.00  0.00    +0.380 N 
ATOM      4  C   UNL     1       3.989  -9.649  -1.284  0.00  0.00    -0.069 C 
ATOM      5  C   UNL     1       3.982  -8.864   0.048  0.00  0.00    +0.068 C 
ATOM      6  H   UNL     1       2.548  -9.741  -2.763  0.00  0.00    -0.086 HD
ATOM      7  H   UNL     1       3.115  -8.208  -2.480  0.00  0.00    -0.086 HD
ENDROOT
BRANCH   1   9
ATOM      8  N   UNL     1       1.329  -6.200   0.337  0.00  0.00    -0.315 N 
ATOM      9  C   UNL     1       2.505  -6.851   0.236  0.00  0.00    +0.215 C 
ATOM     10  O   UNL     1       3.542  -6.224   0.172  0.00  0.00    -0.276 OA
ATOM     11  H   UNL     1       0.500  -6.702   0.388  0.00  0.00    +0.149 HD
BRANCH   8  12
ATOM     12  C   UNL     1       1.303  -4.736   0.370  0.00  0.00    +0.109 C 
BRANCH  12  13
ATOM     13  C   UNL     1      -0.145  -4.255   0.488  0.00  0.00    +0.054 C 
BRANCH  13  18
ATOM     14  C   UNL     1      -0.253   1.522   0.616  0.00  0.00    +0.044 C 
ATOM     15  C   UNL     1      -0.224   0.015   0.583  0.00  0.00    -0.050 A 
ATOM     16  C   UNL     1      -0.299  -0.651  -0.626  0.00  0.00    +0.003 A 
ATOM     17  C   UNL     1      -0.274  -2.033  -0.657  0.00  0.00    +0.004 A 
ATOM     18  C   UNL     1      -0.172  -2.748   0.521  0.00  0.00    -0.046 A 
ATOM     19  C   UNL     1      -0.096  -2.082   1.730  0.00  0.00    +0.004 A 
ATOM     20  C   UNL     1      -0.118  -0.701   1.760  0.00  0.00    +0.003 A 
ENDBRANCH  13  18
ENDBRANCH  12  13
ENDBRANCH   8  12
ENDBRANCH   1   9
BRANCH   5  21
ATOM     21  C   UNL     1       4.344  -9.771   1.195  0.00  0.00    +0.215 C 
ATOM     22  O   UNL     1       3.532 -10.003   2.065  0.00  0.00    -0.276 OA
ATOM     23  N   UNL     1       5.571 -10.325   1.254  0.00  0.00    -0.313 N 
ATOM     24  H   UNL     1       6.221 -10.140   0.558  0.00  0.00    +0.149 HD
BRANCH  23  25
ATOM     25  C   UNL     1       5.924 -11.207   2.369  0.00  0.00    +0.070 C 
ATOM     26  C   UNL     1       5.457 -12.631   2.061  0.00  0.00    +0.028 C 
BRANCH  25  27
ATOM     27  C   UNL     1       7.441 -11.200   2.565  0.00  0.00    +0.025 C 
BRANCH  27  28
ATOM     28  C   UNL     1       7.893  -9.803   2.998  0.00  0.00    -0.015 C 
ATOM     29  C   UNL     1       7.323  -9.489   4.383  0.00  0.00    +0.007 C 
ATOM     30  C   UNL     1       9.421  -9.755   3.052  0.00  0.00    +0.007 C 
ENDBRANCH  27  28
ENDBRANCH  25  27
ENDBRANCH  23  25
ENDBRANCH   5  21
TORSDOF 8
