REMARK  Name = ZINC55139363
REMARK  6 active torsions:
REMARK  status: ('A' for Active; 'I' for Inactive)
REMARK    1  A    between atoms: C_1  and  C_2
REMARK    2  A    between atoms: C_7  and  C_9
REMARK    3  A    between atoms: C_7  and  C_10
REMARK    4  A    between atoms: C_11  and  C_13
REMARK    5  A    between atoms: C_13  and  C_14
REMARK    6  A    between atoms: C_19  and  N_22
REMARK                            x       y       z     vdW  Elec       q    Type
REMARK                         _______ _______ _______ _____ _____    ______ ____
ROOT
ATOM      1  C   UNL     1      -0.019   1.526   0.010  0.00  0.00    +0.039 C 
ATOM      2  C   UNL     1       0.002  -0.004   0.002  0.00  0.00    +0.133 C 
ATOM      3  C   UNL     1       0.722  -0.499  -1.258  0.00  0.00    +0.139 C 
ATOM      4  N   UNL     1       0.894  -1.957  -1.151  0.00  0.00    -0.296 N 
ATOM      5  C   UNL     1       1.483  -2.495   0.085  0.00  0.00    +0.142 C 
ATOM      6  C   UNL     1       0.726  -1.903   1.280  0.00  0.00    +0.080 C 
ATOM      7  O   UNL     1       0.695  -0.479   1.159  0.00  0.00    -0.368 OA
ATOM      8  C   UNL     1       1.437  -2.290   2.578  0.00  0.00    +0.043 C 
ATOM      9  C   UNL     1      -0.705  -2.444   1.298  0.00  0.00    +0.043 C 
ATOM     10  C   UNL     1       0.523  -2.775  -2.156  0.00  0.00    +0.216 C 
ATOM     11  O   UNL     1       0.672  -3.974  -2.049  0.00  0.00    -0.276 OA
ENDROOT
BRANCH  10  12
ATOM     12  C   UNL     1      -0.078  -2.200  -3.413  0.00  0.00    +0.099 C 
BRANCH  12  13
ATOM     13  C   UNL     1      -0.408  -3.333  -4.386  0.00  0.00    -0.004 C 
ATOM     14  C   UNL     1      -1.500  -4.220  -3.784  0.00  0.00    +0.004 C 
ATOM     15  C   UNL     1      -1.829  -5.354  -4.757  0.00  0.00    -0.001 C 
ATOM     16  C   UNL     1      -2.323  -4.764  -6.080  0.00  0.00    -0.016 C 
ATOM     17  C   UNL     1      -1.231  -3.877  -6.681  0.00  0.00    -0.075 C 
ATOM     18  C   UNL     1      -0.901  -2.743  -5.708  0.00  0.00    -0.012 C 
BRANCH  17  19
ATOM     19  N   UNL     1      -0.025  -4.681  -6.923  0.00  0.00    +0.380 N 
ATOM     20  H   UNL     1      -0.243  -5.428  -7.565  0.00  0.00    -0.090 HD
ATOM     21  H   UNL     1       0.695  -4.096  -7.320  0.00  0.00    -0.090 HD
ATOM     22  H   UNL     1       0.300  -5.070  -6.051  0.00  0.00    -0.090 HD
ENDBRANCH  17  19
ENDBRANCH  12  13
ENDBRANCH  10  12
TORSDOF 3
