REMARK  Name = ZINC30961004
REMARK  11 active torsions:
REMARK  status: ('A' for Active; 'I' for Inactive)
REMARK    1  A    between atoms: C_1  and  C_2
REMARK    2  A    between atoms: C_2  and  N_3
REMARK    3  A    between atoms: N_3  and  C_4
REMARK    4  A    between atoms: N_3  and  C_16
REMARK    5  A    between atoms: C_4  and  C_5
REMARK    6  A    between atoms: N_7  and  C_8
REMARK    7  A    between atoms: C_13  and  O_14
REMARK    8  A    between atoms: O_14  and  C_15
REMARK    9  A    between atoms: C_16  and  C_17
REMARK   10  A    between atoms: N_22  and  C_23
REMARK   11  A    between atoms: C_28  and  C_29
REMARK                            x       y       z     vdW  Elec       q    Type
REMARK                         _______ _______ _______ _____ _____    ______ ____
ROOT
ATOM      1  N   UNL     1       1.944   0.028  -0.480  0.00  0.00    +0.391 N 
ATOM      2  H   UNL     1       1.730  -0.877   0.108  0.00  0.00    -0.080 HD
ENDROOT
BRANCH   1   4
ATOM      3  C   UNL     1       2.608   0.838  -2.693  0.00  0.00    -0.017 C 
ATOM      4  C   UNL     1       2.250  -0.390  -1.855  0.00  0.00    -0.081 C 
ENDBRANCH   1   4
BRANCH   1   5
ATOM      5  C   UNL     1       0.750   0.883  -0.443  0.00  0.00    +0.020 C 
BRANCH   5   6
ATOM      6  C   UNL     1      -0.457   0.077  -0.850  0.00  0.00    +0.201 C 
ATOM      7  O   UNL     1      -0.335  -1.093  -1.142  0.00  0.00    -0.278 OA
ATOM      8  N   UNL     1      -1.672   0.660  -0.895  0.00  0.00    -0.284 N 
ATOM      9  H   UNL     1      -1.799   1.696  -0.547  0.00  0.00    +0.155 HD
BRANCH   8  10
ATOM     10  C   UNL     1      -2.774  -0.054  -1.385  0.00  0.00    +0.076 A 
ATOM     11  C   UNL     1      -2.855  -1.425  -1.192  0.00  0.00    +0.027 A 
ATOM     12  C   UNL     1      -3.945  -2.127  -1.672  0.00  0.00    +0.002 A 
ATOM     13  C   UNL     1      -4.951  -1.466  -2.354  0.00  0.00    +0.004 A 
ATOM     14  C   UNL     1      -4.873  -0.101  -2.555  0.00  0.00    +0.047 A 
ATOM     15  C   UNL     1      -3.787   0.610  -2.072  0.00  0.00    +0.141 A 
BRANCH  15  16
ATOM     16  O   UNL     1      -3.709   1.954  -2.269  0.00  0.00    -0.493 OA
ATOM     17  C   UNL     1      -4.785   2.568  -2.982  0.00  0.00    +0.277 C 
ENDBRANCH  15  16
ENDBRANCH   8  10
ENDBRANCH   5   6
ENDBRANCH   1   5
BRANCH   1  18
ATOM     18  C   UNL     1       3.095   0.704   0.133  0.00  0.00    +0.020 C 
BRANCH  18  19
ATOM     19  C   UNL     1       4.159  -0.312   0.460  0.00  0.00    +0.204 C 
ATOM     20  O   UNL     1       3.974  -1.484   0.212  0.00  0.00    -0.277 OA
ATOM     21  N   UNL     1       5.315   0.083   1.029  0.00  0.00    -0.241 N 
ATOM     22  C   UNL     1       6.266  -0.826   1.322  0.00  0.00    +0.310 C 
ATOM     23  O   UNL     1       6.081  -2.001   1.073  0.00  0.00    -0.252 OA
ATOM     24  N   UNL     1       7.423  -0.431   1.890  0.00  0.00    -0.268 N 
ATOM     25  H   UNL     1       5.482   1.147   1.254  0.00  0.00    +0.159 HD
ATOM     26  H   UNL     1       7.555   0.617   2.198  0.00  0.00    +0.156 HD
BRANCH  24  27
ATOM     27  C   UNL     1       8.451  -1.351   2.088  0.00  0.00    +0.052 A 
ATOM     28  C   UNL     1       8.605  -2.423   1.220  0.00  0.00    +0.024 A 
ATOM     29  C   UNL     1       9.628  -3.330   1.416  0.00  0.00    +0.002 A 
ATOM     30  C   UNL     1      10.500  -3.185   2.482  0.00  0.00    +0.001 A 
ATOM     31  C   UNL     1      10.359  -2.129   3.358  0.00  0.00    +0.021 A 
ATOM     32  C   UNL     1       9.333  -1.200   3.170  0.00  0.00    +0.073 A 
BRANCH  32  33
ATOM     33  C   UNL     1       9.181  -0.102   4.076  0.00  0.00    +0.101 C 
ATOM     34  N   UNL     1       9.060   0.770   4.794  0.00  0.00    -0.191 NA
ENDBRANCH  32  33
ENDBRANCH  24  27
ENDBRANCH  18  19
ENDBRANCH   1  18
TORSDOF 9
