REMARK  Name = ZINC16629729
REMARK  12 active torsions:
REMARK  status: ('A' for Active; 'I' for Inactive)
REMARK    1  A    between atoms: C_1  and  C_2
REMARK    2  A    between atoms: C_5  and  C_8
REMARK    3  A    between atoms: C_11  and  S_14
REMARK    4  A    between atoms: N_12  and  N_13
REMARK    5  A    between atoms: S_14  and  C_15
REMARK    6  A    between atoms: C_15  and  C_16
REMARK    7  A    between atoms: N_18  and  C_19
REMARK    8  A    between atoms: C_20  and  C_34
REMARK    9  A    between atoms: C_21  and  C_33
REMARK   10  A    between atoms: C_22  and  C_32
REMARK   11  A    between atoms: N_23  and  C_24
REMARK   12  A    between atoms: C_24  and  C_25
REMARK                            x       y       z     vdW  Elec       q    Type
REMARK                         _______ _______ _______ _____ _____    ______ ____
ROOT
ATOM      1  C   UNL     1       0.491   2.075   2.921  0.00  0.00    +0.229 C 
ATOM      2  O   UNL     1      -0.291   1.686   2.080  0.00  0.00    -0.275 OA
ATOM      3  N   UNL     1       1.693   2.560   2.550  0.00  0.00    -0.270 N 
ATOM      4  H   UNL     1       2.330   2.845   3.224  0.00  0.00    +0.156 HD
ENDROOT
BRANCH   3   5
ATOM      5  C   UNL     1       2.019   2.653   1.206  0.00  0.00    +0.124 A 
ATOM      6  C   UNL     1       1.292   3.327   0.234  0.00  0.00    +0.095 A 
ATOM      7  C   UNL     1       2.026   3.136  -1.024  0.00  0.00    -0.011 A 
ATOM      8  C   UNL     1       3.105   2.393  -0.731  0.00  0.00    +0.022 A 
ATOM      9  N   UNL     1       3.107   2.103   0.607  0.00  0.00    -0.327 N 
ATOM     10  C   UNL     1       4.152   1.948  -1.721  0.00  0.00    +0.064 C 
ATOM     11  C   UNL     1       1.641   3.670  -2.380  0.00  0.00    +0.047 C 
BRANCH   6  12
ATOM     12  C   UNL     1       0.073   4.055   0.418  0.00  0.00    +0.103 C 
ATOM     13  N   UNL     1      -0.894   4.633   0.565  0.00  0.00    -0.191 NA
ENDBRANCH   6  12
BRANCH   9  14
ATOM     14  C   UNL     1       4.131   1.311   1.293  0.00  0.00    +0.158 C 
BRANCH  14  15
ATOM     15  C   UNL     1       3.770  -0.150   1.216  0.00  0.00    -0.028 A 
ATOM     16  C   UNL     1       3.057  -0.741   2.243  0.00  0.00    +0.008 A 
ATOM     17  C   UNL     1       2.722  -2.079   2.171  0.00  0.00    +0.038 A 
ATOM     18  C   UNL     1       3.109  -2.832   1.075  0.00  0.00    +0.123 A 
ATOM     19  C   UNL     1       3.827  -2.241   0.050  0.00  0.00    +0.038 A 
ATOM     20  C   UNL     1       4.157  -0.900   0.121  0.00  0.00    +0.008 A 
ATOM     21  F   UNL     1       2.785  -4.142   1.007  0.00  0.00    -0.205 F 
ENDBRANCH  14  15
ENDBRANCH   9  14
ENDBRANCH   3   5
BRANCH   1  22
ATOM     22  C   UNL     1       0.120   2.015   4.380  0.00  0.00    +0.173 C 
BRANCH  22  23
ATOM     23  S   UNL     1      -1.542   1.321   4.552  0.00  0.00    -0.075 S 
BRANCH  23  27
ATOM     24  C   UNL     1      -2.477   1.177   8.343  0.00  0.00    +0.182 A 
ATOM     25  N   UNL     1      -1.269   1.691   8.364  0.00  0.00    -0.127 NA
ATOM     26  N   UNL     1      -0.817   1.797   7.165  0.00  0.00    -0.121 NA
ATOM     27  C   UNL     1      -1.713   1.365   6.305  0.00  0.00    +0.209 A 
ATOM     28  N   UNL     1      -2.798   0.953   7.024  0.00  0.00    -0.224 N 
BRANCH  24  33
ATOM     29  C   UNL     1      -5.799   0.069  12.909  0.00  0.00    +0.044 C 
ATOM     30  C   UNL     1      -4.929   0.359  11.713  0.00  0.00    -0.050 A 
ATOM     31  C   UNL     1      -5.228  -0.212  10.489  0.00  0.00    +0.004 A 
ATOM     32  C   UNL     1      -4.436   0.050   9.391  0.00  0.00    +0.012 A 
ATOM     33  C   UNL     1      -3.330   0.892   9.516  0.00  0.00    +0.021 A 
ATOM     34  C   UNL     1      -3.030   1.460  10.755  0.00  0.00    +0.012 A 
ATOM     35  C   UNL     1      -3.834   1.195  11.845  0.00  0.00    +0.004 A 
ENDBRANCH  24  33
BRANCH  28  36
ATOM     36  N   UNL     1      -3.960   0.427   6.536  0.00  0.00    -0.295 N 
ATOM     37  H   UNL     1      -3.937  -0.582   6.555  0.00  0.00    +0.163 HD
ATOM     38  H   UNL     1      -4.758   0.780   7.043  0.00  0.00    +0.163 HD
ENDBRANCH  28  36
ENDBRANCH  23  27
ENDBRANCH  22  23
ENDBRANCH   1  22
TORSDOF 9
