REMARK  Name = ZINC65414957
REMARK  12 active torsions:
REMARK  status: ('A' for Active; 'I' for Inactive)
REMARK    1  A    between atoms: C_1  and  C_2
REMARK    2  A    between atoms: C_5  and  C_8
REMARK    3  A    between atoms: C_8  and  C_9
REMARK    4  A    between atoms: C_8  and  N_26
REMARK    5  A    between atoms: C_9  and  N_10
REMARK    6  A    between atoms: N_13  and  C_14
REMARK    7  A    between atoms: C_17  and  O_21
REMARK    8  A    between atoms: C_19  and  C_20
REMARK    9  A    between atoms: O_21  and  C_22
REMARK   10  A    between atoms: C_22  and  C_23
REMARK   11  A    between atoms: N_26  and  C_27
REMARK   12  A    between atoms: N_26  and  C_28
REMARK                            x       y       z     vdW  Elec       q    Type
REMARK                         _______ _______ _______ _____ _____    ______ ____
ROOT
ATOM      1  N   UNL     1       1.425  -6.181   0.690  0.00  0.00    -0.300 N 
ATOM      2  C   UNL     1       2.523  -6.833   1.121  0.00  0.00    +0.304 C 
ATOM      3  O   UNL     1       3.575  -6.236   1.246  0.00  0.00    -0.253 OA
ATOM      4  N   UNL     1       2.455  -8.147   1.413  0.00  0.00    -0.269 N 
ATOM      5  H   UNL     1       0.586  -6.657   0.590  0.00  0.00    +0.150 HD
ATOM      6  H   UNL     1       1.601  -8.606   1.388  0.00  0.00    +0.156 HD
ENDROOT
BRANCH   4   7
ATOM      7  C   UNL     1       3.619  -8.851   1.751  0.00  0.00    +0.038 A 
ATOM      8  C   UNL     1       4.857  -8.393   1.321  0.00  0.00    +0.027 A 
ATOM      9  C   UNL     1       6.004  -9.087   1.655  0.00  0.00    +0.047 A 
ATOM     10  C   UNL     1       5.918 -10.241   2.420  0.00  0.00    +0.122 A 
ATOM     11  C   UNL     1       4.681 -10.699   2.850  0.00  0.00    +0.050 A 
ATOM     12  C   UNL     1       3.535 -10.003   2.521  0.00  0.00    -0.026 A 
ATOM     13  C   UNL     1       2.192 -10.497   2.994  0.00  0.00    +0.046 C 
BRANCH  10  14
ATOM     14  O   UNL     1       7.047 -10.924   2.748  0.00  0.00    -0.483 OA
BRANCH  14  15
ATOM     15  C   UNL     1       8.287 -10.396   2.271  0.00  0.00    +0.324 C 
BRANCH  15  16
ATOM     16  C   UNL     1       9.418 -11.279   2.730  0.00  0.00    +0.248 C 
ATOM     17  O   UNL     1       9.187 -12.263   3.399  0.00  0.00    -0.272 OA
ATOM     18  N   UNL     1      10.688 -10.974   2.396  0.00  0.00    -0.327 N 
ATOM     19  H   UNL     1      10.874 -10.187   1.861  0.00  0.00    +0.145 HD
ATOM     20  H   UNL     1      11.417 -11.543   2.692  0.00  0.00    +0.145 HD
ENDBRANCH  15  16
ENDBRANCH  14  15
ENDBRANCH  10  14
ENDBRANCH   4   7
BRANCH   1  21
ATOM     21  C   UNL     1       1.499  -4.752   0.373  0.00  0.00    +0.095 C 
BRANCH  21  22
ATOM     22  C   UNL     1       0.101  -4.233   0.030  0.00  0.00    -0.021 C 
BRANCH  22  27
ATOM     23  C   UNL     1      -1.755  -6.758  -4.825  0.00  0.00    +0.044 C 
ATOM     24  C   UNL     1      -1.271  -6.100  -3.559  0.00  0.00    -0.050 A 
ATOM     25  C   UNL     1      -1.705  -6.561  -2.330  0.00  0.00    +0.003 A 
ATOM     26  C   UNL     1      -1.261  -5.957  -1.169  0.00  0.00    +0.002 A 
ATOM     27  C   UNL     1      -0.382  -4.892  -1.236  0.00  0.00    -0.059 A 
ATOM     28  C   UNL     1       0.053  -4.432  -2.465  0.00  0.00    +0.002 A 
ATOM     29  C   UNL     1      -0.388  -5.038  -3.626  0.00  0.00    +0.003 A 
ENDBRANCH  22  27
BRANCH  22  30
ATOM     30  N   UNL     1       0.154  -2.778  -0.165  0.00  0.00    +0.382 N 
ATOM     31  C   UNL     1      -1.204  -2.266  -0.396  0.00  0.00    -0.096 C 
ATOM     32  C   UNL     1       0.719  -2.144   1.034  0.00  0.00    -0.096 C 
ATOM     33  H   UNL     1       0.733  -2.566  -0.963  0.00  0.00    -0.082 HD
ENDBRANCH  22  30
ENDBRANCH  21  22
ENDBRANCH   1  21
TORSDOF 8
