REMARK  Name = ZINC43253613
REMARK  8 active torsions:
REMARK  status: ('A' for Active; 'I' for Inactive)
REMARK    1  A    between atoms: C_1  and  C_2
REMARK    2  A    between atoms: C_2  and  C_4
REMARK    3  A    between atoms: C_2  and  N_21
REMARK    4  A    between atoms: C_4  and  C_6
REMARK    5  A    between atoms: C_4  and  N_12
REMARK    6  A    between atoms: N_12  and  C_13
REMARK    7  A    between atoms: N_12  and  C_14
REMARK    8  A    between atoms: C_14  and  C_15
REMARK                            x       y       z     vdW  Elec       q    Type
REMARK                         _______ _______ _______ _____ _____    ______ ____
ROOT
ATOM      1  C   UNL     1       0.727  -0.527   1.090  0.00  0.00    +0.079 C 
ENDROOT
BRANCH   1   2
ATOM      2  C   UNL     1      -0.255  -0.245   2.197  0.00  0.00    +0.007 A 
ATOM      3  C   UNL     1      -1.038  -1.111   2.884  0.00  0.00    +0.014 A 
ATOM      4  C   UNL     1      -1.875  -0.622   3.870  0.00  0.00    +0.028 A 
ATOM      5  C   UNL     1      -1.886   0.711   4.121  0.00  0.00    +0.078 A 
ATOM      6  S   UNL     1      -0.684   1.317   2.948  0.00  0.00    -0.080 S 
ATOM      7 CL   UNL     1      -2.821   1.597   5.284  0.00  0.00    -0.076 Cl
ENDBRANCH   1   2
BRANCH   1   9
ATOM      8  C   UNL     1      -0.167   1.341  -0.308  0.00  0.00    -0.012 C 
ATOM      9  C   UNL     1       0.097  -0.166  -0.257  0.00  0.00    -0.056 C 
BRANCH   9  10
ATOM     10  N   UNL     1      -1.172  -0.890  -0.414  0.00  0.00    +0.381 N 
ATOM     11  H   UNL     1      -0.998  -1.883  -0.380  0.00  0.00    -0.090 HD
ATOM     12  H   UNL     1      -1.800  -0.633   0.332  0.00  0.00    -0.090 HD
ATOM     13  H   UNL     1      -1.587  -0.651  -1.301  0.00  0.00    -0.090 HD
ENDBRANCH   9  10
ENDBRANCH   1   9
BRANCH   1  14
ATOM     14  N   UNL     1       1.940   0.277   1.294  0.00  0.00    -0.295 NA
ATOM     15  C   UNL     1       2.893   0.082   0.193  0.00  0.00    +0.105 C 
BRANCH  14  16
ATOM     16  C   UNL     1       2.562  -0.029   2.589  0.00  0.00    +0.120 C 
BRANCH  16  17
ATOM     17  C   UNL     1       3.649   0.975   2.874  0.00  0.00    -0.025 A 
ATOM     18  C   UNL     1       4.946   0.743   2.456  0.00  0.00    +0.028 A 
ATOM     19  C   UNL     1       5.900   1.667   2.728  0.00  0.00    +0.055 A 
ATOM     20  S   UNL     1       4.967   2.914   3.601  0.00  0.00    -0.090 S 
ATOM     21  C   UNL     1       3.368   2.123   3.539  0.00  0.00    +0.051 A 
ATOM     22 BR   UNL     1       7.741   1.642   2.297  0.00  0.00    -0.043 Br
ENDBRANCH  16  17
ENDBRANCH  14  16
ENDBRANCH   1  14
TORSDOF 6
