REMARK  Name = ZINC40683838
REMARK  9 active torsions:
REMARK  status: ('A' for Active; 'I' for Inactive)
REMARK    1  A    between atoms: C_1  and  O_2
REMARK    2  A    between atoms: O_2  and  C_3
REMARK    3  A    between atoms: C_6  and  C_11
REMARK    4  A    between atoms: C_8  and  O_9
REMARK    5  A    between atoms: O_9  and  C_10
REMARK    6  A    between atoms: C_11  and  C_12
REMARK    7  A    between atoms: C_12  and  N_13
REMARK    8  A    between atoms: C_15  and  N_30
REMARK    9  A    between atoms: C_16  and  N_20
REMARK                            x       y       z     vdW  Elec       q    Type
REMARK                         _______ _______ _______ _____ _____    ______ ____
ROOT
ATOM      1  N   UNL     1       2.273  -3.410   6.587  0.00  0.00    -0.327 N 
ATOM      2  C   UNL     1       1.545  -3.772   7.714  0.00  0.00    +0.145 A 
ATOM      3  C   UNL     1       2.170  -4.410   8.788  0.00  0.00    +0.104 A 
ATOM      4  C   UNL     1       1.392  -4.751   9.895  0.00  0.00    +0.129 A 
ATOM      5  N   UNL     1       0.093  -4.458   9.885  0.00  0.00    -0.332 N 
ATOM      6  C   UNL     1      -0.458  -3.855   8.852  0.00  0.00    +0.200 A 
ATOM      7  N   UNL     1       0.242  -3.511   7.789  0.00  0.00    -0.221 NA
ATOM      8  H   UNL     1       3.223  -3.604   6.540  0.00  0.00    +0.148 HD
ATOM      9  H   UNL     1      -0.455  -4.692  10.650  0.00  0.00    +0.168 HD
ENDROOT
BRANCH   4  10
ATOM     10  N   UNL     1       1.964  -5.388  10.990  0.00  0.00    -0.285 N 
ATOM     11  C   UNL     1       2.431  -4.611  12.146  0.00  0.00    +0.113 C 
ATOM     12  C   UNL     1       3.808  -5.154  12.551  0.00  0.00    +0.024 C 
ATOM     13  C   UNL     1       3.655  -6.608  12.995  0.00  0.00    +0.038 C 
ATOM     14  C   UNL     1       2.908  -7.401  11.955  0.00  0.00    -0.026 A 
ATOM     15  C   UNL     1       2.099  -6.782  11.012  0.00  0.00    +0.038 A 
ATOM     16  C   UNL     1       1.416  -7.544  10.072  0.00  0.00    +0.024 A 
ATOM     17  C   UNL     1       1.538  -8.919  10.075  0.00  0.00    +0.002 A 
ATOM     18  C   UNL     1       2.342  -9.537  11.015  0.00  0.00    +0.000 A 
ATOM     19  C   UNL     1       3.032  -8.780  11.947  0.00  0.00    +0.005 A 
ENDBRANCH   4  10
BRANCH   3  20
ATOM     20  N   UNL     1       3.543  -4.700   8.754  0.00  0.00    -0.353 N 
ATOM     21  H   UNL     1       4.054  -4.535   7.946  0.00  0.00    +0.143 HD
ATOM     22  H   UNL     1       3.981  -5.066   9.538  0.00  0.00    +0.143 HD
ENDBRANCH   3  20
BRANCH   1  23
ATOM     23  C   UNL     1       1.607  -2.736   5.470  0.00  0.00    +0.107 C 
BRANCH  23  24
ATOM     24  C   UNL     1       2.627  -2.450   4.366  0.00  0.00    +0.054 C 
BRANCH  24  28
ATOM     25  C   UNL     1       0.685  -0.476   1.107  0.00  0.00    +0.161 A 
ATOM     26  C   UNL     1       1.243   0.265   2.136  0.00  0.00    +0.049 A 
ATOM     27  C   UNL     1       1.870  -0.376   3.188  0.00  0.00    +0.007 A 
ATOM     28  C   UNL     1       1.942  -1.757   3.216  0.00  0.00    -0.042 A 
ATOM     29  C   UNL     1       1.387  -2.502   2.193  0.00  0.00    +0.053 A 
ATOM     30  C   UNL     1       0.752  -1.866   1.138  0.00  0.00    +0.162 A 
BRANCH  25  32
ATOM     31  C   UNL     1       0.036   1.581   0.105  0.00  0.00    +0.277 C 
ATOM     32  O   UNL     1       0.067   0.152   0.071  0.00  0.00    -0.491 OA
ENDBRANCH  25  32
BRANCH  30  33
ATOM     33  O   UNL     1       0.201  -2.598   0.133  0.00  0.00    -0.491 OA
ATOM     34  C   UNL     1       0.308  -4.020   0.232  0.00  0.00    +0.277 C 
ENDBRANCH  30  33
ENDBRANCH  24  28
ENDBRANCH  23  24
ENDBRANCH   1  23
TORSDOF 7
