REMARK  Name = ZINC57669307
REMARK  7 active torsions:
REMARK  status: ('A' for Active; 'I' for Inactive)
REMARK    1  A    between atoms: C_1  and  C_2
REMARK    2  A    between atoms: C_2  and  C_3
REMARK    3  A    between atoms: C_2  and  C_4
REMARK    4  A    between atoms: C_2  and  N_18
REMARK    5  A    between atoms: C_4  and  N_5
REMARK    6  A    between atoms: N_8  and  C_9
REMARK    7  A    between atoms: C_9  and  C_10
REMARK                            x       y       z     vdW  Elec       q    Type
REMARK                         _______ _______ _______ _____ _____    ______ ____
ROOT
ATOM      1  C   UNL     1      -1.523  -0.094   0.078  0.00  0.00    +0.093 C 
ENDROOT
BRANCH   1   2
ATOM      2  N   UNL     1      -1.928  -1.502   0.115  0.00  0.00    -0.301 N 
ATOM      3  C   UNL     1      -3.235  -1.826   0.182  0.00  0.00    +0.300 C 
ATOM      4  O   UNL     1      -4.077  -0.950   0.213  0.00  0.00    -0.253 OA
ATOM      5  N   UNL     1      -3.607  -3.121   0.216  0.00  0.00    -0.292 N 
ATOM      6  H   UNL     1      -1.256  -2.201   0.090  0.00  0.00    +0.150 HD
ATOM      7  H   UNL     1      -2.934  -3.820   0.191  0.00  0.00    +0.151 HD
BRANCH   5   8
ATOM      8  C   UNL     1      -5.027  -3.473   0.290  0.00  0.00    +0.182 C 
BRANCH   8   9
ATOM      9  C   UNL     1      -5.172  -4.973   0.315  0.00  0.00    +0.151 A 
ATOM     10  N   UNL     1      -5.292  -5.756  -0.722  0.00  0.00    -0.133 NA
ATOM     11  N   UNL     1      -5.395  -6.977  -0.333  0.00  0.00    -0.134 NA
ATOM     12  C   UNL     1      -5.347  -7.027   0.972  0.00  0.00    +0.134 A 
ATOM     13  N   UNL     1      -5.196  -5.760   1.419  0.00  0.00    -0.313 N 
ATOM     14  C   UNL     1      -5.117  -5.721   2.884  0.00  0.00    +0.125 C 
ATOM     15  C   UNL     1      -5.667  -7.082   3.365  0.00  0.00    +0.029 C 
ATOM     16  C   UNL     1      -5.396  -7.985   2.143  0.00  0.00    +0.078 C 
ENDBRANCH   8   9
ENDBRANCH   5   8
ENDBRANCH   1   2
BRANCH   1  18
ATOM     17  C   UNL     1       0.425   1.466  -0.036  0.00  0.00    -0.008 C 
ATOM     18  C   UNL     1       0.002  -0.004   0.002  0.00  0.00    -0.055 C 
ATOM     19  C   UNL     1       0.615  -0.679   1.231  0.00  0.00    -0.008 C 
BRANCH  18  20
ATOM     20  N   UNL     1       0.473  -0.681  -1.214  0.00  0.00    +0.387 N 
ATOM     21  C   UNL     1       1.927  -0.503  -1.345  0.00  0.00    -0.073 C 
ATOM     22  C   UNL     1       2.439  -1.456  -2.426  0.00  0.00    +0.017 C 
ATOM     23  C   UNL     1       1.615  -1.297  -3.678  0.00  0.00    -0.048 A 
ATOM     24  C   UNL     1       2.113  -1.800  -4.870  0.00  0.00    +0.004 A 
ATOM     25  C   UNL     1       1.385  -1.676  -6.036  0.00  0.00    +0.000 A 
ATOM     26  C   UNL     1       0.153  -1.047  -6.014  0.00  0.00    +0.000 A 
ATOM     27  C   UNL     1      -0.342  -0.545  -4.828  0.00  0.00    +0.002 A 
ATOM     28  C   UNL     1       0.389  -0.667  -3.656  0.00  0.00    -0.061 A 
ATOM     29  C   UNL     1      -0.186  -0.097  -2.386  0.00  0.00    -0.042 C 
ATOM     30  H   UNL     1       0.255  -1.664  -1.159  0.00  0.00    -0.080 HD
ENDBRANCH  18  20
ENDBRANCH   1  18
TORSDOF 5
