REMARK  Name = ZINC09076635
REMARK  4 active torsions:
REMARK  status: ('A' for Active; 'I' for Inactive)
REMARK    1  A    between atoms: C_8  and  C_28
REMARK    2  A    between atoms: C_11  and  C_12
REMARK    3  A    between atoms: C_11  and  N_47
REMARK    4  A    between atoms: C_18  and  C_23
REMARK                            x       y       z     vdW  Elec       q    Type
REMARK                         _______ _______ _______ _____ _____    ______ ____
ROOT
ATOM      1  C   UNL     1      -2.565   1.305   0.453  0.00  0.00    -0.002 C 
ENDROOT
BRANCH   1  11
ATOM      2  C   UNL     1       1.552   5.676  -1.839  0.00  0.00    +0.000 A 
ATOM      3  C   UNL     1       0.414   6.325  -1.397  0.00  0.00    +0.000 A 
ATOM      4  C   UNL     1      -0.600   5.604  -0.800  0.00  0.00    +0.002 A 
ATOM      5  C   UNL     1      -0.485   4.231  -0.642  0.00  0.00    -0.061 A 
ATOM      6  C   UNL     1       0.648   3.584  -1.087  0.00  0.00    -0.047 A 
ATOM      7  C   UNL     1       1.667   4.309  -1.684  0.00  0.00    +0.004 A 
ATOM      8  C   UNL     1       0.816   2.093  -0.942  0.00  0.00    +0.029 C 
ATOM      9  C   UNL     1      -0.183   1.552   0.082  0.00  0.00    +0.024 C 
ATOM     10  C   UNL     1      -1.617   3.488   0.019  0.00  0.00    -0.041 C 
ATOM     11  N   UNL     1      -1.524   2.051  -0.288  0.00  0.00    +0.395 N 
ATOM     12  H   UNL     1      -1.667   1.913  -1.295  0.00  0.00    -0.080 HD
BRANCH   9  13
ATOM     13  C   UNL     1      -0.180   0.045   0.044  0.00  0.00    +0.197 C 
ATOM     14  O   UNL     1      -0.830  -0.542  -0.795  0.00  0.00    -0.278 OA
ATOM     15  N   UNL     1       0.545  -0.649   0.943  0.00  0.00    -0.331 N 
ATOM     16  H   UNL     1       1.065  -0.180   1.614  0.00  0.00    +0.145 HD
ATOM     17  H   UNL     1       0.547  -1.619   0.919  0.00  0.00    +0.145 HD
ENDBRANCH   9  13
ENDBRANCH   1  11
BRANCH   1  18
ATOM     18  C   UNL     1      -3.916   1.883   0.120  0.00  0.00    +0.094 A 
ATOM     19  N   UNL     1      -5.014   1.440   0.786  0.00  0.00    -0.312 N 
ATOM     20  H   UNL     1      -4.913   0.757   1.467  0.00  0.00    +0.170 HD
ATOM     21  C   UNL     1      -6.238   1.934   0.523  0.00  0.00    +0.260 A 
ATOM     22  O   UNL     1      -7.213   1.528   1.133  0.00  0.00    -0.267 OA
ATOM     23  C   UNL     1      -6.379   2.937  -0.488  0.00  0.00    +0.080 A 
ATOM     24  C   UNL     1      -7.583   3.615  -0.954  0.00  0.00    +0.010 A 
ATOM     25  C   UNL     1      -7.469   4.543  -1.937  0.00  0.00    +0.057 A 
ATOM     26  S   UNL     1      -5.723   4.556  -2.292  0.00  0.00    -0.076 S 
ATOM     27  C   UNL     1      -5.190   3.329  -1.126  0.00  0.00    +0.116 A 
ATOM     28  N   UNL     1      -4.013   2.798  -0.807  0.00  0.00    -0.229 NA
BRANCH  24  29
ATOM     29  C   UNL     1      -8.902   3.297  -0.366  0.00  0.00    +0.021 A 
ATOM     30  C   UNL     1      -9.854   4.149   0.128  0.00  0.00    +0.016 A 
ATOM     31  C   UNL     1     -11.023   3.615   0.629  0.00  0.00    +0.008 A 
ATOM     32  C   UNL     1     -11.190   2.269   0.627  0.00  0.00    +0.046 A 
ATOM     33  S   UNL     1      -9.664   1.704  -0.108  0.00  0.00    -0.097 S 
ENDBRANCH  24  29
ENDBRANCH   1  18
TORSDOF 4
