REMARK  Name = ZINC59170652
REMARK  8 active torsions:
REMARK  status: ('A' for Active; 'I' for Inactive)
REMARK    1  A    between atoms: C_1  and  C_2
REMARK    2  A    between atoms: C_2  and  C_3
REMARK    3  A    between atoms: C_8  and  N_9
REMARK    4  A    between atoms: C_10  and  C_12
REMARK    5  A    between atoms: C_17  and  O_33
REMARK    6  A    between atoms: N_22  and  C_23
REMARK    7  A    between atoms: C_26  and  S_29
REMARK    8  A    between atoms: S_29  and  N_32
REMARK                            x       y       z     vdW  Elec       q    Type
REMARK                         _______ _______ _______ _____ _____    ______ ____
ROOT
ATOM      1  C   UNL     1      -1.447  -0.343  -4.807  0.00  0.00    +0.098 A 
ATOM      2  C   UNL     1      -2.142  -0.463  -6.002  0.00  0.00    +0.030 A 
ATOM      3  C   UNL     1      -1.457  -0.165  -7.207  0.00  0.00    +0.018 A 
ATOM      4  C   UNL     1      -2.159  -0.075  -8.419  0.00  0.00    +0.015 A 
ATOM      5  C   UNL     1      -1.497   0.253  -9.565  0.00  0.00    +0.046 A 
ATOM      6  C   UNL     1      -0.124   0.492  -9.545  0.00  0.00    +0.120 A 
ATOM      7  C   UNL     1       0.590   0.388  -8.361  0.00  0.00    +0.092 A 
ATOM      8  C   UNL     1      -0.065   0.049  -7.189  0.00  0.00    +0.141 A 
ATOM      9  O   UNL     1       0.630  -0.098  -6.035  0.00  0.00    -0.438 OA
ATOM     10  C   UNL     1      -0.049   0.126  -4.878  0.00  0.00    +0.212 A 
ATOM     11  N   UNL     1       0.518   0.735  -3.859  0.00  0.00    -0.325 N 
ATOM     12  H   UNL     1      -0.014   0.989  -3.088  0.00  0.00    +0.169 HD
ENDROOT
BRANCH  11  13
ATOM     13  C   UNL     1       1.857   1.009  -3.885  0.00  0.00    +0.042 A 
ATOM     14  C   UNL     1       2.764   0.037  -4.316  0.00  0.00    +0.027 A 
ATOM     15  C   UNL     1       4.114   0.321  -4.340  0.00  0.00    +0.030 A 
ATOM     16  C   UNL     1       4.570   1.564  -3.938  0.00  0.00    +0.105 A 
ATOM     17  C   UNL     1       3.678   2.531  -3.510  0.00  0.00    +0.030 A 
ATOM     18  C   UNL     1       2.325   2.263  -3.486  0.00  0.00    +0.027 A 
BRANCH  16  19
ATOM     19  S   UNL     1       6.296   1.917  -3.972  0.00  0.00    +0.056 S 
ATOM     20  O   UNL     1       6.516   2.960  -3.033  0.00  0.00    -0.153 OA
ATOM     21  O   UNL     1       6.968   0.667  -3.894  0.00  0.00    -0.153 OA
BRANCH  19  22
ATOM     22  N   UNL     1       6.638   2.545  -5.466  0.00  0.00    -0.204 NA
ATOM     23  H   UNL     1       5.931   2.652  -6.121  0.00  0.00    +0.144 HD
ATOM     24  H   UNL     1       7.546   2.807  -5.686  0.00  0.00    +0.144 HD
ENDBRANCH  19  22
ENDBRANCH  16  19
ENDBRANCH  11  13
BRANCH   1  26
ATOM     25  N   UNL     1      -1.349  -0.653  -2.386  0.00  0.00    -0.281 N 
ATOM     26  C   UNL     1      -2.081  -0.664  -3.518  0.00  0.00    +0.253 C 
ATOM     27  O   UNL     1      -3.265  -0.940  -3.475  0.00  0.00    -0.270 OA
ATOM     28  H   UNL     1      -0.417  -0.389  -2.414  0.00  0.00    +0.155 HD
BRANCH  25  34
ATOM     29  C   UNL     1      -1.140  -1.444  -0.114  0.00  0.00    -0.026 A 
ATOM     30  C   UNL     1      -1.722  -1.803   1.086  0.00  0.00    +0.005 A 
ATOM     31  C   UNL     1      -3.095  -1.748   1.234  0.00  0.00    +0.000 A 
ATOM     32  C   UNL     1      -3.891  -1.334   0.181  0.00  0.00    +0.002 A 
ATOM     33  C   UNL     1      -3.316  -0.974  -1.021  0.00  0.00    +0.023 A 
ATOM     34  C   UNL     1      -1.936  -1.022  -1.171  0.00  0.00    +0.037 A 
BRANCH  29  36
ATOM     35  C   UNL     1       0.957  -0.127   0.016  0.00  0.00    +0.009 C 
ATOM     36  C   UNL     1       0.357  -1.504  -0.275  0.00  0.00    +0.033 C 
ENDBRANCH  29  36
ENDBRANCH  25  34
ENDBRANCH   1  26
BRANCH   6  37
ATOM     37  O   UNL     1       0.518   0.829 -10.692  0.00  0.00    -0.507 OA
ATOM     38  H   UNL     1       0.553   1.780 -10.859  0.00  0.00    +0.292 HD
ENDBRANCH   6  37
TORSDOF 7
