REMARK  Name = ZINC20573496
REMARK  7 active torsions:
REMARK  status: ('A' for Active; 'I' for Inactive)
REMARK    1  A    between atoms: C_1  and  S_2
REMARK    2  A    between atoms: S_2  and  C_3
REMARK    3  A    between atoms: C_3  and  C_4
REMARK    4  A    between atoms: C_4  and  C_5
REMARK    5  A    between atoms: C_5  and  C_7
REMARK    6  A    between atoms: C_5  and  N_24
REMARK    7  A    between atoms: C_25  and  C_27
REMARK                            x       y       z     vdW  Elec       q    Type
REMARK                         _______ _______ _______ _____ _____    ______ ____
ROOT
ATOM      1  C   UNL     1       1.700  -2.297  -2.963  0.00  0.00    +0.160 C 
ENDROOT
BRANCH   1   2
ATOM      2  C   UNL     1       2.009  -3.772  -2.979  0.00  0.00    +0.236 C 
ATOM      3  O   UNL     1       1.363  -4.519  -3.684  0.00  0.00    -0.274 OA
ATOM      4  N   UNL     1       3.002  -4.262  -2.211  0.00  0.00    -0.300 N 
ATOM      5  C   UNL     1       3.717  -3.392  -1.267  0.00  0.00    +0.110 C 
ATOM      6  C   UNL     1       3.667  -4.030   0.125  0.00  0.00    +0.047 C 
ATOM      7  C   UNL     1       4.210  -5.457   0.048  0.00  0.00    +0.064 C 
ATOM      8  C   UNL     1       3.345  -6.290  -0.898  0.00  0.00    +0.047 C 
ATOM      9  C   UNL     1       3.387  -5.677  -2.297  0.00  0.00    +0.110 C 
ATOM     10  C   UNL     1       4.200  -6.077   1.422  0.00  0.00    +0.057 A 
ATOM     11  C   UNL     1       5.231  -6.800   1.917  0.00  0.00    +0.039 A 
ATOM     12  N   UNL     1       4.880  -7.196   3.167  0.00  0.00    -0.349 N 
ATOM     13  H   UNL     1       5.415  -7.729   3.776  0.00  0.00    +0.166 HD
ATOM     14  C   UNL     1       3.640  -6.706   3.403  0.00  0.00    +0.171 A 
ATOM     15  N   UNL     1       3.243  -6.038   2.351  0.00  0.00    -0.348 N 
ATOM     16  C   UNL     1       6.500  -7.070   1.150  0.00  0.00    +0.070 C 
ATOM     17  C   UNL     1       6.233  -6.753  -0.329  0.00  0.00    +0.088 C 
ATOM     18  N   UNL     1       5.596  -5.432  -0.443  0.00  0.00    -0.305 NA
ATOM     19  H   UNL     1       5.638  -5.092  -1.392  0.00  0.00    +0.123 HD
ATOM     20  H   UNL     1       2.389  -5.587   2.260  0.00  0.00    +0.166 HD
ENDBRANCH   1   2
BRANCH   1  21
ATOM     21  N   UNL     1       1.095  -1.910  -4.239  0.00  0.00    -0.300 N 
ATOM     22  C   UNL     1       1.189  -0.637  -4.671  0.00  0.00    +0.245 C 
ATOM     23  O   UNL     1       1.777   0.190  -4.002  0.00  0.00    -0.270 OA
ATOM     24  H   UNL     1       0.626  -2.570  -4.774  0.00  0.00    +0.150 HD
BRANCH  22  25
ATOM     25  C   UNL     1       0.579  -0.247  -5.959  0.00  0.00    +0.037 A 
ATOM     26  C   UNL     1      -0.104  -1.207  -6.727  0.00  0.00    +0.013 A 
ATOM     27  C   UNL     1      -0.673  -0.873  -7.913  0.00  0.00    +0.009 A 
ATOM     28  C   UNL     1      -0.584   0.448  -8.390  0.00  0.00    -0.018 A 
ATOM     29  C   UNL     1      -1.165   0.818  -9.614  0.00  0.00    +0.008 A 
ATOM     30  C   UNL     1      -1.062   2.103 -10.049  0.00  0.00    +0.001 A 
ATOM     31  C   UNL     1      -0.388   3.064  -9.298  0.00  0.00    +0.001 A 
ATOM     32  C   UNL     1       0.188   2.744  -8.107  0.00  0.00    +0.008 A 
ATOM     33  C   UNL     1       0.102   1.425  -7.625  0.00  0.00    -0.017 A 
ATOM     34  C   UNL     1       0.679   1.063  -6.398  0.00  0.00    +0.021 A 
ENDBRANCH  22  25
ENDBRANCH   1  21
BRANCH   1  35
ATOM     35  C   UNL     1       0.726  -1.993  -1.823  0.00  0.00    +0.042 C 
BRANCH  35  36
ATOM     36  C   UNL     1       0.524  -0.480  -1.715  0.00  0.00    +0.071 C 
BRANCH  36  38
ATOM     37  C   UNL     1      -0.761   1.690  -0.368  0.00  0.00    +0.084 C 
ATOM     38  S   UNL     1      -0.632  -0.119  -0.364  0.00  0.00    -0.164 S 
ENDBRANCH  36  38
ENDBRANCH  35  36
ENDBRANCH   1  35
TORSDOF 6
