REMARK  Name = ZINC44762992
REMARK  3 active torsions:
REMARK  status: ('A' for Active; 'I' for Inactive)
REMARK    1  A    between atoms: C_13  and  C_15
REMARK    2  A    between atoms: C_15  and  C_21
REMARK    3  A    between atoms: C_21  and  N_22
REMARK                            x       y       z     vdW  Elec       q    Type
REMARK                         _______ _______ _______ _____ _____    ______ ____
ROOT
ATOM      1  C   UNL     1       0.366   0.444  -0.585  0.00  0.00    +0.000 C 
ATOM      2  C   UNL     1       1.695   1.196  -0.496  0.00  0.00    +0.002 C 
ATOM      3  C   UNL     1       2.361   0.917   0.854  0.00  0.00    +0.023 C 
ATOM      4  C   UNL     1       2.606  -0.585   0.988  0.00  0.00    +0.079 C 
ATOM      5  C   UNL     1       1.261  -1.318   0.931  0.00  0.00    +0.010 C 
ATOM      6  C   UNL     1       0.608  -1.060  -0.426  0.00  0.00    +0.005 C 
ATOM      7  C   UNL     1       1.497  -2.814   1.134  0.00  0.00    +0.007 C 
ATOM      8  C   UNL     1       2.109  -3.044   2.519  0.00  0.00    +0.019 C 
ATOM      9  C   UNL     1       3.450  -2.311   2.619  0.00  0.00    +0.108 C 
ATOM     10  N   UNL     1       3.253  -0.891   2.268  0.00  0.00    -0.298 N 
ATOM     11  C   UNL     1       3.658   0.096   3.092  0.00  0.00    +0.220 C 
ATOM     12  O   UNL     1       3.573   1.254   2.739  0.00  0.00    -0.275 OA
ENDROOT
BRANCH  11  13
ATOM     13  C   UNL     1       4.216  -0.238   4.451  0.00  0.00    +0.036 C 
ATOM     14  C   UNL     1       4.569   1.055   5.192  0.00  0.00    +0.042 C 
ATOM     15  C   UNL     1       5.667   1.792   4.421  0.00  0.00    +0.161 C 
ATOM     16  O   UNL     1       6.804   0.939   4.281  0.00  0.00    -0.380 OA
ATOM     17  C   UNL     1       6.545  -0.265   3.555  0.00  0.00    +0.161 C 
ATOM     18  C   UNL     1       5.482  -1.085   4.291  0.00  0.00    +0.042 C 
BRANCH  13  19
ATOM     19  C   UNL     1       3.175  -1.022   5.253  0.00  0.00    -0.070 C 
BRANCH  19  20
ATOM     20  N   UNL     1       2.020  -0.157   5.532  0.00  0.00    +0.379 N 
ATOM     21  H   UNL     1       1.302  -0.695   5.995  0.00  0.00    -0.090 HD
ATOM     22  H   UNL     1       2.306   0.605   6.128  0.00  0.00    -0.090 HD
ATOM     23  H   UNL     1       1.658   0.211   4.665  0.00  0.00    -0.090 HD
ENDBRANCH  19  20
ENDBRANCH  13  19
ENDBRANCH  11  13
TORSDOF 3
