REMARK  Name = ZINC06478156
REMARK  9 active torsions:
REMARK  status: ('A' for Active; 'I' for Inactive)
REMARK    1  A    between atoms: C_1  and  C_2
REMARK    2  A    between atoms: C_5  and  N_9
REMARK    3  A    between atoms: N_9  and  C_10
REMARK    4  A    between atoms: C_10  and  N_12
REMARK    5  A    between atoms: N_12  and  C_13
REMARK    6  A    between atoms: C_15  and  C_21
REMARK    7  A    between atoms: C_15  and  C_22
REMARK    8  A    between atoms: C_17  and  C_19
REMARK    9  A    between atoms: C_17  and  C_20
REMARK                            x       y       z     vdW  Elec       q    Type
REMARK                         _______ _______ _______ _____ _____    ______ ____
ROOT
ATOM      1  N   UNL     1       0.296  -6.208   1.192  0.00  0.00    -0.324 N 
ATOM      2  H   UNL     1       0.305  -6.678   0.343  0.00  0.00    +0.148 HD
ENDROOT
BRANCH   1   3
ATOM      3  C   UNL     1       0.411  -6.961   2.448  0.00  0.00    +0.069 C 
ATOM      4  C   UNL     1      -0.991  -7.275   2.975  0.00  0.00    +0.009 C 
ATOM      5  C   UNL     1      -0.889  -8.069   4.277  0.00  0.00    -0.072 C 
ATOM      6  N   UNL     1      -0.068  -9.262   4.129  0.00  0.00    +0.386 N 
ATOM      7  C   UNL     1       1.211  -9.122   3.451  0.00  0.00    -0.072 C 
ATOM      8  C   UNL     1       1.130  -8.282   2.180  0.00  0.00    +0.009 C 
ATOM      9  C   UNL     1       2.286  -8.556   4.383  0.00  0.00    -0.010 C 
ATOM     10  C   UNL     1       1.673 -10.539   3.036  0.00  0.00    -0.010 C 
ATOM     11  C   UNL     1      -2.318  -8.528   4.647  0.00  0.00    -0.010 C 
ATOM     12  C   UNL     1      -0.396  -7.168   5.408  0.00  0.00    -0.010 C 
ATOM     13  H   UNL     1       0.100  -9.653   5.059  0.00  0.00    -0.084 HD
ATOM     14  H   UNL     1      -0.618  -9.970   3.635  0.00  0.00    -0.084 HD
ENDBRANCH   1   3
BRANCH   1  15
ATOM     15  C   UNL     1       0.179  -4.866   1.219  0.00  0.00    +0.135 C 
ATOM     16  S   UNL     1       0.163  -4.038   2.717  0.00  0.00    -0.019 S 
BRANCH  15  17
ATOM     17  N   UNL     1       0.074  -4.176   0.066  0.00  0.00    -0.297 N 
ATOM     18  H   UNL     1      -0.001  -4.649  -0.777  0.00  0.00    +0.154 HD
BRANCH  17  23
ATOM     19  C   UNL     1       0.072   1.497   0.148  0.00  0.00    +0.045 C 
ATOM     20  C   UNL     1       0.072  -0.010   0.126  0.00  0.00    -0.032 A 
ATOM     21  C   UNL     1       0.937  -0.712   0.946  0.00  0.00    +0.006 A 
ATOM     22  C   UNL     1       0.940  -2.092   0.928  0.00  0.00    +0.023 A 
ATOM     23  C   UNL     1       0.073  -2.777   0.086  0.00  0.00    +0.034 A 
ATOM     24  C   UNL     1      -0.795  -2.070  -0.735  0.00  0.00    +0.043 A 
ATOM     25  C   UNL     1      -0.797  -0.688  -0.709  0.00  0.00    +0.046 A 
ATOM     26 CL   UNL     1      -1.887   0.197  -1.731  0.00  0.00    -0.083 Cl
ENDBRANCH  17  23
ENDBRANCH  15  17
ENDBRANCH   1  15
TORSDOF 4
