REMARK  Name = ZINC09405721
REMARK  4 active torsions:
REMARK  status: ('A' for Active; 'I' for Inactive)
REMARK    1  A    between atoms: C_1  and  C_2
REMARK    2  A    between atoms: C_15  and  C_16
REMARK    3  A    between atoms: N_18  and  C_19
REMARK    4  A    between atoms: N_18  and  C_20
REMARK                            x       y       z     vdW  Elec       q    Type
REMARK                         _______ _______ _______ _____ _____    ______ ____
ROOT
ATOM      1  C   UNL     1       2.763   0.713  -0.218  0.00  0.00    +0.046 C 
ATOM      2  C   UNL     1       2.304   2.145  -0.315  0.00  0.00    -0.017 A 
ATOM      3  C   UNL     1       3.241   3.172  -0.454  0.00  0.00    +0.076 A 
ATOM      4  C   UNL     1       2.713   4.482  -0.519  0.00  0.00    +0.116 A 
ATOM      5  N   UNL     1       3.501   5.538  -0.628  0.00  0.00    -0.226 NA
ATOM      6  C   UNL     1       4.809   5.443  -0.719  0.00  0.00    +0.114 A 
ATOM      7  N   UNL     1       5.421   4.236  -0.742  0.00  0.00    -0.296 N 
ATOM      8  C   UNL     1       4.713   3.096  -0.546  0.00  0.00    +0.263 A 
ATOM      9  O   UNL     1       5.283   2.024  -0.449  0.00  0.00    -0.267 OA
ATOM     10  C   UNL     1       6.855   4.077  -1.004  0.00  0.00    +0.126 C 
ATOM     11  C   UNL     1       7.620   5.350  -0.652  0.00  0.00    +0.022 C 
ATOM     12  C   UNL     1       6.957   6.522  -1.389  0.00  0.00    +0.009 C 
ATOM     13  C   UNL     1       5.577   6.741  -0.772  0.00  0.00    +0.074 C 
ATOM     14  S   UNL     1       0.960   4.220  -0.418  0.00  0.00    -0.064 S 
ATOM     15  C   UNL     1       0.974   2.442  -0.267  0.00  0.00    +0.080 A 
ENDROOT
BRANCH  15  16
ATOM     16  C   UNL     1      -0.164   1.527  -0.132  0.00  0.00    +0.258 C 
ATOM     17  O   UNL     1       0.013   0.324  -0.191  0.00  0.00    -0.269 OA
ATOM     18  N   UNL     1      -1.405   2.017   0.051  0.00  0.00    -0.270 N 
ATOM     19  C   UNL     1      -1.632   3.464   0.028  0.00  0.00    +0.138 C 
BRANCH  18  20
ATOM     20  C   UNL     1      -2.478   1.145   0.263  0.00  0.00    +0.036 A 
ATOM     21  C   UNL     1      -2.245  -0.212   0.446  0.00  0.00    +0.024 A 
ATOM     22  C   UNL     1      -3.305  -1.071   0.661  0.00  0.00    +0.017 A 
ATOM     23  C   UNL     1      -4.599  -0.582   0.682  0.00  0.00    +0.018 A 
ATOM     24  C   UNL     1      -4.835   0.769   0.495  0.00  0.00    +0.017 A 
ATOM     25  C   UNL     1      -3.778   1.633   0.286  0.00  0.00    +0.024 A 
ATOM     26 BR   UNL     1      -6.049  -1.762   0.969  0.00  0.00    -0.050 Br
ENDBRANCH  18  20
ENDBRANCH  15  16
TORSDOF 2
