REMARK  Name = ZINC35711373
REMARK  12 active torsions:
REMARK  status: ('A' for Active; 'I' for Inactive)
REMARK    1  A    between atoms: C_1  and  C_2
REMARK    2  A    between atoms: C_2  and  C_3
REMARK    3  A    between atoms: C_3  and  N_4
REMARK    4  A    between atoms: C_5  and  C_37
REMARK    5  A    between atoms: C_6  and  C_32
REMARK    6  A    between atoms: C_7  and  C_12
REMARK    7  A    between atoms: C_15  and  N_18
REMARK    8  A    between atoms: N_21  and  C_22
REMARK    9  A    between atoms: C_27  and  C_28
REMARK   10  A    between atoms: C_32  and  O_34
REMARK   11  A    between atoms: O_34  and  C_35
REMARK   12  A    between atoms: C_35  and  C_36
REMARK                            x       y       z     vdW  Elec       q    Type
REMARK                         _______ _______ _______ _____ _____    ______ ____
ROOT
ATOM      1  C   UNL     1       0.171  -5.646  -0.342  0.00  0.00    -0.022 A 
ATOM      2  C   UNL     1      -0.707  -5.170   0.614  0.00  0.00    +0.007 A 
ATOM      3  C   UNL     1      -1.229  -6.028   1.563  0.00  0.00    +0.024 A 
ATOM      4  C   UNL     1      -0.870  -7.370   1.555  0.00  0.00    +0.035 A 
ATOM      5  C   UNL     1       0.013  -7.844   0.594  0.00  0.00    +0.024 A 
ATOM      6  C   UNL     1       0.526  -6.982  -0.355  0.00  0.00    +0.007 A 
ENDROOT
BRANCH   1  10
ATOM      7  N   UNL     1       0.728  -1.944  -1.247  0.00  0.00    -0.259 N 
ATOM      8  C   UNL     1       1.802  -2.596  -0.712  0.00  0.00    +0.024 C 
ATOM      9  C   UNL     1       1.881  -3.944  -0.736  0.00  0.00    +0.078 C 
ATOM     10  C   UNL     1       0.738  -4.706  -1.375  0.00  0.00    +0.143 C 
ATOM     11  N   UNL     1      -0.373  -3.909  -1.921  0.00  0.00    -0.288 N 
ATOM     12  C   UNL     1      -0.311  -2.567  -1.818  0.00  0.00    +0.307 C 
ATOM     13  O   UNL     1      -1.225  -1.900  -2.263  0.00  0.00    -0.252 OA
ATOM     14  C   UNL     1       2.917  -1.799  -0.086  0.00  0.00    +0.061 C 
ATOM     15  H   UNL     1      -1.133  -4.340  -2.343  0.00  0.00    +0.151 HD
BRANCH   9  16
ATOM     16  C   UNL     1       2.994  -4.621  -0.184  0.00  0.00    +0.339 C 
ATOM     17  O   UNL     1       3.900  -3.988   0.324  0.00  0.00    -0.245 OA
BRANCH  16  18
ATOM     18  O   UNL     1       3.049  -5.968  -0.220  0.00  0.00    -0.462 OA
BRANCH  18  19
ATOM     19  C   UNL     1       4.202  -6.586   0.357  0.00  0.00    +0.229 C 
ATOM     20  C   UNL     1       4.088  -8.106   0.223  0.00  0.00    +0.048 C 
ENDBRANCH  18  19
ENDBRANCH  16  18
ENDBRANCH   9  16
BRANCH   7  21
ATOM     21  C   UNL     1       0.707  -0.480  -1.186  0.00  0.00    +0.114 C 
BRANCH  21  23
ATOM     22  C   UNL     1       1.470   1.619  -2.307  0.00  0.00    +0.005 C 
ATOM     23  C   UNL     1       1.491   0.090  -2.370  0.00  0.00    +0.016 C 
ENDBRANCH  21  23
ENDBRANCH   7  21
ENDBRANCH   1  10
BRANCH   4  24
ATOM     24  N   UNL     1      -1.396  -8.241   2.515  0.00  0.00    -0.269 N 
ATOM     25  C   UNL     1      -2.659  -8.076   2.955  0.00  0.00    +0.308 C 
ATOM     26  O   UNL     1      -3.314  -7.122   2.581  0.00  0.00    -0.252 OA
ATOM     27  N   UNL     1      -3.197  -8.967   3.811  0.00  0.00    -0.269 N 
ATOM     28  H   UNL     1      -0.852  -8.965   2.864  0.00  0.00    +0.156 HD
ATOM     29  H   UNL     1      -2.657  -9.697   4.154  0.00  0.00    +0.156 HD
BRANCH  27  30
ATOM     30  C   UNL     1      -4.533  -8.840   4.206  0.00  0.00    +0.046 A 
ATOM     31  C   UNL     1      -5.150  -7.596   4.185  0.00  0.00    +0.024 A 
ATOM     32  C   UNL     1      -6.469  -7.474   4.575  0.00  0.00    +0.002 A 
ATOM     33  C   UNL     1      -7.176  -8.589   4.986  0.00  0.00    +0.001 A 
ATOM     34  C   UNL     1      -6.565  -9.829   5.008  0.00  0.00    +0.014 A 
ATOM     35  C   UNL     1      -5.247  -9.959   4.614  0.00  0.00    +0.076 A 
BRANCH  35  36
ATOM     36  C   UNL     1      -4.584 -11.312   4.633  0.00  0.00    +0.419 C 
ATOM     37  F   UNL     1      -5.498 -12.274   5.077  0.00  0.00    -0.166 F 
ATOM     38  F   UNL     1      -4.154 -11.638   3.342  0.00  0.00    -0.166 F 
ATOM     39  F   UNL     1      -3.484 -11.280   5.496  0.00  0.00    -0.166 F 
ENDBRANCH  35  36
ENDBRANCH  27  30
ENDBRANCH   4  24
TORSDOF 9
