REMARK  Name = ZINC40632525
REMARK  7 active torsions:
REMARK  status: ('A' for Active; 'I' for Inactive)
REMARK    1  A    between atoms: C_1  and  N_2
REMARK    2  A    between atoms: N_2  and  S_3
REMARK    3  A    between atoms: S_3  and  C_6
REMARK    4  A    between atoms: C_11  and  N_12
REMARK    5  A    between atoms: C_13  and  C_15
REMARK    6  A    between atoms: C_18  and  O_22
REMARK    7  A    between atoms: O_22  and  C_23
REMARK                            x       y       z     vdW  Elec       q    Type
REMARK                         _______ _______ _______ _____ _____    ______ ____
ROOT
ATOM      1  N   UNL     1      -2.325   1.953  -0.735  0.00  0.00    -0.285 N 
ATOM      2  C   UNL     1      -2.771   3.209  -0.940  0.00  0.00    +0.203 C 
ATOM      3  O   UNL     1      -3.397   3.474  -1.945  0.00  0.00    -0.277 OA
ATOM      4  H   UNL     1      -1.764   1.757   0.031  0.00  0.00    +0.155 HD
ENDROOT
BRANCH   2   5
ATOM      5  C   UNL     1      -2.493   4.283   0.080  0.00  0.00    +0.019 C 
ATOM      6  C   UNL     1      -3.495   4.174   1.244  0.00  0.00    +0.023 C 
ATOM      7  C   UNL     1      -4.231   5.533   1.272  0.00  0.00    +0.100 C 
ATOM      8  C   UNL     1      -3.243   6.477   0.542  0.00  0.00    -0.050 C 
ATOM      9  N   UNL     1      -2.675   5.617  -0.531  0.00  0.00    +0.388 N 
ATOM     10  H   UNL     1      -1.787   5.982  -0.841  0.00  0.00    -0.085 HD
ATOM     11  H   UNL     1      -3.318   5.560  -1.307  0.00  0.00    -0.085 HD
BRANCH   7  12
ATOM     12  O   UNL     1      -4.447   5.963   2.617  0.00  0.00    -0.382 OA
ATOM     13  C   UNL     1      -5.620   6.761   2.790  0.00  0.00    +0.194 C 
ENDBRANCH   7  12
ENDBRANCH   2   5
BRANCH   1  19
ATOM     14  C   UNL     1      -1.867  -0.191  -1.747  0.00  0.00    +0.126 A 
ATOM     15  C   UNL     1      -2.215  -1.199  -2.625  0.00  0.00    +0.030 A 
ATOM     16  C   UNL     1      -3.361  -1.086  -3.390  0.00  0.00    +0.002 A 
ATOM     17  C   UNL     1      -4.163   0.036  -3.278  0.00  0.00    +0.002 A 
ATOM     18  C   UNL     1      -3.821   1.046  -2.402  0.00  0.00    +0.025 A 
ATOM     19  C   UNL     1      -2.672   0.933  -1.628  0.00  0.00    +0.060 A 
BRANCH  14  20
ATOM     20  S   UNL     1      -0.406  -0.337  -0.773  0.00  0.00    +0.060 S 
ATOM     21  O   UNL     1       0.156  -1.607  -1.070  0.00  0.00    -0.153 OA
ATOM     22  O   UNL     1      -0.759   0.050   0.548  0.00  0.00    -0.153 OA
BRANCH  20  24
ATOM     23  C   UNL     1       0.330   2.221  -1.257  0.00  0.00    +0.127 C 
ATOM     24  N   UNL     1       0.667   0.797  -1.327  0.00  0.00    -0.193 NA
ATOM     25  H   UNL     1       1.518   0.517  -1.698  0.00  0.00    +0.148 HD
ENDBRANCH  20  24
ENDBRANCH  14  20
ENDBRANCH   1  19
TORSDOF 5
