REMARK  Name = ZINC49532581
REMARK  8 active torsions:
REMARK  status: ('A' for Active; 'I' for Inactive)
REMARK    1  A    between atoms: C_1  and  C_2
REMARK    2  A    between atoms: C_2  and  C_3
REMARK    3  A    between atoms: C_3  and  C_5
REMARK    4  A    between atoms: C_3  and  N_10
REMARK    5  A    between atoms: N_10  and  S_11
REMARK    6  A    between atoms: S_11  and  C_14
REMARK    7  A    between atoms: C_17  and  C_19
REMARK    8  A    between atoms: C_19  and  N_20
REMARK                            x       y       z     vdW  Elec       q    Type
REMARK                         _______ _______ _______ _____ _____    ______ ____
ROOT
ATOM      1  S   UNL     1       2.841   1.176   1.868  0.00  0.00    +0.065 S 
ATOM      2  O   UNL     1       4.231   1.247   1.581  0.00  0.00    -0.153 OA
ATOM      3  O   UNL     1       1.956   2.260   1.621  0.00  0.00    -0.153 OA
ENDROOT
BRANCH   1   4
ATOM      4  C   UNL     1       2.700   0.792   3.582  0.00  0.00    +0.143 A 
ATOM      5  C   UNL     1       3.596   0.183   4.397  0.00  0.00    +0.036 A 
ATOM      6  C   UNL     1       3.267  -0.016   5.725  0.00  0.00    +0.011 A 
ATOM      7  C   UNL     1       2.059   0.404   6.173  0.00  0.00    -0.026 A 
ATOM      8  S   UNL     1       1.344   1.112   4.698  0.00  0.00    -0.075 S 
BRANCH   7   9
ATOM      9  C   UNL     1       1.473   0.304   7.558  0.00  0.00    -0.043 C 
BRANCH   9  10
ATOM     10  N   UNL     1       1.829   1.503   8.328  0.00  0.00    +0.381 N 
ATOM     11  H   UNL     1       2.833   1.576   8.392  0.00  0.00    -0.090 HD
ATOM     12  H   UNL     1       1.462   2.321   7.865  0.00  0.00    -0.090 HD
ATOM     13  H   UNL     1       1.437   1.437   9.255  0.00  0.00    -0.090 HD
ENDBRANCH   9  10
ENDBRANCH   7   9
ENDBRANCH   1   4
BRANCH   1  14
ATOM     14  N   UNL     1       2.249  -0.121   1.026  0.00  0.00    -0.182 NA
ATOM     15  H   UNL     1       2.836  -0.631   0.445  0.00  0.00    +0.149 HD
BRANCH  14  16
ATOM     16  C   UNL     1       0.840  -0.498   1.157  0.00  0.00    +0.113 C 
BRANCH  16  17
ATOM     17  C   UNL     1       0.706  -1.590   2.187  0.00  0.00    +0.008 A 
ATOM     18  C   UNL     1      -0.250  -1.759   3.133  0.00  0.00    +0.013 A 
ATOM     19  C   UNL     1      -0.170  -2.849   3.980  0.00  0.00    +0.008 A 
ATOM     20  C   UNL     1       0.862  -3.716   3.839  0.00  0.00    +0.045 A 
ATOM     21  S   UNL     1       1.762  -3.001   2.473  0.00  0.00    -0.100 S 
ENDBRANCH  16  17
BRANCH  16  23
ATOM     22  C   UNL     1       0.327   0.147  -1.201  0.00  0.00    +0.006 C 
ATOM     23  C   UNL     1       0.319  -1.001  -0.190  0.00  0.00    +0.022 C 
ENDBRANCH  16  23
ENDBRANCH  14  16
ENDBRANCH   1  14
TORSDOF 7
