REMARK  Name = ZINC13274236
REMARK  11 active torsions:
REMARK  status: ('A' for Active; 'I' for Inactive)
REMARK    1  A    between atoms: C_1  and  C_2
REMARK    2  A    between atoms: C_6  and  C_8
REMARK    3  A    between atoms: C_11  and  S_16
REMARK    4  A    between atoms: N_12  and  C_13
REMARK    5  A    between atoms: C_13  and  C_14
REMARK    6  A    between atoms: S_16  and  C_17
REMARK    7  A    between atoms: C_17  and  C_18
REMARK    8  A    between atoms: N_20  and  C_21
REMARK    9  A    between atoms: C_23  and  O_30
REMARK   10  A    between atoms: C_24  and  C_28
REMARK   11  A    between atoms: O_30  and  C_31
REMARK                            x       y       z     vdW  Elec       q    Type
REMARK                         _______ _______ _______ _____ _____    ______ ____
ROOT
ATOM      1  S   UNL     1       0.151   1.866   0.003  0.00  0.00    -0.077 S 
ENDROOT
BRANCH   1   5
ATOM      2  C   UNL     1       3.789   3.289   0.021  0.00  0.00    +0.165 A 
ATOM      3  N   UNL     1       3.988   1.992   0.009  0.00  0.00    -0.128 NA
ATOM      4  N   UNL     1       2.860   1.376   0.002  0.00  0.00    -0.122 NA
ATOM      5  C   UNL     1       1.872   2.243   0.009  0.00  0.00    +0.193 A 
ATOM      6  N   UNL     1       2.428   3.490   0.016  0.00  0.00    -0.291 N 
BRANCH   2  12
ATOM      7  C   UNL     1       8.504   4.698  -0.811  0.00  0.00    +0.044 C 
ATOM      8  C   UNL     1       7.100   5.020  -0.366  0.00  0.00    -0.050 A 
ATOM      9  C   UNL     1       6.786   6.300   0.055  0.00  0.00    +0.003 A 
ATOM     10  C   UNL     1       5.500   6.603   0.465  0.00  0.00    +0.001 A 
ATOM     11  C   UNL     1       4.522   5.630   0.457  0.00  0.00    +0.011 A 
ATOM     12  C   UNL     1       4.832   4.337   0.033  0.00  0.00    +0.020 A 
ATOM     13  C   UNL     1       6.133   4.036  -0.376  0.00  0.00    +0.015 A 
ENDBRANCH   2  12
BRANCH   6  14
ATOM     14  C   UNL     1       1.723   4.774   0.020  0.00  0.00    +0.250 C 
BRANCH  14  15
ATOM     15  C   UNL     1       1.373   5.151   1.436  0.00  0.00    +0.375 C 
ATOM     16  O   UNL     1       1.682   4.421   2.349  0.00  0.00    -0.244 OA
ATOM     17  O   UNL     1       0.719   6.296   1.684  0.00  0.00    -0.244 OA
ENDBRANCH  14  15
ENDBRANCH   6  14
ENDBRANCH   1   5
BRANCH   1  18
ATOM     18  C   UNL     1       0.225   0.058  -0.013  0.00  0.00    +0.173 C 
BRANCH  18  19
ATOM     19  C   UNL     1      -1.175  -0.502  -0.020  0.00  0.00    +0.228 C 
ATOM     20  O   UNL     1      -2.128   0.248  -0.015  0.00  0.00    -0.275 OA
ATOM     21  N   UNL     1      -1.367  -1.836  -0.033  0.00  0.00    -0.284 N 
ATOM     22  H   UNL     1      -0.608  -2.434  -0.119  0.00  0.00    +0.155 HD
BRANCH  21  23
ATOM     23  C   UNL     1      -2.656  -2.356   0.077  0.00  0.00    +0.055 A 
ATOM     24  C   UNL     1      -3.651  -1.613   0.699  0.00  0.00    +0.071 A 
ATOM     25  C   UNL     1      -4.931  -2.125   0.810  0.00  0.00    +0.136 A 
ATOM     26  C   UNL     1      -5.220  -3.398   0.293  0.00  0.00    +0.106 A 
ATOM     27  C   UNL     1      -4.211  -4.139  -0.332  0.00  0.00    +0.040 A 
ATOM     28  C   UNL     1      -2.943  -3.618  -0.441  0.00  0.00    +0.063 A 
ATOM     29 CL   UNL     1      -1.694  -4.536  -1.222  0.00  0.00    -0.082 Cl
BRANCH  26  30
ATOM     30  C   UNL     1      -6.580  -3.950   0.406  0.00  0.00    +0.390 C 
ATOM     31  O   UNL     1      -7.455  -3.304   0.949  0.00  0.00    -0.240 OA
ATOM     32  O   UNL     1      -6.854  -5.172  -0.091  0.00  0.00    -0.240 OA
ENDBRANCH  26  30
BRANCH  25  33
ATOM     33  O   UNL     1      -5.904  -1.400   1.417  0.00  0.00    -0.494 OA
ATOM     34  C   UNL     1      -5.537  -0.114   1.919  0.00  0.00    +0.277 C 
ENDBRANCH  25  33
ENDBRANCH  21  23
ENDBRANCH  18  19
ENDBRANCH   1  18
TORSDOF 9
