REMARK  Name = ZINC49969807
REMARK  11 active torsions:
REMARK  status: ('A' for Active; 'I' for Inactive)
REMARK    1  A    between atoms: C_1  and  C_2
REMARK    2  A    between atoms: C_2  and  C_4
REMARK    3  A    between atoms: C_2  and  N_17
REMARK    4  A    between atoms: C_4  and  C_6
REMARK    5  A    between atoms: C_7  and  N_16
REMARK    6  A    between atoms: N_8  and  C_15
REMARK    7  A    between atoms: N_11  and  C_14
REMARK    8  A    between atoms: N_20  and  C_23
REMARK    9  A    between atoms: C_23  and  C_24
REMARK   10  A    between atoms: C_24  and  C_25
REMARK   11  A    between atoms: C_24  and  C_26
REMARK                            x       y       z     vdW  Elec       q    Type
REMARK                         _______ _______ _______ _____ _____    ______ ____
ROOT
ATOM      1  C   UNL     1       0.711  -0.479  -1.239  0.00  0.00    +0.188 C 
ATOM      2  O   UNL     1       1.832  -0.939  -1.158  0.00  0.00    -0.290 OA
ENDROOT
BRANCH   1   3
ATOM      3  C   UNL     1       0.059  -0.423  -2.490  0.00  0.00    +0.121 A 
ATOM      4  C   UNL     1       0.730  -0.778  -3.673  0.00  0.00    +0.116 A 
ATOM      5  N   UNL     1       0.057  -0.709  -4.860  0.00  0.00    -0.284 N 
ATOM      6  C   UNL     1      -1.224  -0.310  -4.913  0.00  0.00    +0.333 A 
ATOM      7  O   UNL     1      -1.778  -0.265  -5.994  0.00  0.00    -0.246 OA
ATOM      8  N   UNL     1      -1.915   0.041  -3.817  0.00  0.00    -0.263 N 
ATOM      9  C   UNL     1      -1.343   0.001  -2.596  0.00  0.00    +0.269 A 
ATOM     10  O   UNL     1      -1.974   0.314  -1.603  0.00  0.00    -0.267 OA
ATOM     11  C   UNL     1      -3.311   0.466  -3.947  0.00  0.00    +0.157 C 
ATOM     12  C   UNL     1       0.747  -1.076  -6.099  0.00  0.00    +0.155 C 
BRANCH   4  13
ATOM     13  N   UNL     1       2.028  -1.183  -3.638  0.00  0.00    -0.344 N 
ATOM     14  H   UNL     1       2.475  -1.303  -2.785  0.00  0.00    +0.144 HD
ATOM     15  H   UNL     1       2.506  -1.353  -4.465  0.00  0.00    +0.144 HD
ENDBRANCH   4  13
ENDBRANCH   1   3
BRANCH   1  17
ATOM     16  C   UNL     1       0.018   1.562  -0.014  0.00  0.00    +0.032 C 
ATOM     17  C   UNL     1       0.016   0.033  -0.004  0.00  0.00    +0.125 C 
BRANCH  17  18
ATOM     18  N   UNL     1       0.721  -0.450   1.191  0.00  0.00    -0.296 NA
ATOM     19  C   UNL     1       0.816  -1.917   1.190  0.00  0.00    +0.066 C 
ATOM     20  C   UNL     1       1.608  -2.374   2.417  0.00  0.00    -0.063 C 
ATOM     21  N   UNL     1       0.933  -1.911   3.636  0.00  0.00    +0.381 N 
ATOM     22  C   UNL     1       0.868  -0.443   3.634  0.00  0.00    -0.063 C 
ATOM     23  C   UNL     1       0.070   0.030   2.417  0.00  0.00    +0.066 C 
ATOM     24  H   UNL     1      -0.002  -2.289   3.667  0.00  0.00    -0.082 HD
BRANCH  21  25
ATOM     25  C   UNL     1       1.683  -2.366   4.814  0.00  0.00    -0.076 C 
BRANCH  25  26
ATOM     26  C   UNL     1       0.916  -1.991   6.084  0.00  0.00    -0.034 C 
ATOM     27  C   UNL     1      -0.406  -2.759   6.125  0.00  0.00    +0.005 C 
ATOM     28  C   UNL     1       1.755  -2.353   7.312  0.00  0.00    +0.005 C 
ENDBRANCH  25  26
ENDBRANCH  21  25
ENDBRANCH  17  18
ENDBRANCH   1  17
TORSDOF 6
