REMARK  Name = ZINC63743586
REMARK  7 active torsions:
REMARK  status: ('A' for Active; 'I' for Inactive)
REMARK    1  A    between atoms: C_1  and  O_2
REMARK    2  A    between atoms: O_2  and  C_3
REMARK    3  A    between atoms: C_5  and  O_30
REMARK    4  A    between atoms: C_8  and  N_9
REMARK    5  A    between atoms: N_12  and  C_13
REMARK    6  A    between atoms: C_17  and  C_19
REMARK    7  A    between atoms: O_30  and  C_31
REMARK                            x       y       z     vdW  Elec       q    Type
REMARK                         _______ _______ _______ _____ _____    ______ ____
ROOT
ATOM      1  N   UNL     1      -0.656  -2.798  -0.276  0.00  0.00    -0.266 N 
ATOM      2  C   UNL     1      -0.710  -4.144  -0.327  0.00  0.00    +0.308 C 
ATOM      3  O   UNL     1      -0.858  -4.706  -1.395  0.00  0.00    -0.252 OA
ATOM      4  N   UNL     1      -0.602  -4.866   0.805  0.00  0.00    -0.269 N 
ATOM      5  H   UNL     1      -0.459  -2.352   0.562  0.00  0.00    +0.156 HD
ATOM      6  H   UNL     1      -0.562  -4.418   1.664  0.00  0.00    +0.156 HD
ENDROOT
BRANCH   1  12
ATOM      7  C   UNL     1      -0.440  -0.724  -1.507  0.00  0.00    +0.145 A 
ATOM      8  C   UNL     1      -0.661   0.019  -2.656  0.00  0.00    +0.094 A 
ATOM      9  C   UNL     1      -1.329  -0.550  -3.730  0.00  0.00    +0.142 A 
ATOM     10  C   UNL     1      -1.776  -1.862  -3.656  0.00  0.00    +0.084 A 
ATOM     11  C   UNL     1      -1.556  -2.605  -2.511  0.00  0.00    +0.050 A 
ATOM     12  C   UNL     1      -0.884  -2.042  -1.436  0.00  0.00    +0.078 A 
ATOM     13 CL   UNL     1      -2.611  -2.570  -5.003  0.00  0.00    -0.080 Cl
BRANCH   7  15
ATOM     14  C   UNL     1       0.641   1.188  -0.596  0.00  0.00    +0.277 C 
ATOM     15  O   UNL     1       0.215  -0.168  -0.453  0.00  0.00    -0.493 OA
ENDBRANCH   7  15
BRANCH   9  16
ATOM     16  O   UNL     1      -1.546   0.179  -4.857  0.00  0.00    -0.494 OA
ATOM     17  C   UNL     1      -1.060   1.523  -4.865  0.00  0.00    +0.277 C 
ENDBRANCH   9  16
ENDBRANCH   1  12
BRANCH   4  18
ATOM     18  C   UNL     1      -0.546  -6.263   0.741  0.00  0.00    +0.035 A 
ATOM     19  C   UNL     1       0.076  -6.886  -0.333  0.00  0.00    +0.023 A 
ATOM     20  C   UNL     1       0.129  -8.265  -0.393  0.00  0.00    +0.002 A 
ATOM     21  C   UNL     1      -0.436  -9.025   0.615  0.00  0.00    +0.006 A 
ATOM     22  C   UNL     1      -1.056  -8.407   1.685  0.00  0.00    -0.020 A 
ATOM     23  C   UNL     1      -1.107  -7.029   1.754  0.00  0.00    +0.029 A 
BRANCH  22  24
ATOM     24  C   UNL     1      -1.671  -9.239   2.781  0.00  0.00    +0.133 C 
ATOM     25  C   UNL     1      -0.594  -9.765   3.703  0.00  0.00    +0.012 C 
ATOM     26  C   UNL     1      -0.666 -11.114   3.633  0.00  0.00    -0.004 A 
ATOM     27  C   UNL     1       0.098 -12.186   4.282  0.00  0.00    +0.010 A 
ATOM     28  C   UNL     1      -0.213 -13.473   4.006  0.00  0.00    +0.001 A 
ATOM     29  C   UNL     1      -1.244 -13.808   3.118  0.00  0.00    +0.002 A 
ATOM     30  C   UNL     1      -1.990 -12.879   2.483  0.00  0.00    +0.026 A 
ATOM     31  C   UNL     1      -1.750 -11.494   2.699  0.00  0.00    +0.043 A 
ATOM     32  N   UNL     1      -2.327 -10.421   2.211  0.00  0.00    -0.374 N 
ATOM     33  H   UNL     1      -3.064 -10.410   1.580  0.00  0.00    +0.161 HD
ENDBRANCH  22  24
ENDBRANCH   4  18
TORSDOF 5
