REMARK  Name = ZINC38610567
REMARK  5 active torsions:
REMARK  status: ('A' for Active; 'I' for Inactive)
REMARK    1  A    between atoms: C_1  and  S_2
REMARK    2  A    between atoms: S_2  and  N_5
REMARK    3  A    between atoms: C_6  and  C_30
REMARK    4  A    between atoms: C_9  and  C_11
REMARK    5  A    between atoms: C_13  and  C_24
REMARK                            x       y       z     vdW  Elec       q    Type
REMARK                         _______ _______ _______ _____ _____    ______ ____
ROOT
ATOM      1  C   UNL     1       0.616  -0.851  -4.487  0.00  0.00    +0.152 C 
ATOM      2  C   UNL     1      -0.776  -0.266  -4.623  0.00  0.00    -0.014 C 
ATOM      3  C   UNL     1      -1.730  -1.045  -5.286  0.00  0.00    +0.002 A 
ATOM      4  C   UNL     1      -3.049  -0.577  -5.457  0.00  0.00    +0.030 A 
ATOM      5  C   UNL     1      -3.958  -1.355  -6.106  0.00  0.00    +0.042 A 
ATOM      6  C   UNL     1      -3.611  -2.609  -6.607  0.00  0.00    +0.022 A 
ATOM      7  C   UNL     1      -2.353  -3.113  -6.472  0.00  0.00    +0.025 A 
ATOM      8  C   UNL     1      -1.363  -2.364  -5.812  0.00  0.00    +0.041 A 
ATOM      9  N   UNL     1      -0.128  -2.861  -5.681  0.00  0.00    -0.284 N 
ATOM     10  C   UNL     1       0.853  -2.222  -5.077  0.00  0.00    +0.230 C 
ATOM     11  O   UNL     1       1.953  -2.737  -4.995  0.00  0.00    -0.274 OA
ATOM     12 CL   UNL     1      -5.581  -0.775  -6.315  0.00  0.00    -0.084 Cl
ATOM     13  H   UNL     1       0.054  -3.739  -6.051  0.00  0.00    +0.155 HD
ENDROOT
BRANCH   2  14
ATOM     14  C   UNL     1      -1.097   1.013  -4.102  0.00  0.00    -0.020 A 
ATOM     15  C   UNL     1      -2.076   1.144  -3.103  0.00  0.00    +0.008 A 
ATOM     16  C   UNL     1      -2.381   2.390  -2.604  0.00  0.00    +0.001 A 
ATOM     17  C   UNL     1      -1.725   3.513  -3.083  0.00  0.00    +0.000 A 
ATOM     18  C   UNL     1      -0.758   3.395  -4.067  0.00  0.00    +0.001 A 
ATOM     19  C   UNL     1      -0.434   2.157  -4.576  0.00  0.00    +0.008 A 
ENDBRANCH   2  14
BRANCH   1  23
ATOM     20  N   UNL     1       0.676  -0.812  -0.797  0.00  0.00    -0.120 N 
ATOM     21  C   UNL     1       2.096  -1.179  -0.923  0.00  0.00    +0.154 C 
ATOM     22  C   UNL     1       2.307  -1.256  -2.449  0.00  0.00    +0.084 C 
ATOM     23  C   UNL     1       0.949  -0.915  -3.019  0.00  0.00    +0.057 C 
ATOM     24  N   UNL     1       0.130  -0.695  -2.074  0.00  0.00    -0.171 NA
BRANCH  21  25
ATOM     25  C   UNL     1       2.976  -0.118  -0.314  0.00  0.00    -0.005 A 
ATOM     26  C   UNL     1       2.536   1.190  -0.246  0.00  0.00    +0.007 A 
ATOM     27  C   UNL     1       3.343   2.163   0.312  0.00  0.00    +0.000 A 
ATOM     28  C   UNL     1       4.591   1.829   0.804  0.00  0.00    +0.001 A 
ATOM     29  C   UNL     1       5.032   0.521   0.737  0.00  0.00    +0.020 A 
ATOM     30  C   UNL     1       4.223  -0.455   0.183  0.00  0.00    +0.046 A 
ATOM     31 CL   UNL     1       4.774  -2.099   0.105  0.00  0.00    -0.083 Cl
ENDBRANCH  21  25
BRANCH  20  33
ATOM     32  C   UNL     1      -0.955  -2.167   0.958  0.00  0.00    +0.220 C 
ATOM     33  S   UNL     1      -0.139  -0.581   0.626  0.00  0.00    +0.057 S 
ATOM     34  O   UNL     1      -1.107   0.416   0.332  0.00  0.00    -0.154 OA
ATOM     35  O   UNL     1       0.877  -0.343   1.591  0.00  0.00    -0.154 OA
ENDBRANCH  20  33
ENDBRANCH   1  23
TORSDOF 4
