REMARK  Name = ZINC39201789
REMARK  7 active torsions:
REMARK  status: ('A' for Active; 'I' for Inactive)
REMARK    1  A    between atoms: C_4  and  N_7
REMARK    2  A    between atoms: N_7  and  C_8
REMARK    3  A    between atoms: C_13  and  N_14
REMARK    4  A    between atoms: C_15  and  C_17
REMARK    5  A    between atoms: C_17  and  N_18
REMARK    6  A    between atoms: N_21  and  C_24
REMARK    7  A    between atoms: C_24  and  C_25
REMARK                            x       y       z     vdW  Elec       q    Type
REMARK                         _______ _______ _______ _____ _____    ______ ____
ROOT
ATOM      1  N   UNL     1       6.119  -2.094   0.118  0.00  0.00    -0.286 N 
ATOM      2  C   UNL     1       7.296  -2.751   0.104  0.00  0.00    +0.201 C 
ATOM      3  O   UNL     1       7.315  -3.961   0.188  0.00  0.00    -0.278 OA
ATOM      4  H   UNL     1       6.106  -1.125   0.157  0.00  0.00    +0.155 HD
ENDROOT
BRANCH   1  10
ATOM      5  C   UNL     1       3.731  -2.212   0.506  0.00  0.00    +0.053 A 
ATOM      6  C   UNL     1       2.542  -2.925   0.458  0.00  0.00    +0.025 A 
ATOM      7  C   UNL     1       2.535  -4.226  -0.010  0.00  0.00    +0.002 A 
ATOM      8  C   UNL     1       3.711  -4.820  -0.430  0.00  0.00    +0.002 A 
ATOM      9  C   UNL     1       4.900  -4.117  -0.385  0.00  0.00    +0.025 A 
ATOM     10  C   UNL     1       4.916  -2.810   0.077  0.00  0.00    +0.055 A 
BRANCH   5  11
ATOM     11  N   UNL     1       3.740  -0.895   0.978  0.00  0.00    -0.313 N 
ATOM     12  H   UNL     1       4.583  -0.436   1.117  0.00  0.00    +0.152 HD
BRANCH  11  16
ATOM     13  C   UNL     1       0.151   1.054   1.787  0.00  0.00    +0.000 A 
ATOM     14  C   UNL     1       1.215   1.177   2.662  0.00  0.00    +0.002 A 
ATOM     15  C   UNL     1       2.407   0.532   2.397  0.00  0.00    +0.023 A 
ATOM     16  C   UNL     1       2.536  -0.242   1.250  0.00  0.00    +0.031 A 
ATOM     17  C   UNL     1       1.465  -0.363   0.374  0.00  0.00    +0.023 A 
ATOM     18  C   UNL     1       0.276   0.285   0.645  0.00  0.00    +0.002 A 
ENDBRANCH  11  16
ENDBRANCH   5  11
ENDBRANCH   1  10
BRANCH   2  19
ATOM     19  C   UNL     1       8.587  -1.983  -0.017  0.00  0.00    +0.019 C 
BRANCH  19  20
ATOM     20  N   UNL     1       9.717  -2.921  -0.009  0.00  0.00    +0.387 N 
ATOM     21  C   UNL     1       9.655  -3.771  -1.206  0.00  0.00    -0.063 C 
ATOM     22  C   UNL     1      10.822  -4.761  -1.189  0.00  0.00    +0.066 C 
ATOM     23  N   UNL     1      12.091  -4.019  -1.159  0.00  0.00    -0.301 NA
ATOM     24  C   UNL     1      12.156  -3.145   0.021  0.00  0.00    +0.066 C 
ATOM     25  C   UNL     1      10.978  -2.168  -0.006  0.00  0.00    -0.063 C 
ATOM     26  H   UNL     1       9.669  -3.499   0.816  0.00  0.00    -0.081 HD
BRANCH  23  27
ATOM     27  C   UNL     1      13.238  -4.936  -1.199  0.00  0.00    +0.124 C 
BRANCH  27  28
ATOM     28  C   UNL     1      14.504  -4.147  -1.414  0.00  0.00    +0.031 A 
ATOM     29  C   UNL     1      15.266  -3.763  -0.350  0.00  0.00    +0.011 A 
ATOM     30  C   UNL     1      16.439  -3.030  -0.576  0.00  0.00    +0.018 A 
ATOM     31  C   UNL     1      16.804  -2.711  -1.840  0.00  0.00    +0.086 A 
ATOM     32  N   UNL     1      16.044  -3.094  -2.898  0.00  0.00    -0.329 N 
ATOM     33  C   UNL     1      14.915  -3.804  -2.713  0.00  0.00    +0.253 A 
ATOM     34  O   UNL     1      14.245  -4.145  -3.675  0.00  0.00    -0.268 OA
ATOM     35  H   UNL     1      16.320  -2.856  -3.797  0.00  0.00    +0.168 HD
ENDBRANCH  27  28
ENDBRANCH  23  27
ENDBRANCH  19  20
ENDBRANCH   2  19
TORSDOF 7
