REMARK  Name = ZINC48912155
REMARK  4 active torsions:
REMARK  status: ('A' for Active; 'I' for Inactive)
REMARK    1  A    between atoms: C_1  and  C_2
REMARK    2  A    between atoms: C_2  and  S_3
REMARK    3  A    between atoms: S_3  and  C_6
REMARK    4  A    between atoms: C_6  and  C_7
REMARK                            x       y       z     vdW  Elec       q    Type
REMARK                         _______ _______ _______ _____ _____    ______ ____
ROOT
ATOM      1  C   UNL     1       1.445  -3.042  -2.497  0.00  0.00    +0.237 C 
ATOM      2  O   UNL     1       1.932  -2.356  -3.371  0.00  0.00    -0.274 OA
ATOM      3  N   UNL     1       1.508  -4.386  -2.583  0.00  0.00    -0.300 N 
ATOM      4  C   UNL     1       0.918  -5.230  -1.535  0.00  0.00    +0.110 C 
ATOM      5  C   UNL     1       1.988  -6.199  -1.022  0.00  0.00    +0.054 C 
ATOM      6  C   UNL     1       2.586  -6.962  -2.200  0.00  0.00    +0.115 C 
ATOM      7  C   UNL     1       3.229  -6.003  -3.197  0.00  0.00    +0.054 C 
ATOM      8  C   UNL     1       2.162  -5.032  -3.729  0.00  0.00    +0.110 C 
ATOM      9  C   UNL     1       3.597  -7.974  -1.715  0.00  0.00    +0.244 C 
ATOM     10  O   UNL     1       4.624  -7.753  -1.109  0.00  0.00    -0.273 OA
ATOM     11  N   UNL     1       3.117  -9.176  -2.097  0.00  0.00    -0.238 N 
ATOM     12  C   UNL     1       1.954  -9.057  -2.749  0.00  0.00    +0.307 C 
ATOM     13  O   UNL     1       1.327 -10.000  -3.191  0.00  0.00    -0.252 OA
ATOM     14  N   UNL     1       1.556  -7.775  -2.861  0.00  0.00    -0.285 N 
ATOM     15  H   UNL     1       3.559 -10.021  -1.921  0.00  0.00    +0.159 HD
ATOM     16  H   UNL     1       0.749  -7.453  -3.292  0.00  0.00    +0.151 HD
ENDROOT
BRANCH   1  17
ATOM     17  C   UNL     1       0.771  -2.393  -1.316  0.00  0.00    +0.261 C 
BRANCH  17  18
ATOM     18  S   UNL     1       0.851  -0.589  -1.490  0.00  0.00    -0.023 S 
ATOM     19  O   UNL     1       0.080  -0.213  -2.623  0.00  0.00    -0.174 OA
ATOM     20  O   UNL     1       2.213  -0.190  -1.418  0.00  0.00    -0.174 OA
BRANCH  18  22
ATOM     21  C   UNL     1      -0.019   1.526   0.010  0.00  0.00    +0.028 C 
ATOM     22  C   UNL     1       0.002  -0.004   0.002  0.00  0.00    +0.163 C 
ENDBRANCH  18  22
ENDBRANCH  17  18
ENDBRANCH   1  17
TORSDOF 3
