REMARK  Name = ZINC52595217
REMARK  5 active torsions:
REMARK  status: ('A' for Active; 'I' for Inactive)
REMARK    1  A    between atoms: C_6  and  C_7
REMARK    2  A    between atoms: C_13  and  C_15
REMARK    3  A    between atoms: C_15  and  C_16
REMARK    4  A    between atoms: C_16  and  N_17
REMARK    5  A    between atoms: C_20  and  C_23
REMARK                            x       y       z     vdW  Elec       q    Type
REMARK                         _______ _______ _______ _____ _____    ______ ____
ROOT
ATOM      1  N   UNL     1       4.693   5.401  -1.875  0.00  0.00    +0.382 N 
ATOM      2  C   UNL     1       5.825   6.319  -1.671  0.00  0.00    -0.074 C 
ATOM      3  C   UNL     1       5.855   7.324  -2.825  0.00  0.00    +0.016 C 
ATOM      4  C   UNL     1       4.488   7.925  -3.005  0.00  0.00    -0.049 C 
ATOM      5  C   UNL     1       3.398   7.379  -2.468  0.00  0.00    -0.042 C 
ATOM      6  C   UNL     1       3.439   6.127  -1.640  0.00  0.00    -0.051 C 
ATOM      7  H   UNL     1       4.708   5.050  -2.821  0.00  0.00    -0.081 HD
ENDROOT
BRANCH   4   8
ATOM      8  C   UNL     1       4.356   9.105  -3.765  0.00  0.00    -0.016 C 
ATOM      9  C   UNL     1       5.350   9.752  -4.488  0.00  0.00    +0.005 A 
ATOM     10  C   UNL     1       6.721   9.471  -4.691  0.00  0.00    +0.012 A 
ATOM     11  C   UNL     1       7.470  10.295  -5.463  0.00  0.00    +0.022 A 
ATOM     12  C   UNL     1       6.921  11.430  -6.072  0.00  0.00    +0.061 A 
ATOM     13  C   UNL     1       5.615  11.762  -5.922  0.00  0.00    +0.083 A 
ATOM     14  C   UNL     1       4.766  10.946  -5.127  0.00  0.00    +0.063 A 
ATOM     15  N   UNL     1       3.489  11.049  -4.830  0.00  0.00    -0.379 N 
ATOM     16  C   UNL     1       3.103   9.927  -3.968  0.00  0.00    +0.149 C 
ATOM     17 CL   UNL     1       4.983  13.180  -6.699  0.00  0.00    -0.080 Cl
ATOM     18 CL   UNL     1       7.942  12.441  -7.047  0.00  0.00    -0.082 Cl
ATOM     19  H   UNL     1       2.895  11.753  -5.135  0.00  0.00    +0.160 HD
ENDBRANCH   4   8
BRANCH   1  20
ATOM     20  C   UNL     1       4.794   4.279  -0.932  0.00  0.00    -0.076 C 
BRANCH  20  21
ATOM     21  C   UNL     1       3.682   3.268  -1.221  0.00  0.00    +0.018 C 
BRANCH  21  31
ATOM     22  C   UNL     1       0.261   0.901  -0.800  0.00  0.00    +0.013 A 
ATOM     23  C   UNL     1       1.357   1.715  -0.613  0.00  0.00    +0.007 A 
ATOM     24  C   UNL     1       2.621   1.168  -0.446  0.00  0.00    -0.016 A 
ATOM     25  C   UNL     1       2.788  -0.203  -0.466  0.00  0.00    -0.039 A 
ATOM     26  C   UNL     1       1.696  -1.030  -0.649  0.00  0.00    +0.017 A 
ATOM     27  C   UNL     1       0.423  -0.485  -0.817  0.00  0.00    +0.037 A 
ATOM     28  C   UNL     1       4.150  -0.829  -0.300  0.00  0.00    +0.063 C 
ATOM     29  C   UNL     1       5.121   0.193   0.293  0.00  0.00    +0.165 C 
ATOM     30  O   UNL     1       5.017   1.408  -0.459  0.00  0.00    -0.372 OA
ATOM     31  C   UNL     1       3.788   2.099  -0.240  0.00  0.00    +0.147 C 
BRANCH  27  32
ATOM     32  C   UNL     1      -0.745  -1.369  -1.014  0.00  0.00    +0.242 C 
ATOM     33  O   UNL     1      -0.599  -2.576  -1.028  0.00  0.00    -0.270 OA
ATOM     34  N   UNL     1      -1.973  -0.837  -1.176  0.00  0.00    -0.325 N 
ATOM     35  H   UNL     1      -2.090   0.126  -1.164  0.00  0.00    +0.145 HD
ATOM     36  H   UNL     1      -2.740  -1.417  -1.305  0.00  0.00    +0.145 HD
ENDBRANCH  27  32
ENDBRANCH  21  31
ENDBRANCH  20  21
ENDBRANCH   1  20
TORSDOF 5
