REMARK  Name = ZINC67086144
REMARK  12 active torsions:
REMARK  status: ('A' for Active; 'I' for Inactive)
REMARK    1  A    between atoms: C_1  and  C_2
REMARK    2  A    between atoms: C_5  and  C_7
REMARK    3  A    between atoms: C_7  and  C_9
REMARK    4  A    between atoms: C_7  and  N_10
REMARK    5  A    between atoms: N_13  and  C_14
REMARK    6  A    between atoms: C_14  and  C_15
REMARK    7  A    between atoms: C_19  and  C_21
REMARK    8  A    between atoms: N_23  and  C_24
REMARK    9  A    between atoms: C_24  and  C_25
REMARK   10  A    between atoms: C_25  and  N_26
REMARK   11  A    between atoms: N_26  and  C_27
REMARK   12  A    between atoms: N_26  and  C_28
REMARK                            x       y       z     vdW  Elec       q    Type
REMARK                         _______ _______ _______ _____ _____    ______ ____
ROOT
ATOM      1  C   UNL     1       5.190  -6.464  -3.795  0.00  0.00    -0.030 A 
ATOM      2  C   UNL     1       5.041  -6.120  -5.127  0.00  0.00    +0.005 A 
ATOM      3  C   UNL     1       6.154  -5.941  -5.930  0.00  0.00    +0.001 A 
ATOM      4  C   UNL     1       7.420  -6.104  -5.406  0.00  0.00    +0.013 A 
ATOM      5  C   UNL     1       7.576  -6.451  -4.063  0.00  0.00    +0.037 A 
ATOM      6  C   UNL     1       6.450  -6.625  -3.258  0.00  0.00    +0.018 A 
ENDROOT
BRANCH   5   7
ATOM      7  C   UNL     1       8.930  -6.628  -3.495  0.00  0.00    +0.244 C 
ATOM      8  O   UNL     1       9.063  -6.930  -2.325  0.00  0.00    -0.270 OA
ATOM      9  N   UNL     1      10.016  -6.455  -4.275  0.00  0.00    -0.313 N 
ATOM     10  H   UNL     1       9.909  -6.214  -5.208  0.00  0.00    +0.149 HD
BRANCH   9  11
ATOM     11  C   UNL     1      11.357  -6.630  -3.712  0.00  0.00    +0.086 C 
BRANCH  11  12
ATOM     12  C   UNL     1      12.403  -6.377  -4.799  0.00  0.00    -0.061 C 
BRANCH  12  13
ATOM     13  N   UNL     1      13.748  -6.553  -4.235  0.00  0.00    +0.377 N 
ATOM     14  C   UNL     1      14.748  -6.429  -5.304  0.00  0.00    -0.097 C 
ATOM     15  C   UNL     1      13.990  -5.524  -3.215  0.00  0.00    -0.097 C 
ATOM     16  H   UNL     1      13.819  -7.467  -3.813  0.00  0.00    -0.083 HD
ENDBRANCH  12  13
ENDBRANCH  11  12
ENDBRANCH   9  11
ENDBRANCH   5   7
BRANCH   1  17
ATOM     17  C   UNL     1       3.972  -6.657  -2.929  0.00  0.00    +0.141 C 
BRANCH  17  21
ATOM     18  N   UNL     1       2.201  -4.137  -0.921  0.00  0.00    -0.292 N 
ATOM     19  C   UNL     1       2.539  -5.311  -1.489  0.00  0.00    +0.300 C 
ATOM     20  O   UNL     1       1.883  -6.309  -1.260  0.00  0.00    -0.253 OA
ATOM     21  N   UNL     1       3.605  -5.380  -2.311  0.00  0.00    -0.295 N 
ATOM     22  H   UNL     1       2.725  -3.341  -1.103  0.00  0.00    +0.151 HD
ATOM     23  H   UNL     1       4.129  -4.585  -2.494  0.00  0.00    +0.151 HD
BRANCH  18  24
ATOM     24  C   UNL     1       1.043  -4.062  -0.027  0.00  0.00    +0.108 C 
ATOM     25  C   UNL     1       1.465  -4.458   1.389  0.00  0.00    +0.033 C 
BRANCH  24  30
ATOM     26  C   UNL     1      -0.018   1.503   0.010  0.00  0.00    +0.051 C 
ATOM     27  C   UNL     1       0.002  -0.004   0.002  0.00  0.00    -0.013 A 
ATOM     28  C   UNL     1      -1.039  -0.872   0.002  0.00  0.00    +0.011 A 
ATOM     29  C   UNL     1      -0.780  -2.230  -0.007  0.00  0.00    +0.013 A 
ATOM     30  C   UNL     1       0.507  -2.653  -0.016  0.00  0.00    +0.010 A 
ATOM     31  S   UNL     1       1.404  -1.109  -0.018  0.00  0.00    -0.097 S 
ENDBRANCH  24  30
ENDBRANCH  18  24
ENDBRANCH  17  21
ENDBRANCH   1  17
TORSDOF 8
