REMARK  Name = ZINC63303055
REMARK  3 active torsions:
REMARK  status: ('A' for Active; 'I' for Inactive)
REMARK    1  A    between atoms: C_1  and  C_2
REMARK    2  A    between atoms: C_8  and  C_10
REMARK    3  A    between atoms: C_10  and  N_11
REMARK                            x       y       z     vdW  Elec       q    Type
REMARK                         _______ _______ _______ _____ _____    ______ ____
ROOT
ATOM      1  N   UNL     1      -0.423  -7.266  -0.029  0.00  0.00    -0.291 N 
ATOM      2  C   UNL     1      -0.186  -8.592  -0.041  0.00  0.00    +0.303 C 
ATOM      3  O   UNL     1       0.953  -9.005  -0.145  0.00  0.00    -0.253 OA
ATOM      4  N   UNL     1      -1.211  -9.461   0.060  0.00  0.00    -0.283 N 
ATOM      5  C   UNL     1      -2.589  -8.959   0.062  0.00  0.00    +0.114 C 
ATOM      6  C   UNL     1      -3.373  -9.611  -1.093  0.00  0.00    +0.052 C 
ATOM      7  C   UNL     1      -3.046 -11.083  -1.061  0.00  0.00    -0.035 C 
ATOM      8  C   UNL     1      -3.828 -12.155  -1.045  0.00  0.00    +0.001 A 
ATOM      9  C   UNL     1      -5.288 -12.305  -1.163  0.00  0.00    +0.030 A 
ATOM     10  C   UNL     1      -5.769 -13.575  -1.084  0.00  0.00    +0.042 A 
ATOM     11  C   UNL     1      -4.952 -14.697  -0.901  0.00  0.00    +0.022 A 
ATOM     12  C   UNL     1      -3.600 -14.652  -0.792  0.00  0.00    +0.027 A 
ATOM     13  C   UNL     1      -2.978 -13.372  -0.868  0.00  0.00    +0.043 A 
ATOM     14  N   UNL     1      -1.721 -13.044  -0.818  0.00  0.00    -0.376 N 
ATOM     15  C   UNL     1      -1.613 -11.598  -1.017  0.00  0.00    +0.124 C 
ATOM     16  C   UNL     1      -0.936 -10.903   0.162  0.00  0.00    +0.138 C 
ATOM     17 CL   UNL     1      -7.483 -13.817  -1.216  0.00  0.00    -0.084 Cl
ATOM     18  H   UNL     1      -1.335  -6.936  -0.019  0.00  0.00    +0.151 HD
ATOM     19  H   UNL     1      -0.981 -13.654  -0.673  0.00  0.00    +0.160 HD
ENDROOT
BRANCH   1  20
ATOM     20  C   UNL     1       0.697  -6.321  -0.028  0.00  0.00    +0.202 C 
BRANCH  20  28
ATOM     21  C   UNL     1      -0.015   1.502   0.045  0.00  0.00    +0.053 C 
ATOM     22  C   UNL     1       0.005  -0.004   0.031  0.00  0.00    +0.008 A 
ATOM     23  C   UNL     1      -1.027  -0.883   0.031  0.00  0.00    +0.124 A 
ATOM     24  N   UNL     1      -0.723  -2.167   0.017  0.00  0.00    -0.233 NA
ATOM     25  C   UNL     1       0.530  -2.568   0.005  0.00  0.00    +0.165 A 
ATOM     26  S   UNL     1       1.395  -1.125   0.003  0.00  0.00    -0.057 S 
ATOM     27  N   UNL     1       1.020  -3.869  -0.010  0.00  0.00    -0.263 N 
ATOM     28  C   UNL     1       0.166  -4.911  -0.013  0.00  0.00    +0.236 C 
ATOM     29  O   UNL     1      -1.031  -4.714  -0.003  0.00  0.00    -0.274 OA
ATOM     30  H   UNL     1       1.978  -4.027  -0.018  0.00  0.00    +0.157 HD
ENDBRANCH  20  28
ENDBRANCH   1  20
TORSDOF 2
