REMARK  Name = ZINC67085926
REMARK  12 active torsions:
REMARK  status: ('A' for Active; 'I' for Inactive)
REMARK    1  A    between atoms: C_1  and  C_2
REMARK    2  A    between atoms: C_2  and  C_4
REMARK    3  A    between atoms: C_2  and  N_10
REMARK    4  A    between atoms: C_4  and  C_5
REMARK    5  A    between atoms: N_13  and  C_14
REMARK    6  A    between atoms: C_14  and  C_15
REMARK    7  A    between atoms: C_19  and  C_21
REMARK    8  A    between atoms: N_23  and  C_24
REMARK    9  A    between atoms: C_24  and  C_25
REMARK   10  A    between atoms: C_25  and  N_26
REMARK   11  A    between atoms: N_26  and  C_27
REMARK   12  A    between atoms: N_26  and  C_28
REMARK                            x       y       z     vdW  Elec       q    Type
REMARK                         _______ _______ _______ _____ _____    ______ ____
ROOT
ATOM      1  C   UNL     1       4.642  -1.684   3.582  0.00  0.00    -0.030 A 
ATOM      2  C   UNL     1       4.952  -0.795   4.596  0.00  0.00    +0.005 A 
ATOM      3  C   UNL     1       5.390  -1.262   5.823  0.00  0.00    +0.001 A 
ATOM      4  C   UNL     1       5.521  -2.618   6.042  0.00  0.00    +0.013 A 
ATOM      5  C   UNL     1       5.210  -3.519   5.023  0.00  0.00    +0.037 A 
ATOM      6  C   UNL     1       4.763  -3.042   3.789  0.00  0.00    +0.018 A 
ENDROOT
BRANCH   5   7
ATOM      7  C   UNL     1       5.348  -4.974   5.250  0.00  0.00    +0.244 C 
ATOM      8  O   UNL     1       5.076  -5.756   4.361  0.00  0.00    -0.270 OA
ATOM      9  N   UNL     1       5.775  -5.432   6.444  0.00  0.00    -0.313 N 
ATOM     10  H   UNL     1       5.992  -4.807   7.154  0.00  0.00    +0.149 HD
BRANCH   9  11
ATOM     11  C   UNL     1       5.912  -6.873   6.669  0.00  0.00    +0.086 C 
BRANCH  11  12
ATOM     12  C   UNL     1       6.409  -7.121   8.094  0.00  0.00    -0.061 C 
BRANCH  12  13
ATOM     13  N   UNL     1       6.547  -8.566   8.320  0.00  0.00    +0.377 N 
ATOM     14  C   UNL     1       7.137  -8.801   9.645  0.00  0.00    -0.097 C 
ATOM     15  C   UNL     1       5.223  -9.200   8.255  0.00  0.00    -0.097 C 
ATOM     16  H   UNL     1       7.145  -8.962   7.611  0.00  0.00    -0.083 HD
ENDBRANCH  12  13
ENDBRANCH  11  12
ENDBRANCH   9  11
ENDBRANCH   5   7
BRANCH   1  17
ATOM     17  C   UNL     1       4.166  -1.166   2.249  0.00  0.00    +0.141 C 
BRANCH  17  21
ATOM     18  N   UNL     1       0.711  -0.489   1.189  0.00  0.00    -0.296 N 
ATOM     19  C   UNL     1       2.054  -0.600   1.174  0.00  0.00    +0.300 C 
ATOM     20  O   UNL     1       2.677  -0.297   0.175  0.00  0.00    -0.253 OA
ATOM     21  N   UNL     1       2.706  -1.046   2.266  0.00  0.00    -0.295 N 
ATOM     22  H   UNL     1       0.213  -0.731   1.986  0.00  0.00    +0.151 HD
ATOM     23  H   UNL     1       2.208  -1.288   3.062  0.00  0.00    +0.151 HD
BRANCH  18  25
ATOM     24  C   UNL     1      -0.019   1.526   0.010  0.00  0.00    +0.028 C 
ATOM     25  C   UNL     1       0.002  -0.004   0.002  0.00  0.00    +0.076 C 
BRANCH  25  26
ATOM     26  C   UNL     1      -1.433  -0.534   0.013  0.00  0.00    +0.064 C 
BRANCH  26  27
ATOM     27  C   UNL     1      -1.416  -2.035  -0.119  0.00  0.00    -0.008 A 
ATOM     28  C   UNL     1      -1.370  -2.977   0.854  0.00  0.00    +0.011 A 
ATOM     29  C   UNL     1      -1.363  -4.312   0.496  0.00  0.00    +0.008 A 
ATOM     30  C   UNL     1      -1.403  -4.639  -0.819  0.00  0.00    +0.045 A 
ATOM     31  S   UNL     1      -1.459  -3.034  -1.598  0.00  0.00    -0.102 S 
ENDBRANCH  26  27
ENDBRANCH  25  26
ENDBRANCH  18  25
ENDBRANCH  17  21
ENDBRANCH   1  17
TORSDOF 9
