REMARK  Name = ZINC36480598
REMARK  11 active torsions:
REMARK  status: ('A' for Active; 'I' for Inactive)
REMARK    1  A    between atoms: C_1  and  C_2
REMARK    2  A    between atoms: C_2  and  C_3
REMARK    3  A    between atoms: C_2  and  C_4
REMARK    4  A    between atoms: C_2  and  N_5
REMARK    5  A    between atoms: C_6  and  C_8
REMARK    6  A    between atoms: C_8  and  C_10
REMARK    7  A    between atoms: C_8  and  N_18
REMARK    8  A    between atoms: C_14  and  O_16
REMARK    9  A    between atoms: O_16  and  C_17
REMARK   10  A    between atoms: N_18  and  C_19
REMARK   11  A    between atoms: C_26  and  C_28
REMARK                            x       y       z     vdW  Elec       q    Type
REMARK                         _______ _______ _______ _____ _____    ______ ____
ROOT
ATOM      1  C   UNL     1       3.163  -0.010  -2.231  0.00  0.00    +0.197 C 
ENDROOT
BRANCH   1   2
ATOM      2  C   UNL     1       2.718   1.237  -2.952  0.00  0.00    -0.014 A 
ATOM      3  C   UNL     1       3.218   2.469  -2.573  0.00  0.00    +0.006 A 
ATOM      4  C   UNL     1       2.812   3.615  -3.232  0.00  0.00    +0.004 A 
ATOM      5  C   UNL     1       1.905   3.531  -4.271  0.00  0.00    +0.045 A 
ATOM      6  C   UNL     1       1.402   2.296  -4.653  0.00  0.00    +0.120 A 
ATOM      7  C   UNL     1       1.816   1.147  -3.994  0.00  0.00    +0.051 A 
BRANCH   6   8
ATOM      8  O   UNL     1       0.510   2.211  -5.674  0.00  0.00    -0.495 OA
ATOM      9  C   UNL     1       0.134   3.434  -6.311  0.00  0.00    +0.277 C 
ENDBRANCH   6   8
ENDBRANCH   1   2
BRANCH   1  11
ATOM     10  N   UNL     1       1.336   0.088  -0.566  0.00  0.00    -0.309 N 
ATOM     11  C   UNL     1       2.660   0.025  -0.811  0.00  0.00    +0.239 C 
ATOM     12  O   UNL     1       3.447  -0.004   0.112  0.00  0.00    -0.273 OA
ATOM     13  H   UNL     1       0.707   0.111  -1.304  0.00  0.00    +0.149 HD
BRANCH  10  15
ATOM     14  C   UNL     1       1.415   1.351   1.527  0.00  0.00    +0.031 C 
ATOM     15  C   UNL     1       0.848   0.121   0.815  0.00  0.00    +0.026 C 
ATOM     16  C   UNL     1       1.300  -1.145   1.546  0.00  0.00    +0.031 C 
ATOM     17  C   UNL     1      -0.680   0.192   0.814  0.00  0.00    +0.031 C 
ENDBRANCH  10  15
ENDBRANCH   1  11
BRANCH   1  18
ATOM     18  N   UNL     1       4.626  -0.077  -2.230  0.00  0.00    -0.255 N 
ATOM     19  C   UNL     1       5.250  -1.155  -1.715  0.00  0.00    +0.224 C 
ATOM     20  O   UNL     1       4.606  -2.030  -1.177  0.00  0.00    -0.275 OA
BRANCH  18  21
ATOM     21  C   UNL     1       5.376   0.977  -2.764  0.00  0.00    +0.039 A 
ATOM     22  C   UNL     1       6.176   1.752  -1.934  0.00  0.00    +0.023 A 
ATOM     23  C   UNL     1       6.914   2.792  -2.464  0.00  0.00    +0.003 A 
ATOM     24  C   UNL     1       6.858   3.062  -3.819  0.00  0.00    +0.020 A 
ATOM     25  C   UNL     1       6.062   2.292  -4.648  0.00  0.00    +0.043 A 
ATOM     26  C   UNL     1       5.325   1.246  -4.125  0.00  0.00    +0.043 A 
ATOM     27 CL   UNL     1       5.994   2.636  -6.349  0.00  0.00    -0.083 Cl
ENDBRANCH  18  21
BRANCH  19  28
ATOM     28  C   UNL     1       6.750  -1.272  -1.806  0.00  0.00    +0.076 C 
ATOM     29  C   UNL     1       7.138  -1.780  -3.197  0.00  0.00    +0.013 C 
ATOM     30  C   UNL     1       8.660  -1.899  -3.290  0.00  0.00    +0.001 C 
ATOM     31  C   UNL     1       9.161  -2.882  -2.230  0.00  0.00    +0.000 C 
ATOM     32  C   UNL     1       8.773  -2.375  -0.840  0.00  0.00    +0.001 C 
ATOM     33  C   UNL     1       7.250  -2.256  -0.747  0.00  0.00    +0.013 C 
ENDBRANCH  19  28
ENDBRANCH   1  18
TORSDOF 7
