REMARK  Name = ZINC51145953
REMARK  6 active torsions:
REMARK  status: ('A' for Active; 'I' for Inactive)
REMARK    1  A    between atoms: C_1  and  C_2
REMARK    2  A    between atoms: C_2  and  C_3
REMARK    3  A    between atoms: C_7  and  C_23
REMARK    4  A    between atoms: N_10  and  C_11
REMARK    5  A    between atoms: C_11  and  C_12
REMARK    6  A    between atoms: N_21  and  N_22
REMARK                            x       y       z     vdW  Elec       q    Type
REMARK                         _______ _______ _______ _____ _____    ______ ____
ROOT
ATOM      1  C   UNL     1      -2.658   1.330  -2.953  0.00  0.00    +0.146 A 
ATOM      2  N   UNL     1      -1.818   1.427  -3.968  0.00  0.00    -0.214 NA
ATOM      3  C   UNL     1      -2.231   1.642  -5.207  0.00  0.00    +0.144 A 
ATOM      4  C   UNL     1      -3.625   1.774  -5.459  0.00  0.00    +0.049 A 
ATOM      5  C   UNL     1      -4.324   2.010  -6.710  0.00  0.00    +0.021 A 
ATOM      6  C   UNL     1      -5.662   2.100  -6.706  0.00  0.00    +0.048 A 
ATOM      7  S   UNL     1      -6.089   1.869  -4.990  0.00  0.00    -0.077 S 
ATOM      8  C   UNL     1      -4.459   1.659  -4.326  0.00  0.00    +0.114 A 
ATOM      9  N   UNL     1      -3.961   1.439  -3.125  0.00  0.00    -0.223 NA
ATOM     10  N   UNL     1      -1.320   1.738  -6.242  0.00  0.00    -0.267 N 
ATOM     11  H   UNL     1      -1.630   1.896  -7.148  0.00  0.00    +0.167 HD
ENDROOT
BRANCH  10  12
ATOM     12  N   UNL     1       0.017   1.610  -5.990  0.00  0.00    -0.255 NA
ATOM     13  H   UNL     1       0.215   0.735  -5.529  0.00  0.00    +0.140 HD
ATOM     14  H   UNL     1       0.555   1.703  -6.839  0.00  0.00    +0.140 HD
ENDBRANCH  10  12
BRANCH   1  15
ATOM     15  C   UNL     1      -2.115   1.084  -1.569  0.00  0.00    +0.161 C 
BRANCH  15  21
ATOM     16  C   UNL     1      -1.267  -0.646  -0.101  0.00  0.00    +0.083 C 
ATOM     17  C   UNL     1      -1.146  -2.161   0.081  0.00  0.00    +0.179 C 
ATOM     18  O   UNL     1      -2.454  -2.739   0.106  0.00  0.00    -0.374 OA
ATOM     19  C   UNL     1      -3.219  -2.484  -1.075  0.00  0.00    +0.129 C 
ATOM     20  C   UNL     1      -3.361  -0.972  -1.268  0.00  0.00    +0.116 C 
ATOM     21  N   UNL     1      -2.025  -0.362  -1.328  0.00  0.00    -0.288 NA
ATOM     22  C   UNL     1      -2.507  -3.090  -2.286  0.00  0.00    +0.039 C 
BRANCH  16  24
ATOM     23  C   UNL     1       0.894  -0.267   1.095  0.00  0.00    +0.005 C 
ATOM     24  C   UNL     1       0.130  -0.031  -0.209  0.00  0.00    +0.018 C 
ENDBRANCH  16  24
ENDBRANCH  15  21
ENDBRANCH   1  15
TORSDOF 4
