REMARK  Name = ZINC14350209
REMARK  7 active torsions:
REMARK  status: ('A' for Active; 'I' for Inactive)
REMARK    1  A    between atoms: C_1  and  C_2
REMARK    2  A    between atoms: C_7  and  C_8
REMARK    3  A    between atoms: C_11  and  C_13
REMARK    4  A    between atoms: C_16  and  C_19
REMARK    5  A    between atoms: N_24  and  C_27
REMARK    6  A    between atoms: C_27  and  C_28
REMARK    7  A    between atoms: C_33  and  C_36
REMARK                            x       y       z     vdW  Elec       q    Type
REMARK                         _______ _______ _______ _____ _____    ______ ____
ROOT
ATOM      1  C   UNL     1       0.116   0.054  10.309  0.00  0.00    +0.247 C 
ATOM      2  O   UNL     1       0.207   0.151   9.101  0.00  0.00    -0.270 OA
ATOM      3  N   UNL     1      -0.004   1.162  11.067  0.00  0.00    -0.295 N 
ATOM      4  C   UNL     1      -0.160   2.487  10.447  0.00  0.00    +0.123 C 
ATOM      5  C   UNL     1       0.876   3.436  11.059  0.00  0.00    +0.104 C 
ATOM      6  N   UNL     1       0.751   3.416  12.522  0.00  0.00    -0.291 NA
ATOM      7  C   UNL     1       1.048   2.083  13.064  0.00  0.00    +0.104 C 
ATOM      8  C   UNL     1       0.013   1.078  12.535  0.00  0.00    +0.123 C 
ENDROOT
BRANCH   1  12
ATOM      9  C   UNL     1       0.179  -3.779  12.146  0.00  0.00    +0.039 A 
ATOM     10  C   UNL     1       1.025  -3.507  11.067  0.00  0.00    +0.014 A 
ATOM     11  C   UNL     1       1.004  -2.267  10.472  0.00  0.00    +0.014 A 
ATOM     12  C   UNL     1       0.138  -1.278  10.948  0.00  0.00    +0.037 A 
ATOM     13  C   UNL     1      -0.707  -1.550  12.027  0.00  0.00    +0.014 A 
ATOM     14  C   UNL     1      -0.692  -2.792  12.617  0.00  0.00    +0.014 A 
BRANCH   9  18
ATOM     15  C   UNL     1       0.678  -7.157  13.275  0.00  0.00    +0.249 A 
ATOM     16  N   UNL     1      -0.257  -6.720  14.090  0.00  0.00    -0.107 NA
ATOM     17  N   UNL     1      -0.541  -5.500  13.797  0.00  0.00    -0.107 NA
ATOM     18  C   UNL     1       0.201  -5.110  12.784  0.00  0.00    +0.249 A 
ATOM     19  O   UNL     1       0.990  -6.148  12.438  0.00  0.00    -0.416 OA
BRANCH  15  26
ATOM     20  C   UNL     1      -0.214  -9.114  15.211  0.00  0.00    +0.044 C 
ATOM     21  C   UNL     1       0.859  -9.459  14.210  0.00  0.00    -0.038 A 
ATOM     22  C   UNL     1       1.422 -10.718  14.207  0.00  0.00    +0.004 A 
ATOM     23  C   UNL     1       2.407 -11.036  13.289  0.00  0.00    +0.000 A 
ATOM     24  C   UNL     1       2.833 -10.095  12.368  0.00  0.00    +0.001 A 
ATOM     25  C   UNL     1       2.279  -8.833  12.360  0.00  0.00    +0.013 A 
ATOM     26  C   UNL     1       1.281  -8.506  13.281  0.00  0.00    +0.041 A 
ENDBRANCH  15  26
ENDBRANCH   9  18
ENDBRANCH   1  12
BRANCH   6  27
ATOM     27  C   UNL     1       1.608   4.438  13.138  0.00  0.00    +0.181 C 
BRANCH  27  28
ATOM     28  C   UNL     1       1.275   4.556  14.603  0.00  0.00    +0.232 C 
ATOM     29  O   UNL     1       0.409   3.858  15.086  0.00  0.00    -0.274 OA
ATOM     30  N   UNL     1       1.940   5.438  15.376  0.00  0.00    -0.267 N 
ATOM     31  C   UNL     1       1.631   5.548  16.732  0.00  0.00    +0.168 A 
ATOM     32  C   UNL     1       0.656   4.798  17.426  0.00  0.00    +0.091 A 
ATOM     33  C   UNL     1       0.661   5.195  18.711  0.00  0.00    +0.136 A 
ATOM     34  O   UNL     1       1.591   6.153  18.849  0.00  0.00    -0.358 OA
ATOM     35  N   UNL     1       2.199   6.359  17.587  0.00  0.00    -0.063 NA
ATOM     36  C   UNL     1      -0.224   4.657  19.806  0.00  0.00    +0.089 C 
ATOM     37  H   UNL     1       2.632   5.997  14.989  0.00  0.00    +0.156 HD
ENDBRANCH  27  28
ENDBRANCH   6  27
TORSDOF 5
