REMARK  Name = ZINC44860872
REMARK  11 active torsions:
REMARK  status: ('A' for Active; 'I' for Inactive)
REMARK    1  A    between atoms: C_1  and  C_2
REMARK    2  A    between atoms: C_2  and  C_3
REMARK    3  A    between atoms: C_3  and  C_4
REMARK    4  A    between atoms: C_4  and  C_5
REMARK    5  A    between atoms: C_4  and  C_8
REMARK    6  A    between atoms: C_4  and  C_11
REMARK    7  A    between atoms: C_5  and  C_6
REMARK    8  A    between atoms: C_6  and  C_7
REMARK    9  A    between atoms: C_8  and  N_10
REMARK   10  A    between atoms: N_13  and  C_14
REMARK   11  A    between atoms: N_18  and  C_20
REMARK                            x       y       z     vdW  Elec       q    Type
REMARK                         _______ _______ _______ _____ _____    ______ ____
ROOT
ATOM      1  C   UNL     1       1.492  -2.540   2.454  0.00  0.00    +0.225 C 
ATOM      2  O   UNL     1       1.950  -1.750   3.252  0.00  0.00    -0.275 OA
ATOM      3  N   UNL     1       1.635  -3.864   2.659  0.00  0.00    -0.314 N 
ATOM      4  H   UNL     1       1.269  -4.496   2.020  0.00  0.00    +0.149 HD
ENDROOT
BRANCH   3   5
ATOM      5  C   UNL     1       2.343  -4.350   3.846  0.00  0.00    +0.055 C 
ATOM      6  C   UNL     1       1.364  -4.496   5.033  0.00  0.00    +0.002 C 
ATOM      7  C   UNL     1       0.998  -6.001   4.997  0.00  0.00    -0.077 C 
ATOM      8  N   UNL     1       2.276  -6.652   4.612  0.00  0.00    +0.383 N 
ATOM      9  C   UNL     1       2.893  -5.767   3.598  0.00  0.00    -0.056 C 
ATOM     10  H   UNL     1       2.880  -6.734   5.416  0.00  0.00    -0.081 HD
BRANCH   8  11
ATOM     11  C   UNL     1       2.014  -7.978   4.036  0.00  0.00    -0.069 C 
ATOM     12  C   UNL     1       2.487  -9.199   4.828  0.00  0.00    -0.017 C 
ATOM     13  C   UNL     1       3.219  -8.787   3.549  0.00  0.00    -0.017 C 
ENDBRANCH   8  11
ENDBRANCH   3   5
BRANCH   1  14
ATOM     14  C   UNL     1       0.763  -2.041   1.233  0.00  0.00    +0.091 C 
BRANCH  14  15
ATOM     15  C   UNL     1       1.468  -2.527  -0.007  0.00  0.00    +0.061 C 
ATOM     16  S   UNL     1       0.694  -3.451  -1.057  0.00  0.00    -0.040 S 
BRANCH  15  17
ATOM     17  N   UNL     1       2.752  -2.183  -0.231  0.00  0.00    -0.355 N 
ATOM     18  H   UNL     1       3.222  -1.622   0.407  0.00  0.00    +0.143 HD
ATOM     19  H   UNL     1       3.206  -2.495  -1.028  0.00  0.00    +0.143 HD
ENDBRANCH  15  17
ENDBRANCH  14  15
BRANCH  14  20
ATOM     20  C   UNL     1       0.742  -0.511   1.242  0.00  0.00    +0.022 C 
BRANCH  20  22
ATOM     21  C   UNL     1      -0.019   1.526   0.010  0.00  0.00    +0.004 C 
ATOM     22  C   UNL     1       0.002  -0.004   0.002  0.00  0.00    -0.002 C 
ENDBRANCH  20  22
ENDBRANCH  14  20
BRANCH  14  23
ATOM     23  C   UNL     1      -0.673  -2.570   1.244  0.00  0.00    +0.022 C 
BRANCH  23  24
ATOM     24  C   UNL     1      -1.389  -2.077   2.503  0.00  0.00    -0.002 C 
ATOM     25  C   UNL     1      -2.824  -2.607   2.514  0.00  0.00    +0.004 C 
ENDBRANCH  23  24
ENDBRANCH  14  23
ENDBRANCH   1  14
TORSDOF 9
