REMARK  Name = ZINC63550519
REMARK  14 active torsions:
REMARK  status: ('A' for Active; 'I' for Inactive)
REMARK    1  A    between atoms: C_1  and  C_2
REMARK    2  A    between atoms: C_2  and  C_3
REMARK    3  A    between atoms: C_2  and  C_4
REMARK    4  A    between atoms: C_4  and  N_5
REMARK    5  A    between atoms: C_6  and  N_29
REMARK    6  A    between atoms: C_7  and  C_14
REMARK    7  A    between atoms: C_14  and  C_16
REMARK    8  A    between atoms: C_16  and  N_17
REMARK    9  A    between atoms: N_17  and  C_18
REMARK   10  A    between atoms: C_18  and  C_19
REMARK   11  A    between atoms: C_18  and  C_25
REMARK   12  A    between atoms: C_25  and  C_26
REMARK   13  A    between atoms: C_25  and  C_27
REMARK   14  A    between atoms: C_25  and  C_28
REMARK                            x       y       z     vdW  Elec       q    Type
REMARK                         _______ _______ _______ _____ _____    ______ ____
ROOT
ATOM      1  C   UNL     1      -0.469   2.791   5.124  0.00  0.00    +0.155 C 
ATOM      2  O   UNL     1       0.307   3.615   4.682  0.00  0.00    -0.294 OA
ENDROOT
BRANCH   1   5
ATOM      3  N   UNL     1      -0.385   0.193   2.510  0.00  0.00    -0.281 N 
ATOM      4  C   UNL     1      -0.067   1.331   3.194  0.00  0.00    +0.116 A 
ATOM      5  C   UNL     1      -0.760   1.627   4.381  0.00  0.00    +0.118 A 
ATOM      6  C   UNL     1      -1.796   0.685   4.824  0.00  0.00    +0.266 A 
ATOM      7  O   UNL     1      -2.428   0.890   5.844  0.00  0.00    -0.267 OA
ATOM      8  N   UNL     1      -2.034  -0.412   4.076  0.00  0.00    -0.274 N 
ATOM      9  H   UNL     1      -2.715  -1.044   4.356  0.00  0.00    +0.173 HD
ATOM     10  C   UNL     1      -1.343  -0.640   2.947  0.00  0.00    +0.331 A 
ATOM     11  O   UNL     1      -1.591  -1.638   2.300  0.00  0.00    -0.246 OA
BRANCH   4  12
ATOM     12  N   UNL     1       0.903   2.166   2.734  0.00  0.00    -0.344 N 
ATOM     13  H   UNL     1       1.443   1.909   1.970  0.00  0.00    +0.144 HD
ATOM     14  H   UNL     1       1.056   3.019   3.170  0.00  0.00    +0.144 HD
ENDBRANCH   4  12
BRANCH   3  15
ATOM     15  C   UNL     1       0.331  -0.124   1.272  0.00  0.00    +0.131 C 
BRANCH  15  17
ATOM     16  C   UNL     1      -0.356   2.026   0.201  0.00  0.00    +0.009 C 
ATOM     17  C   UNL     1      -0.404   0.501   0.084  0.00  0.00    +0.003 C 
ATOM     18  C   UNL     1       0.272   0.068  -1.219  0.00  0.00    +0.009 C 
ENDBRANCH  15  17
ENDBRANCH   3  15
ENDBRANCH   1   5
BRANCH   1  19
ATOM     19  C   UNL     1      -1.120   3.012   6.464  0.00  0.00    -0.000 C 
BRANCH  19  20
ATOM     20  N   UNL     1      -0.656   4.286   7.030  0.00  0.00    +0.389 N 
ATOM     21  H   UNL     1       0.352   4.290   7.067  0.00  0.00    -0.084 HD
ATOM     22  H   UNL     1      -0.975   5.048   6.450  0.00  0.00    -0.084 HD
BRANCH  20  23
ATOM     23  C   UNL     1      -1.196   4.445   8.387  0.00  0.00    -0.035 C 
BRANCH  23  24
ATOM     24  C   UNL     1      -2.697   4.569   8.319  0.00  0.00    -0.061 A 
ATOM     25  C   UNL     1      -3.284   5.307   7.308  0.00  0.00    +0.002 A 
ATOM     26  C   UNL     1      -4.660   5.420   7.246  0.00  0.00    +0.000 A 
ATOM     27  C   UNL     1      -5.449   4.796   8.194  0.00  0.00    +0.000 A 
ATOM     28  C   UNL     1      -4.862   4.058   9.204  0.00  0.00    +0.000 A 
ATOM     29  C   UNL     1      -3.486   3.940   9.264  0.00  0.00    +0.002 A 
ENDBRANCH  23  24
BRANCH  23  30
ATOM     30  C   UNL     1      -0.609   5.705   9.025  0.00  0.00    -0.046 C 
ATOM     31  C   UNL     1      -1.042   6.933   8.223  0.00  0.00    +0.009 C 
ATOM     32  C   UNL     1      -1.115   5.831  10.464  0.00  0.00    +0.009 C 
ATOM     33  C   UNL     1       0.918   5.611   9.029  0.00  0.00    +0.009 C 
ENDBRANCH  23  30
ENDBRANCH  20  23
ENDBRANCH  19  20
ENDBRANCH   1  19
TORSDOF 9
