REMARK  Name = ZINC67389230
REMARK  10 active torsions:
REMARK  status: ('A' for Active; 'I' for Inactive)
REMARK    1  A    between atoms: C_1  and  C_2
REMARK    2  A    between atoms: C_6  and  C_7
REMARK    3  A    between atoms: N_9  and  N_10
REMARK    4  A    between atoms: N_13  and  C_14
REMARK    5  A    between atoms: C_14  and  C_15
REMARK    6  A    between atoms: C_15  and  C_17
REMARK    7  A    between atoms: C_15  and  N_20
REMARK    8  A    between atoms: C_17  and  C_18
REMARK    9  A    between atoms: C_17  and  C_19
REMARK   10  A    between atoms: C_23  and  C_26
REMARK                            x       y       z     vdW  Elec       q    Type
REMARK                         _______ _______ _______ _____ _____    ______ ____
ROOT
ATOM      1  N   UNL     1       3.187  -3.537   2.626  0.00  0.00    -0.218 N 
ATOM      2  C   UNL     1       3.027  -4.405   3.645  0.00  0.00    +0.316 C 
ATOM      3  O   UNL     1       3.954  -5.109   3.995  0.00  0.00    -0.251 OA
ATOM      4  N   UNL     1       1.839  -4.491   4.277  0.00  0.00    -0.300 N 
ATOM      5  H   UNL     1       4.041  -3.475   2.172  0.00  0.00    +0.174 HD
ATOM      6  H   UNL     1       1.100  -3.928   3.998  0.00  0.00    +0.150 HD
ENDROOT
BRANCH   1   9
ATOM      7  C   UNL     1       2.279  -1.857   1.205  0.00  0.00    +0.267 C 
ATOM      8  O   UNL     1       3.351  -1.780   0.634  0.00  0.00    -0.268 OA
ATOM      9  N   UNL     1       2.119  -2.725   2.224  0.00  0.00    -0.229 N 
ATOM     10  H   UNL     1       1.264  -2.787   2.678  0.00  0.00    +0.173 HD
BRANCH   7  16
ATOM     11  C   UNL     1       2.310   0.240  -1.098  0.00  0.00    +0.045 C 
ATOM     12  C   UNL     1       1.116  -0.061  -0.229  0.00  0.00    -0.031 A 
ATOM     13  C   UNL     1      -0.088   0.581  -0.393  0.00  0.00    +0.011 A 
ATOM     14  C   UNL     1      -1.122   0.261   0.424  0.00  0.00    +0.046 A 
ATOM     15  S   UNL     1      -0.494  -0.920   1.440  0.00  0.00    -0.092 S 
ATOM     16  C   UNL     1       1.161  -1.007   0.783  0.00  0.00    +0.078 A 
ENDBRANCH   7  16
ENDBRANCH   1   9
BRANCH   4  17
ATOM     17  C   UNL     1       1.665  -5.434   5.384  0.00  0.00    +0.091 C 
BRANCH  17  18
ATOM     18  C   UNL     1       0.283  -5.237   6.009  0.00  0.00    -0.048 C 
BRANCH  18  19
ATOM     19  N   UNL     1       0.253  -3.966   6.744  0.00  0.00    +0.383 N 
ATOM     20  C   UNL     1       1.172  -3.014   6.108  0.00  0.00    -0.078 C 
ATOM     21  C   UNL     1       1.207  -1.715   6.917  0.00  0.00    -0.016 C 
ATOM     22  C   UNL     1      -0.201  -1.113   6.966  0.00  0.00    -0.018 C 
ATOM     23  C   UNL     1      -1.165  -2.143   7.562  0.00  0.00    -0.016 C 
ATOM     24  C   UNL     1      -1.111  -3.426   6.730  0.00  0.00    -0.078 C 
ATOM     25  C   UNL     1      -0.190   0.143   7.839  0.00  0.00    +0.007 C 
ATOM     26  H   UNL     1       0.542  -4.123   7.698  0.00  0.00    -0.081 HD
ENDBRANCH  18  19
BRANCH  18  27
ATOM     27  C   UNL     1      -0.010  -6.390   6.972  0.00  0.00    -0.029 C 
ATOM     28  C   UNL     1      -1.364  -6.159   7.647  0.00  0.00    +0.005 C 
ATOM     29  C   UNL     1      -0.046  -7.707   6.195  0.00  0.00    +0.005 C 
ENDBRANCH  18  27
ENDBRANCH  17  18
ENDBRANCH   4  17
TORSDOF 6
