REMARK  Name = ZINC42431339
REMARK  7 active torsions:
REMARK  status: ('A' for Active; 'I' for Inactive)
REMARK    1  A    between atoms: C_1  and  C_2
REMARK    2  A    between atoms: C_2  and  O_3
REMARK    3  A    between atoms: O_3  and  C_4
REMARK    4  A    between atoms: C_4  and  C_6
REMARK    5  A    between atoms: C_6  and  N_7
REMARK    6  A    between atoms: N_10  and  C_11
REMARK    7  A    between atoms: C_17  and  N_19
REMARK                            x       y       z     vdW  Elec       q    Type
REMARK                         _______ _______ _______ _____ _____    ______ ____
ROOT
ATOM      1  N   UNL     1       1.497  -3.844   2.426  0.00  0.00    -0.289 N 
ATOM      2  C   UNL     1       2.081  -4.575   3.395  0.00  0.00    +0.300 C 
ATOM      3  O   UNL     1       2.624  -4.021   4.332  0.00  0.00    -0.253 OA
ATOM      4  N   UNL     1       2.064  -5.921   3.327  0.00  0.00    -0.298 N 
ATOM      5  H   UNL     1       1.064  -4.286   1.679  0.00  0.00    +0.151 HD
ATOM      6  H   UNL     1       1.631  -6.363   2.580  0.00  0.00    +0.150 HD
ENDROOT
BRANCH   4   7
ATOM      7  C   UNL     1       2.699  -6.716   4.381  0.00  0.00    +0.060 C 
ATOM      8  C   UNL     1       1.716  -6.908   5.538  0.00  0.00    +0.021 C 
ATOM      9  C   UNL     1       0.469  -7.636   5.032  0.00  0.00    +0.002 C 
ATOM     10  C   UNL     1       0.868  -9.002   4.469  0.00  0.00    -0.001 C 
ATOM     11  C   UNL     1       1.851  -8.809   3.313  0.00  0.00    -0.014 C 
ATOM     12  C   UNL     1       3.098  -8.082   3.819  0.00  0.00    -0.054 C 
BRANCH  12  13
ATOM     13  N   UNL     1       4.042  -7.898   2.708  0.00  0.00    +0.381 N 
ATOM     14  H   UNL     1       4.864  -7.418   3.042  0.00  0.00    -0.090 HD
ATOM     15  H   UNL     1       4.305  -8.798   2.337  0.00  0.00    -0.090 HD
ATOM     16  H   UNL     1       3.604  -7.350   1.982  0.00  0.00    -0.090 HD
ENDBRANCH  12  13
ENDBRANCH   4   7
BRANCH   1  17
ATOM     17  C   UNL     1       1.516  -2.381   2.500  0.00  0.00    +0.226 C 
BRANCH  17  18
ATOM     18  C   UNL     1       0.801  -1.808   1.304  0.00  0.00    +0.324 C 
ATOM     19  O   UNL     1       0.324  -2.546   0.475  0.00  0.00    -0.249 OA
BRANCH  18  20
ATOM     20  O   UNL     1       0.693  -0.477   1.160  0.00  0.00    -0.464 OA
BRANCH  20  22
ATOM     21  C   UNL     1      -0.019   1.526   0.010  0.00  0.00    +0.048 C 
ATOM     22  C   UNL     1       0.002  -0.004   0.002  0.00  0.00    +0.229 C 
ENDBRANCH  20  22
ENDBRANCH  18  20
ENDBRANCH  17  18
ENDBRANCH   1  17
TORSDOF 6
