REMARK  Name = ZINC33515078
REMARK  13 active torsions:
REMARK  status: ('A' for Active; 'I' for Inactive)
REMARK    1  A    between atoms: C_1  and  C_2
REMARK    2  A    between atoms: C_2  and  N_3
REMARK    3  A    between atoms: N_3  and  C_4
REMARK    4  A    between atoms: N_3  and  C_6
REMARK    5  A    between atoms: C_4  and  C_5
REMARK    6  A    between atoms: C_6  and  C_7
REMARK    7  A    between atoms: C_7  and  N_8
REMARK    8  A    between atoms: C_9  and  C_31
REMARK    9  A    between atoms: C_11  and  C_16
REMARK   10  A    between atoms: C_16  and  C_18
REMARK   11  A    between atoms: C_19  and  C_30
REMARK   12  A    between atoms: C_36  and  O_37
REMARK   13  A    between atoms: O_37  and  C_38
REMARK                            x       y       z     vdW  Elec       q    Type
REMARK                         _______ _______ _______ _____ _____    ______ ____
ROOT
ATOM      1  N   UNL     1       0.953   3.815  -2.168  0.00  0.00    -0.285 N 
ATOM      2  C   UNL     1       2.217   4.072  -2.867  0.00  0.00    +0.148 C 
ATOM      3  C   UNL     1       1.851   4.770  -4.156  0.00  0.00    +0.077 C 
ATOM      4  C   UNL     1       0.504   4.895  -4.163  0.00  0.00    +0.249 C 
ATOM      5  C   UNL     1      -0.045   4.301  -2.928  0.00  0.00    +0.288 C 
ATOM      6  O   UNL     1      -1.225   4.257  -2.641  0.00  0.00    -0.266 OA
ATOM      7  O   UNL     1      -0.224   5.474  -5.146  0.00  0.00    -0.282 OA
ENDROOT
BRANCH   2   8
ATOM      8  C   UNL     1       3.103   4.957  -2.028  0.00  0.00    +0.019 A 
ATOM      9  C   UNL     1       4.327   4.492  -1.588  0.00  0.00    +0.009 A 
ATOM     10  C   UNL     1       5.142   5.305  -0.822  0.00  0.00    +0.001 A 
ATOM     11  C   UNL     1       4.729   6.581  -0.486  0.00  0.00    +0.004 A 
ATOM     12  C   UNL     1       3.504   7.049  -0.919  0.00  0.00    +0.046 A 
ATOM     13  C   UNL     1       2.687   6.237  -1.692  0.00  0.00    +0.125 A 
BRANCH  13  14
ATOM     14  O   UNL     1       1.481   6.694  -2.120  0.00  0.00    -0.495 OA
ATOM     15  C   UNL     1       1.165   8.058  -1.831  0.00  0.00    +0.277 C 
ENDBRANCH  13  14
ENDBRANCH   2   8
BRANCH   3  16
ATOM     16  C   UNL     1       2.778   5.230  -5.196  0.00  0.00    +0.203 C 
ATOM     17  O   UNL     1       2.370   5.916  -6.116  0.00  0.00    -0.286 OA
BRANCH  16  18
ATOM     18  C   UNL     1       4.197   4.864  -5.128  0.00  0.00    +0.082 A 
ATOM     19  C   UNL     1       5.229   5.295  -5.894  0.00  0.00    +0.041 A 
ATOM     20  N   UNL     1       6.495   4.837  -5.673  0.00  0.00    -0.290 N 
ATOM     21  C   UNL     1       7.777   5.024  -6.212  0.00  0.00    +0.074 A 
ATOM     22  C   UNL     1       8.259   5.811  -7.245  0.00  0.00    +0.028 A 
ATOM     23  C   UNL     1       9.604   5.786  -7.554  0.00  0.00    +0.002 A 
ATOM     24  C   UNL     1      10.474   4.978  -6.838  0.00  0.00    +0.002 A 
ATOM     25  C   UNL     1      10.011   4.189  -5.809  0.00  0.00    +0.030 A 
ATOM     26  C   UNL     1       8.651   4.204  -5.484  0.00  0.00    +0.091 A 
ATOM     27  N   UNL     1       7.909   3.558  -4.549  0.00  0.00    -0.221 NA
ATOM     28  C   UNL     1       6.665   3.922  -4.658  0.00  0.00    +0.179 A 
ATOM     29  S   UNL     1       5.016   3.728  -4.019  0.00  0.00    -0.046 S 
ATOM     30  C   UNL     1       4.977   6.292  -6.995  0.00  0.00    +0.065 C 
ENDBRANCH  16  18
ENDBRANCH   3  16
BRANCH   1  31
ATOM     31  C   UNL     1       0.804   3.152  -0.870  0.00  0.00    +0.090 C 
BRANCH  31  32
ATOM     32  C   UNL     1       0.637   1.646  -1.082  0.00  0.00    -0.060 C 
BRANCH  32  33
ATOM     33  N   UNL     1       0.527   0.977   0.221  0.00  0.00    +0.380 N 
ATOM     34  H   UNL     1      -0.217   1.524   0.820  0.00  0.00    -0.082 HD
BRANCH  33  36
ATOM     35  C   UNL     1      -0.287  -0.986   1.439  0.00  0.00    -0.017 C 
ATOM     36  C   UNL     1       0.053  -0.405   0.065  0.00  0.00    -0.082 C 
ENDBRANCH  33  36
BRANCH  33  37
ATOM     37  C   UNL     1       1.805   1.017   0.943  0.00  0.00    -0.082 C 
ATOM     38  C   UNL     1       2.872   0.278   0.133  0.00  0.00    -0.017 C 
ENDBRANCH  33  37
ENDBRANCH  32  33
ENDBRANCH  31  32
ENDBRANCH   1  31
TORSDOF 9
