REMARK  Name = ZINC40545206
REMARK  4 active torsions:
REMARK  status: ('A' for Active; 'I' for Inactive)
REMARK    1  A    between atoms: C_1  and  C_2
REMARK    2  A    between atoms: C_12  and  C_20
REMARK    3  A    between atoms: C_14  and  N_19
REMARK    4  A    between atoms: C_15  and  C_16
REMARK                            x       y       z     vdW  Elec       q    Type
REMARK                         _______ _______ _______ _____ _____    ______ ____
ROOT
ATOM      1  C   UNL     1      -0.181   1.716   1.153  0.00  0.00    +0.044 C 
ATOM      2  C   UNL     1      -0.160   0.228   0.915  0.00  0.00    -0.048 A 
ATOM      3  C   UNL     1      -0.249  -0.268  -0.372  0.00  0.00    +0.007 A 
ATOM      4  C   UNL     1      -0.231  -1.631  -0.595  0.00  0.00    +0.048 A 
ATOM      5  C   UNL     1      -0.123  -2.513   0.473  0.00  0.00    +0.145 A 
ATOM      6  C   UNL     1      -0.033  -2.012   1.767  0.00  0.00    +0.073 A 
ATOM      7  C   UNL     1      -0.046  -0.640   1.984  0.00  0.00    +0.030 A 
ATOM      8  N   UNL     1       0.067  -3.085   2.665  0.00  0.00    -0.297 N 
ATOM      9  C   UNL     1       0.029  -4.305   1.849  0.00  0.00    +0.235 C 
ATOM     10  O   UNL     1      -0.087  -3.873   0.493  0.00  0.00    -0.458 OA
ATOM     11  C   UNL     1      -1.159  -5.141   2.232  0.00  0.00    +0.087 C 
ATOM     12  C   UNL     1      -1.065  -6.442   2.363  0.00  0.00    +0.106 C 
ATOM     13  O   UNL     1       0.094  -7.105   2.163  0.00  0.00    -0.446 OA
ATOM     14  C   UNL     1       1.261  -6.438   2.183  0.00  0.00    +0.198 C 
ATOM     15  C   UNL     1       1.300  -5.087   2.038  0.00  0.00    +0.137 C 
ATOM     16  C   UNL     1      -2.293  -7.225   2.749  0.00  0.00    +0.086 C 
ATOM     17  H   UNL     1       0.145  -3.032   3.630  0.00  0.00    +0.151 HD
ENDROOT
BRANCH  15  18
ATOM     18  C   UNL     1       2.535  -4.417   2.062  0.00  0.00    +0.248 C 
ATOM     19  O   UNL     1       3.059  -4.066   1.020  0.00  0.00    -0.270 OA
ATOM     20  N   UNL     1       3.141  -4.163   3.240  0.00  0.00    -0.325 N 
ATOM     21  H   UNL     1       2.761  -4.506   4.064  0.00  0.00    +0.145 HD
ATOM     22  H   UNL     1       3.956  -3.638   3.262  0.00  0.00    +0.145 HD
ENDBRANCH  15  18
BRANCH  14  23
ATOM     23  N   UNL     1       2.430  -7.131   2.354  0.00  0.00    -0.329 N 
ATOM     24  H   UNL     1       2.407  -8.084   2.539  0.00  0.00    +0.145 HD
ATOM     25  H   UNL     1       3.281  -6.671   2.291  0.00  0.00    +0.145 HD
ENDBRANCH  14  23
TORSDOF 2
