REMARK  Name = ZINC13498250
REMARK  10 active torsions:
REMARK  status: ('A' for Active; 'I' for Inactive)
REMARK    1  A    between atoms: C_1  and  C_2
REMARK    2  A    between atoms: C_7  and  C_8
REMARK    3  A    between atoms: C_8  and  C_10
REMARK    4  A    between atoms: C_8  and  N_18
REMARK    5  A    between atoms: N_12  and  C_13
REMARK    6  A    between atoms: N_18  and  C_19
REMARK    7  A    between atoms: C_22  and  O_25
REMARK    8  A    between atoms: O_25  and  C_26
REMARK    9  A    between atoms: C_27  and  C_29
REMARK   10  A    between atoms: C_29  and  C_30
REMARK                            x       y       z     vdW  Elec       q    Type
REMARK                         _______ _______ _______ _____ _____    ______ ____
ROOT
ATOM      1  C   UNL     1      -1.700   4.090  -2.285  0.00  0.00    +0.197 C 
ENDROOT
BRANCH   1   8
ATOM      2  C   UNL     1      -2.278   4.967  -4.977  0.00  0.00    +0.044 C 
ATOM      3  C   UNL     1      -0.983   4.256  -4.678  0.00  0.00    -0.045 A 
ATOM      4  C   UNL     1      -0.072   4.023  -5.691  0.00  0.00    +0.004 A 
ATOM      5  C   UNL     1       1.115   3.371  -5.417  0.00  0.00    +0.000 A 
ATOM      6  C   UNL     1       1.392   2.952  -4.129  0.00  0.00    +0.000 A 
ATOM      7  C   UNL     1       0.483   3.188  -3.115  0.00  0.00    +0.006 A 
ATOM      8  C   UNL     1      -0.707   3.836  -3.390  0.00  0.00    -0.015 A 
ENDBRANCH   1   8
BRANCH   1   9
ATOM      9  C   UNL     1      -1.034   3.869  -0.952  0.00  0.00    +0.239 C 
ATOM     10  O   UNL     1      -0.773   4.816  -0.240  0.00  0.00    -0.273 OA
ATOM     11  N   UNL     1      -0.729   2.619  -0.549  0.00  0.00    -0.311 N 
ATOM     12  H   UNL     1      -1.003   1.857  -1.084  0.00  0.00    +0.149 HD
BRANCH  11  13
ATOM     13  C   UNL     1       0.014   2.411   0.696  0.00  0.00    +0.073 C 
ATOM     14  C   UNL     1       1.531   2.458   0.419  0.00  0.00    +0.022 C 
ATOM     15  C   UNL     1       2.123   1.382   1.363  0.00  0.00    +0.002 C 
ATOM     16  C   UNL     1       1.059   0.258   1.310  0.00  0.00    +0.002 C 
ATOM     17  C   UNL     1      -0.286   1.012   1.262  0.00  0.00    +0.022 C 
ENDBRANCH  11  13
ENDBRANCH   1   9
BRANCH   1  18
ATOM     18  N   UNL     1      -2.180   5.471  -2.369  0.00  0.00    -0.255 N 
ATOM     19  C   UNL     1      -3.501   5.720  -2.468  0.00  0.00    +0.226 C 
ATOM     20  O   UNL     1      -3.893   6.855  -2.635  0.00  0.00    -0.275 OA
BRANCH  18  21
ATOM     21  C   UNL     1      -1.267   6.533  -2.345  0.00  0.00    +0.038 A 
ATOM     22  C   UNL     1       0.097   6.277  -2.376  0.00  0.00    +0.027 A 
ATOM     23  C   UNL     1       0.997   7.324  -2.359  0.00  0.00    +0.047 A 
ATOM     24  C   UNL     1       0.538   8.632  -2.299  0.00  0.00    +0.120 A 
ATOM     25  C   UNL     1      -0.825   8.889  -2.263  0.00  0.00    +0.047 A 
ATOM     26  C   UNL     1      -1.726   7.842  -2.285  0.00  0.00    +0.027 A 
BRANCH  24  27
ATOM     27  O   UNL     1       1.424   9.663  -2.277  0.00  0.00    -0.495 OA
ATOM     28  C   UNL     1       2.812   9.326  -2.317  0.00  0.00    +0.277 C 
ENDBRANCH  24  27
ENDBRANCH  18  21
BRANCH  19  29
ATOM     29  C   UNL     1      -4.491   4.588  -2.370  0.00  0.00    +0.138 C 
BRANCH  29  30
ATOM     30  C   UNL     1      -5.880   5.110  -2.634  0.00  0.00    -0.001 A 
ATOM     31  C   UNL     1      -6.542   5.216  -3.812  0.00  0.00    +0.011 A 
ATOM     32  C   UNL     1      -7.826   5.728  -3.814  0.00  0.00    +0.008 A 
ATOM     33  C   UNL     1      -8.381   6.118  -2.641  0.00  0.00    +0.045 A 
ATOM     34  S   UNL     1      -7.076   5.757  -1.477  0.00  0.00    -0.101 S 
ENDBRANCH  29  30
ENDBRANCH  19  29
ENDBRANCH   1  18
TORSDOF 8
