REMARK  Name = ZINC43290503
REMARK  6 active torsions:
REMARK  status: ('A' for Active; 'I' for Inactive)
REMARK    1  A    between atoms: C_5  and  C_6
REMARK    2  A    between atoms: C_6  and  C_8
REMARK    3  A    between atoms: C_6  and  S_10
REMARK    4  A    between atoms: C_8  and  N_9
REMARK    5  A    between atoms: S_10  and  C_11
REMARK    6  A    between atoms: N_15  and  C_16
REMARK                            x       y       z     vdW  Elec       q    Type
REMARK                         _______ _______ _______ _____ _____    ______ ____
ROOT
ATOM      1  C   UNL     1      -1.148  -0.892  -0.120  0.00  0.00    +0.073 C 
ENDROOT
BRANCH   1   6
ATOM      2  C   UNL     1      -0.718   1.653   0.028  0.00  0.00    +0.027 A 
ATOM      3  C   UNL     1       0.231   2.647   0.176  0.00  0.00    +0.025 A 
ATOM      4  C   UNL     1       1.534   2.297   0.314  0.00  0.00    +0.060 A 
ATOM      5  S   UNL     1       1.448   0.515   0.236  0.00  0.00    -0.099 S 
ATOM      6  C   UNL     1      -0.318   0.357   0.024  0.00  0.00    +0.002 A 
ATOM      7 BR   UNL     1      -0.280   4.468   0.186  0.00  0.00    -0.050 Br
ENDBRANCH   1   6
BRANCH   1   8
ATOM      8  C   UNL     1      -0.690  -1.670  -1.355  0.00  0.00    -0.066 C 
BRANCH   8   9
ATOM      9  N   UNL     1      -0.976  -0.884  -2.562  0.00  0.00    +0.379 N 
ATOM     10  H   UNL     1      -0.752  -1.431  -3.380  0.00  0.00    -0.090 HD
ATOM     11  H   UNL     1      -1.955  -0.638  -2.580  0.00  0.00    -0.090 HD
ATOM     12  H   UNL     1      -0.418  -0.043  -2.557  0.00  0.00    -0.090 HD
ENDBRANCH   8   9
ENDBRANCH   1   8
BRANCH   1  13
ATOM     13  S   UNL     1      -0.945  -1.927   1.357  0.00  0.00    -0.078 S 
BRANCH  13  14
ATOM     14  C   UNL     1      -2.135  -3.209   1.145  0.00  0.00    +0.210 A 
ATOM     15  N   UNL     1      -3.013  -3.308   0.171  0.00  0.00    -0.101 NA
ATOM     16  N   UNL     1      -3.730  -4.363   0.317  0.00  0.00    -0.022 NA
ATOM     17  N   UNL     1      -3.371  -5.006   1.375  0.00  0.00    -0.043 NA
ATOM     18  N   UNL     1      -2.314  -4.281   1.952  0.00  0.00    -0.217 N 
BRANCH  18  19
ATOM     19  C   UNL     1      -1.567  -4.614   3.168  0.00  0.00    +0.112 C 
ATOM     20  C   UNL     1      -0.935  -6.014   3.033  0.00  0.00    +0.027 C 
ATOM     21  C   UNL     1      -1.054  -6.623   4.452  0.00  0.00    +0.002 C 
ATOM     22  C   UNL     1      -2.438  -6.114   4.928  0.00  0.00    +0.002 C 
ATOM     23  C   UNL     1      -2.523  -4.677   4.373  0.00  0.00    +0.027 C 
ENDBRANCH  18  19
ENDBRANCH  13  14
ENDBRANCH   1  13
TORSDOF 6
