REMARK  Name = ZINC03852044
REMARK  3 active torsions:
REMARK  status: ('A' for Active; 'I' for Inactive)
REMARK    1  A    between atoms: C_4  and  N_7
REMARK    2  A    between atoms: C_9  and  C_18
REMARK    3  A    between atoms: N_14  and  N_17
REMARK                            x       y       z     vdW  Elec       q    Type
REMARK                         _______ _______ _______ _____ _____    ______ ____
ROOT
ATOM      1  N   UNL     1       4.126  -0.342   0.482  0.00  0.00    -0.300 N 
ATOM      2  C   UNL     1       2.862   0.064   0.814  0.00  0.00    +0.102 A 
ATOM      3  C   UNL     1       2.481   1.071  -0.015  0.00  0.00    +0.013 A 
ATOM      4  C   UNL     1       3.605   1.308  -0.922  0.00  0.00    +0.068 A 
ATOM      5  C   UNL     1       4.603   0.398  -0.566  0.00  0.00    +0.151 A 
ATOM      6  N   UNL     1       5.763   0.398  -1.246  0.00  0.00    -0.217 NA
ATOM      7  C   UNL     1       5.995   1.214  -2.230  0.00  0.00    +0.222 A 
ATOM      8  N   UNL     1       5.092   2.137  -2.657  0.00  0.00    -0.241 N 
ATOM      9  C   UNL     1       3.862   2.230  -2.030  0.00  0.00    +0.135 A 
ATOM     10  N   UNL     1       2.964   3.107  -2.413  0.00  0.00    -0.383 N 
ATOM     11  H   UNL     1       3.181   3.789  -3.248  0.00  0.00    +0.157 HD
ATOM     12  H   UNL     1       1.993   3.160  -1.898  0.00  0.00    +0.157 HD
ENDROOT
BRANCH   3  13
ATOM     13  C   UNL     1       1.184   1.790   0.000  0.00  0.00    -0.016 A 
ATOM     14  C   UNL     1      -0.013   1.076   0.008  0.00  0.00    +0.010 A 
ATOM     15  C   UNL     1      -1.216   1.751   0.017  0.00  0.00    +0.020 A 
ATOM     16  C   UNL     1      -1.236   3.135   0.030  0.00  0.00    +0.041 A 
ATOM     17  C   UNL     1      -0.050   3.849   0.022  0.00  0.00    +0.020 A 
ATOM     18  C   UNL     1       1.159   3.184   0.008  0.00  0.00    +0.010 A 
ATOM     19 CL   UNL     1      -2.754   3.978   0.048  0.00  0.00    -0.084 Cl
ENDBRANCH   3  13
BRANCH   1  23
ATOM     20  C   UNL     1       6.233  -3.382   2.402  0.00  0.00    +0.000 A 
ATOM     21  C   UNL     1       5.633  -2.383   3.146  0.00  0.00    +0.002 A 
ATOM     22  C   UNL     1       4.934  -1.374   2.513  0.00  0.00    +0.026 A 
ATOM     23  C   UNL     1       4.835  -1.364   1.128  0.00  0.00    +0.048 A 
ATOM     24  C   UNL     1       5.433  -2.372   0.384  0.00  0.00    +0.026 A 
ATOM     25  C   UNL     1       6.136  -3.375   1.023  0.00  0.00    +0.002 A 
ENDBRANCH   1  23
BRANCH   8  26
ATOM     26  N   UNL     1       5.398   2.967  -3.698  0.00  0.00    -0.296 N 
ATOM     27  H   UNL     1       4.666   3.712  -4.040  0.00  0.00    +0.163 HD
ATOM     28  H   UNL     1       6.377   2.890  -4.193  0.00  0.00    +0.163 HD
ENDBRANCH   8  26
TORSDOF 3
