REMARK  Name = ZINC62014738
REMARK  7 active torsions:
REMARK  status: ('A' for Active; 'I' for Inactive)
REMARK    1  A    between atoms: C_1  and  C_2
REMARK    2  A    between atoms: C_4  and  C_20
REMARK    3  A    between atoms: C_7  and  N_8
REMARK    4  A    between atoms: N_8  and  C_9
REMARK    5  A    between atoms: N_8  and  C_10
REMARK    6  A    between atoms: C_10  and  C_12
REMARK    7  A    between atoms: C_10  and  C_13
REMARK                            x       y       z     vdW  Elec       q    Type
REMARK                         _______ _______ _______ _____ _____    ______ ____
ROOT
ATOM      1  C   UNL     1       0.637   1.632   0.423  0.00  0.00    +0.045 C 
ATOM      2  C   UNL     1       0.596   0.130   0.302  0.00  0.00    -0.029 A 
ATOM      3  C   UNL     1       0.810  -0.467  -0.920  0.00  0.00    +0.016 A 
ATOM      4  C   UNL     1       0.772  -1.859  -1.032  0.00  0.00    +0.012 A 
ATOM      5  C   UNL     1       0.516  -2.641   0.098  0.00  0.00    +0.013 A 
ATOM      6  C   UNL     1       0.302  -2.039   1.316  0.00  0.00    +0.024 A 
ATOM      7  C   UNL     1       0.346  -0.652   1.426  0.00  0.00    +0.033 A 
ENDROOT
BRANCH   4   8
ATOM      8  C   UNL     1       1.002  -2.503  -2.341  0.00  0.00    +0.094 C 
ATOM      9  N   UNL     1       0.965  -3.831  -2.446  0.00  0.00    -0.387 N 
ATOM     10  N   UNL     1       1.246  -1.756  -3.417  0.00  0.00    -0.345 N 
ATOM     11  H   UNL     1       1.116  -4.254  -3.306  0.00  0.00    +0.157 HD
ATOM     12  H   UNL     1       1.273  -0.789  -3.341  0.00  0.00    +0.144 HD
ATOM     13  H   UNL     1       1.397  -2.178  -4.277  0.00  0.00    +0.144 HD
ATOM     14  H   UNL     1       0.787  -4.375  -1.663  0.00  0.00    +0.157 HD
ENDBRANCH   4   8
BRANCH   7  15
ATOM     15  N   UNL     1       0.135  -0.046   2.660  0.00  0.00    -0.326 N 
ATOM     16  C   UNL     1       1.269   0.220   3.549  0.00  0.00    +0.130 C 
BRANCH  15  17
ATOM     17  C   UNL     1      -1.221   0.327   3.071  0.00  0.00    +0.102 C 
ATOM     18  C   UNL     1      -1.522  -0.276   4.444  0.00  0.00    +0.033 C 
BRANCH  17  19
ATOM     19  C   UNL     1      -1.328   1.828   3.147  0.00  0.00    -0.009 A 
ATOM     20  C   UNL     1      -0.318   2.564   3.736  0.00  0.00    +0.007 A 
ATOM     21  C   UNL     1      -0.416   3.942   3.806  0.00  0.00    +0.000 A 
ATOM     22  C   UNL     1      -1.525   4.583   3.286  0.00  0.00    +0.001 A 
ATOM     23  C   UNL     1      -2.536   3.848   2.696  0.00  0.00    +0.020 A 
ATOM     24  C   UNL     1      -2.435   2.470   2.621  0.00  0.00    +0.046 A 
ATOM     25 CL   UNL     1      -3.702   1.547   1.875  0.00  0.00    -0.083 Cl
ENDBRANCH  17  19
ENDBRANCH  15  17
ENDBRANCH   7  15
TORSDOF 4
