REMARK  Name = ZINC09264438
REMARK  5 active torsions:
REMARK  status: ('A' for Active; 'I' for Inactive)
REMARK    1  A    between atoms: C_1  and  C_2
REMARK    2  A    between atoms: C_7  and  N_8
REMARK    3  A    between atoms: C_17  and  C_19
REMARK    4  A    between atoms: C_19  and  S_20
REMARK    5  A    between atoms: S_20  and  C_21
REMARK                            x       y       z     vdW  Elec       q    Type
REMARK                         _______ _______ _______ _____ _____    ______ ____
ROOT
ATOM      1  N   UNL     1       0.567  -2.325  -0.124  0.00  0.00    -0.327 N 
ATOM      2  C   UNL     1      -0.770  -2.055   0.057  0.00  0.00    +0.180 C 
ATOM      3  N   UNL     1      -1.673  -3.093   0.175  0.00  0.00    -0.298 N 
ATOM      4  C   UNL     1      -1.224  -4.389   0.252  0.00  0.00    +0.211 A 
ATOM      5  N   UNL     1      -2.123  -5.409   0.240  0.00  0.00    -0.293 N 
ATOM      6  H   UNL     1      -3.072  -5.220   0.178  0.00  0.00    +0.172 HD
ATOM      7  C   UNL     1      -1.689  -6.686   0.309  0.00  0.00    +0.253 A 
ATOM      8  O   UNL     1      -2.482  -7.614   0.294  0.00  0.00    -0.268 OA
ATOM      9  C   UNL     1      -0.306  -6.926   0.404  0.00  0.00    +0.094 A 
ATOM     10  C   UNL     1       0.547  -5.861   0.417  0.00  0.00    +0.060 A 
ATOM     11  N   UNL     1       0.070  -4.621   0.341  0.00  0.00    -0.218 NA
ATOM     12  H   UNL     1       0.863  -3.236  -0.271  0.00  0.00    +0.169 HD
ATOM     13  H   UNL     1      -2.113  -0.530   0.174  0.00  0.00    +0.159 HD
ATOM     14  H   UNL     1      -2.625  -2.907   0.203  0.00  0.00    +0.172 HD
ATOM     15  N   UNL     1      -1.126  -0.782   0.116  0.00  0.00    -0.371 N 
ATOM     16  H   UNL     1      -0.409  -0.047   0.103  0.00  0.00    +0.159 HD
ENDROOT
BRANCH   1  23
ATOM     17  C   UNL     1       3.024  -2.682  -1.514  0.00  0.00    +0.046 C 
ATOM     18  C   UNL     1       2.711  -1.414  -0.763  0.00  0.00    -0.027 A 
ATOM     19  C   UNL     1       3.630  -0.383  -0.733  0.00  0.00    +0.005 A 
ATOM     20  C   UNL     1       3.346   0.778  -0.038  0.00  0.00    +0.000 A 
ATOM     21  C   UNL     1       2.141   0.912   0.628  0.00  0.00    +0.002 A 
ATOM     22  C   UNL     1       1.218  -0.115   0.602  0.00  0.00    +0.026 A 
ATOM     23  C   UNL     1       1.500  -1.283  -0.095  0.00  0.00    +0.045 A 
ENDBRANCH   1  23
BRANCH  10  24
ATOM     24  C   UNL     1       2.033  -6.090   0.518  0.00  0.00    +0.130 C 
BRANCH  24  25
ATOM     25  S   UNL     1       2.800  -5.807  -1.101  0.00  0.00    -0.119 S 
BRANCH  25  26
ATOM     26  C   UNL     1       4.513  -6.111  -0.821  0.00  0.00    +0.008 A 
ATOM     27  C   UNL     1       4.958  -6.470   0.446  0.00  0.00    +0.016 A 
ATOM     28  C   UNL     1       6.301  -6.712   0.661  0.00  0.00    +0.021 A 
ATOM     29  C   UNL     1       7.204  -6.586  -0.380  0.00  0.00    +0.041 A 
ATOM     30  C   UNL     1       6.764  -6.223  -1.641  0.00  0.00    +0.021 A 
ATOM     31  C   UNL     1       5.422  -5.985  -1.864  0.00  0.00    +0.016 A 
ATOM     32 CL   UNL     1       8.891  -6.886  -0.104  0.00  0.00    -0.084 Cl
ENDBRANCH  25  26
ENDBRANCH  24  25
ENDBRANCH  10  24
TORSDOF 4
