REMARK  Name = ZINC43285790
REMARK  7 active torsions:
REMARK  status: ('A' for Active; 'I' for Inactive)
REMARK    1  A    between atoms: C_5  and  C_6
REMARK    2  A    between atoms: C_6  and  C_8
REMARK    3  A    between atoms: C_6  and  N_10
REMARK    4  A    between atoms: C_8  and  N_9
REMARK    5  A    between atoms: N_13  and  C_16
REMARK    6  A    between atoms: C_16  and  C_17
REMARK    7  A    between atoms: C_17  and  O_18
REMARK                            x       y       z     vdW  Elec       q    Type
REMARK                         _______ _______ _______ _____ _____    ______ ____
ROOT
ATOM      1  C   UNL     1      -1.167  -0.974   0.009  0.00  0.00    +0.076 C 
ENDROOT
BRANCH   1   6
ATOM      2  C   UNL     1      -0.521   1.517   0.251  0.00  0.00    +0.028 A 
ATOM      3  C   UNL     1       0.513   2.424   0.391  0.00  0.00    +0.025 A 
ATOM      4  C   UNL     1       1.788   1.965   0.436  0.00  0.00    +0.060 A 
ATOM      5  S   UNL     1       1.552   0.202   0.278  0.00  0.00    -0.099 S 
ATOM      6  C   UNL     1      -0.230   0.196   0.163  0.00  0.00    +0.006 A 
ATOM      7 BR   UNL     1       0.155   4.276   0.517  0.00  0.00    -0.050 Br
ENDBRANCH   1   6
BRANCH   1   8
ATOM      8  N   UNL     1      -0.699  -2.089   0.843  0.00  0.00    -0.294 NA
ATOM      9  C   UNL     1      -1.589  -3.252   0.715  0.00  0.00    +0.100 C 
ATOM     10  C   UNL     1      -1.025  -4.415   1.535  0.00  0.00    +0.100 C 
ATOM     11  N   UNL     1      -0.900  -4.004   2.941  0.00  0.00    -0.298 NA
ATOM     12  C   UNL     1      -0.010  -2.841   3.069  0.00  0.00    +0.100 C 
ATOM     13  C   UNL     1      -0.574  -1.678   2.249  0.00  0.00    +0.100 C 
BRANCH  11  14
ATOM     14  C   UNL     1      -0.432  -5.119   3.776  0.00  0.00    +0.112 C 
BRANCH  14  15
ATOM     15  C   UNL     1      -0.551  -4.735   5.252  0.00  0.00    +0.171 C 
BRANCH  15  16
ATOM     16  O   UNL     1      -1.929  -4.561   5.590  0.00  0.00    -0.394 OA
ATOM     17  H   UNL     1      -2.080  -4.317   6.513  0.00  0.00    +0.209 HD
ENDBRANCH  15  16
ENDBRANCH  14  15
ENDBRANCH  11  14
ENDBRANCH   1   8
BRANCH   1  18
ATOM     18  C   UNL     1      -1.198  -1.413  -1.457  0.00  0.00    -0.062 C 
BRANCH  18  19
ATOM     19  N   UNL     1      -1.738  -0.324  -2.282  0.00  0.00    +0.379 N 
ATOM     20  H   UNL     1      -1.845  -0.644  -3.233  0.00  0.00    -0.090 HD
ATOM     21  H   UNL     1      -2.636  -0.041  -1.919  0.00  0.00    -0.090 HD
ATOM     22  H   UNL     1      -1.104   0.461  -2.261  0.00  0.00    -0.090 HD
ENDBRANCH  18  19
ENDBRANCH   1  18
TORSDOF 7
