REMARK  Name = ZINC27489248
REMARK  10 active torsions:
REMARK  status: ('A' for Active; 'I' for Inactive)
REMARK    1  A    between atoms: C_1  and  C_2
REMARK    2  A    between atoms: C_2  and  C_3
REMARK    3  A    between atoms: C_3  and  O_4
REMARK    4  A    between atoms: O_4  and  C_5
REMARK    5  A    between atoms: C_5  and  C_7
REMARK    6  A    between atoms: C_11  and  N_12
REMARK    7  A    between atoms: C_13  and  C_15
REMARK    8  A    between atoms: C_17  and  S_23
REMARK    9  A    between atoms: S_23  and  N_26
REMARK   10  A    between atoms: C_28  and  C_32
REMARK                            x       y       z     vdW  Elec       q    Type
REMARK                         _______ _______ _______ _____ _____    ______ ____
ROOT
ATOM      1  N   UNL     1      -1.438  -0.889   2.497  0.00  0.00    -0.275 N 
ATOM      2  C   UNL     1      -2.168  -1.335   3.539  0.00  0.00    +0.250 C 
ATOM      3  O   UNL     1      -3.200  -1.946   3.341  0.00  0.00    -0.270 OA
ATOM      4  H   UNL     1      -0.504  -0.336   2.676  0.00  0.00    +0.156 HD
ENDROOT
BRANCH   1   9
ATOM      5  C   UNL     1      -1.256  -0.753   0.010  0.00  0.00    +0.091 A 
ATOM      6  C   UNL     1      -1.919  -1.128  -1.228  0.00  0.00    -0.021 A 
ATOM      7  C   UNL     1      -3.068  -1.820  -1.079  0.00  0.00    -0.004 A 
ATOM      8  S   UNL     1      -3.284  -1.967   0.672  0.00  0.00    -0.077 S 
ATOM      9  C   UNL     1      -1.864  -1.128   1.201  0.00  0.00    +0.087 A 
ATOM     10  C   UNL     1      -3.959  -2.337  -2.166  0.00  0.00    +0.046 C 
ATOM     11  C   UNL     1      -3.566  -1.649  -3.482  0.00  0.00    -0.009 C 
ATOM     12  C   UNL     1      -2.044  -1.716  -3.638  0.00  0.00    +0.008 C 
ATOM     13  C   UNL     1      -1.375  -0.798  -2.613  0.00  0.00    +0.037 C 
ATOM     14  C   UNL     1      -4.237  -2.366  -4.655  0.00  0.00    +0.008 C 
BRANCH   5  15
ATOM     15  C   UNL     1       0.002  -0.004   0.002  0.00  0.00    +0.342 C 
ATOM     16  O   UNL     1       1.064  -0.598  -0.011  0.00  0.00    -0.245 OA
BRANCH  15  17
ATOM     17  O   UNL     1      -0.016   1.345   0.009  0.00  0.00    -0.461 OA
BRANCH  17  18
ATOM     18  C   UNL     1       1.268   2.021   0.001  0.00  0.00    +0.232 C 
BRANCH  18  20
ATOM     19  C   UNL     1       2.401   4.248   0.002  0.00  0.00    +0.007 C 
ATOM     20  C   UNL     1       1.047   3.535   0.011  0.00  0.00    +0.038 C 
ENDBRANCH  18  20
ENDBRANCH  17  18
ENDBRANCH  15  17
ENDBRANCH   5  15
ENDBRANCH   1   9
BRANCH   2  21
ATOM     21  C   UNL     1      -1.714  -1.080   4.921  0.00  0.00    +0.057 A 
ATOM     22  C   UNL     1      -0.528  -0.378   5.152  0.00  0.00    +0.044 A 
ATOM     23  C   UNL     1      -0.110  -0.143   6.444  0.00  0.00    +0.124 A 
ATOM     24  C   UNL     1      -0.861  -0.603   7.514  0.00  0.00    +0.069 A 
ATOM     25  C   UNL     1      -2.037  -1.299   7.293  0.00  0.00    +0.042 A 
ATOM     26  C   UNL     1      -2.471  -1.536   6.004  0.00  0.00    +0.055 A 
ATOM     27 CL   UNL     1      -3.949  -2.403   5.728  0.00  0.00    -0.083 Cl
ATOM     28 CL   UNL     1      -0.326  -0.303   9.138  0.00  0.00    -0.081 Cl
BRANCH  23  29
ATOM     29  S   UNL     1       1.385   0.742   6.736  0.00  0.00    +0.057 S 
ATOM     30  O   UNL     1       2.131  -0.018   7.677  0.00  0.00    -0.153 OA
ATOM     31  O   UNL     1       1.903   1.096   5.461  0.00  0.00    -0.153 OA
BRANCH  29  32
ATOM     32  N   UNL     1       0.976   2.158   7.490  0.00  0.00    -0.203 NA
ATOM     33  H   UNL     1       1.886   2.743   7.691  0.00  0.00    +0.144 HD
ATOM     34  H   UNL     1       0.467   1.935   8.439  0.00  0.00    +0.144 HD
ENDBRANCH  29  32
ENDBRANCH  23  29
ENDBRANCH   2  21
TORSDOF 8
