REMARK  Name = ZINC40737319
REMARK  13 active torsions:
REMARK  status: ('A' for Active; 'I' for Inactive)
REMARK    1  A    between atoms: C_1  and  C_2
REMARK    2  A    between atoms: C_2  and  O_3
REMARK    3  A    between atoms: O_3  and  C_4
REMARK    4  A    between atoms: C_6  and  C_20
REMARK    5  A    between atoms: C_9  and  O_10
REMARK    6  A    between atoms: O_10  and  C_11
REMARK    7  A    between atoms: C_11  and  C_12
REMARK    8  A    between atoms: C_20  and  N_21
REMARK    9  A    between atoms: N_21  and  C_22
REMARK   10  A    between atoms: C_22  and  C_23
REMARK   11  A    between atoms: C_22  and  C_24
REMARK   12  A    between atoms: C_22  and  C_25
REMARK   13  A    between atoms: C_25  and  O_26
REMARK                            x       y       z     vdW  Elec       q    Type
REMARK                         _______ _______ _______ _____ _____    ______ ____
ROOT
ATOM      1  C   UNL     1       0.777  -1.811  -1.336  0.00  0.00    +0.162 A 
ATOM      2  C   UNL     1       0.243  -2.669  -0.388  0.00  0.00    +0.051 A 
ATOM      3  C   UNL     1       0.352  -4.037  -0.555  0.00  0.00    -0.061 A 
ATOM      4  C   UNL     1       0.992  -4.552  -1.667  0.00  0.00    +0.005 A 
ATOM      5  C   UNL     1       1.526  -3.702  -2.616  0.00  0.00    +0.049 A 
ATOM      6  C   UNL     1       1.416  -2.330  -2.458  0.00  0.00    +0.162 A 
ENDROOT
BRANCH   1   7
ATOM      7  O   UNL     1       0.671  -0.465  -1.174  0.00  0.00    -0.489 OA
BRANCH   7   9
ATOM      8  C   UNL     1      -0.019   1.526   0.010  0.00  0.00    +0.048 C 
ATOM      9  C   UNL     1       0.002  -0.004   0.002  0.00  0.00    +0.226 C 
ENDBRANCH   7   9
ENDBRANCH   1   7
BRANCH   6  10
ATOM     10  O   UNL     1       1.936  -1.492  -3.394  0.00  0.00    -0.484 OA
BRANCH  10  11
ATOM     11  C   UNL     1       2.578  -2.095  -4.520  0.00  0.00    +0.269 C 
BRANCH  11  12
ATOM     12  C   UNL     1       3.088  -1.019  -5.443  0.00  0.00    +0.043 A 
ATOM     13  C   UNL     1       2.277  -0.531  -6.454  0.00  0.00    +0.131 A 
ATOM     14  C   UNL     1       2.747   0.458  -7.301  0.00  0.00    +0.039 A 
ATOM     15  C   UNL     1       4.026   0.957  -7.139  0.00  0.00    +0.004 A 
ATOM     16  C   UNL     1       4.836   0.470  -6.130  0.00  0.00    +0.020 A 
ATOM     17  C   UNL     1       4.365  -0.514  -5.278  0.00  0.00    +0.050 A 
ATOM     18 CL   UNL     1       5.381  -1.120  -4.007  0.00  0.00    -0.083 Cl
ATOM     19  F   UNL     1       1.028  -1.020  -6.613  0.00  0.00    -0.205 F 
ENDBRANCH  11  12
ENDBRANCH  10  11
ENDBRANCH   6  10
BRANCH   3  20
ATOM     20  C   UNL     1      -0.229  -4.969   0.477  0.00  0.00    -0.046 C 
BRANCH  20  21
ATOM     21  N   UNL     1      -1.621  -5.283   0.127  0.00  0.00    +0.387 N 
ATOM     22  H   UNL     1      -2.161  -4.431   0.100  0.00  0.00    -0.085 HD
ATOM     23  H   UNL     1      -1.647  -5.726  -0.779  0.00  0.00    -0.085 HD
BRANCH  21  24
ATOM     24  C   UNL     1      -2.187  -6.191   1.133  0.00  0.00    -0.050 C 
ATOM     25  C   UNL     1      -1.367  -7.482   1.173  0.00  0.00    -0.008 C 
ATOM     26  C   UNL     1      -2.146  -5.518   2.507  0.00  0.00    -0.008 C 
BRANCH  24  27
ATOM     27  C   UNL     1      -3.636  -6.518   0.767  0.00  0.00    +0.143 C 
BRANCH  27  28
ATOM     28  O   UNL     1      -4.186  -7.401   1.746  0.00  0.00    -0.396 OA
ATOM     29  H   UNL     1      -5.105  -7.652   1.578  0.00  0.00    +0.209 HD
ENDBRANCH  27  28
ENDBRANCH  24  27
ENDBRANCH  21  24
ENDBRANCH  20  21
ENDBRANCH   3  20
TORSDOF 10
