REMARK  Name = ZINC50463508
REMARK  7 active torsions:
REMARK  status: ('A' for Active; 'I' for Inactive)
REMARK    1  A    between atoms: C_6  and  C_7
REMARK    2  A    between atoms: N_9  and  C_10
REMARK    3  A    between atoms: C_10  and  C_11
REMARK    4  A    between atoms: C_11  and  C_12
REMARK    5  A    between atoms: C_12  and  O_13
REMARK    6  A    between atoms: C_14  and  C_16
REMARK    7  A    between atoms: C_19  and  N_21
REMARK                            x       y       z     vdW  Elec       q    Type
REMARK                         _______ _______ _______ _____ _____    ______ ____
ROOT
ATOM      1  C   UNL     1      -0.019   1.526   0.010  0.00  0.00    +0.032 C 
ATOM      2  C   UNL     1       1.420   2.052  -0.001  0.00  0.00    +0.108 C 
ATOM      3  N   UNL     1       2.151   1.453   1.124  0.00  0.00    -0.301 N 
ATOM      4  C   UNL     1       2.159  -0.010   1.262  0.00  0.00    +0.108 C 
ATOM      5  C   UNL     1       0.712  -0.513   1.258  0.00  0.00    +0.032 C 
ATOM      6  C   UNL     1       0.002  -0.004   0.002  0.00  0.00    +0.078 C 
ATOM      7  C   UNL     1       2.803   2.229   2.011  0.00  0.00    +0.217 C 
ATOM      8  O   UNL     1       2.790   3.436   1.886  0.00  0.00    -0.275 OA
ENDROOT
BRANCH   6   9
ATOM      9  C   UNL     1      -1.412  -0.525  -0.022  0.00  0.00    +0.216 C 
ATOM     10  O   UNL     1      -2.344   0.251  -0.031  0.00  0.00    -0.276 OA
ATOM     11  N   UNL     1      -1.640  -1.853  -0.033  0.00  0.00    -0.315 N 
ATOM     12  H   UNL     1      -0.895  -2.474  -0.025  0.00  0.00    +0.149 HD
BRANCH  11  13
ATOM     13  C   UNL     1      -3.015  -2.360  -0.056  0.00  0.00    +0.106 C 
BRANCH  13  14
ATOM     14  C   UNL     1      -2.994  -3.890  -0.064  0.00  0.00    +0.046 C 
BRANCH  14  15
ATOM     15  C   UNL     1      -4.430  -4.419  -0.088  0.00  0.00    +0.157 C 
BRANCH  15  16
ATOM     16  O   UNL     1      -4.410  -5.848  -0.096  0.00  0.00    -0.395 OA
ATOM     17  H   UNL     1      -5.288  -6.253  -0.111  0.00  0.00    +0.209 HD
ENDBRANCH  15  16
ENDBRANCH  14  15
ENDBRANCH  13  14
ENDBRANCH  11  13
ENDBRANCH   6   9
BRANCH   7  18
ATOM     18  C   UNL     1       3.549   1.599   3.159  0.00  0.00    +0.059 C 
ATOM     19  C   UNL     1       5.077   1.688   3.143  0.00  0.00    -0.005 C 
ATOM     20  C   UNL     1       4.271   2.535   4.132  0.00  0.00    -0.063 C 
BRANCH  20  21
ATOM     21  N   UNL     1       4.184   3.978   3.875  0.00  0.00    +0.380 N 
ATOM     22  H   UNL     1       3.217   4.266   3.896  0.00  0.00    -0.090 HD
ATOM     23  H   UNL     1       4.699   4.478   4.584  0.00  0.00    -0.090 HD
ATOM     24  H   UNL     1       4.575   4.183   2.968  0.00  0.00    -0.090 HD
ENDBRANCH  20  21
ENDBRANCH   7  18
TORSDOF 7
