REMARK  Name = ZINC63743670
REMARK  6 active torsions:
REMARK  status: ('A' for Active; 'I' for Inactive)
REMARK    1  A    between atoms: C_1  and  C_2
REMARK    2  A    between atoms: C_2  and  O_3
REMARK    3  A    between atoms: O_3  and  C_4
REMARK    4  A    between atoms: C_9  and  N_10
REMARK    5  A    between atoms: N_13  and  C_14
REMARK    6  A    between atoms: C_18  and  C_20
REMARK                            x       y       z     vdW  Elec       q    Type
REMARK                         _______ _______ _______ _____ _____    ______ ____
ROOT
ATOM      1  C   UNL     1       3.723  -1.630   6.594  0.00  0.00    +0.035 A 
ATOM      2  C   UNL     1       3.843  -3.006   6.745  0.00  0.00    +0.023 A 
ATOM      3  C   UNL     1       4.504  -3.524   7.840  0.00  0.00    +0.002 A 
ATOM      4  C   UNL     1       5.046  -2.675   8.788  0.00  0.00    +0.006 A 
ATOM      5  C   UNL     1       4.928  -1.305   8.641  0.00  0.00    -0.020 A 
ATOM      6  C   UNL     1       4.273  -0.780   7.545  0.00  0.00    +0.029 A 
ENDROOT
BRANCH   5   7
ATOM      7  C   UNL     1       5.521  -0.384   9.676  0.00  0.00    +0.133 C 
ATOM      8  C   UNL     1       7.017  -0.279   9.486  0.00  0.00    +0.012 C 
ATOM      9  C   UNL     1       7.574  -0.739  10.629  0.00  0.00    -0.001 A 
ATOM     10  C   UNL     1       8.967  -0.894  11.065  0.00  0.00    +0.048 A 
ATOM     11  C   UNL     1       9.218  -1.396  12.297  0.00  0.00    +0.124 A 
ATOM     12  C   UNL     1       8.180  -1.770  13.166  0.00  0.00    +0.040 A 
ATOM     13  C   UNL     1       6.877  -1.657  12.835  0.00  0.00    +0.029 A 
ATOM     14  C   UNL     1       6.499  -1.142  11.565  0.00  0.00    +0.043 A 
ATOM     15  N   UNL     1       5.322  -0.938  11.020  0.00  0.00    -0.374 N 
ATOM     16  F   UNL     1      10.499  -1.540  12.701  0.00  0.00    -0.205 F 
ATOM     17  H   UNL     1       4.465  -1.122  11.435  0.00  0.00    +0.161 HD
ENDBRANCH   5   7
BRANCH   1  21
ATOM     18  N   UNL     1       1.426  -1.308   3.824  0.00  0.00    -0.266 N 
ATOM     19  C   UNL     1       2.003  -1.759   4.956  0.00  0.00    +0.308 C 
ATOM     20  O   UNL     1       1.574  -2.759   5.500  0.00  0.00    -0.252 OA
ATOM     21  N   UNL     1       3.054  -1.102   5.484  0.00  0.00    -0.269 N 
ATOM     22  H   UNL     1       1.815  -0.559   3.347  0.00  0.00    +0.156 HD
ATOM     23  H   UNL     1       3.347  -0.263   5.096  0.00  0.00    +0.156 HD
BRANCH  18  29
ATOM     24  C   UNL     1      -0.104  -1.761   2.003  0.00  0.00    +0.142 A 
ATOM     25  C   UNL     1      -1.250  -2.375   1.525  0.00  0.00    +0.047 A 
ATOM     26  C   UNL     1      -2.028  -3.141   2.372  0.00  0.00    +0.004 A 
ATOM     27  C   UNL     1      -1.667  -3.297   3.698  0.00  0.00    +0.002 A 
ATOM     28  C   UNL     1      -0.525  -2.687   4.182  0.00  0.00    +0.027 A 
ATOM     29  C   UNL     1       0.264  -1.922   3.337  0.00  0.00    +0.077 A 
BRANCH  24  30
ATOM     30  O   UNL     1       0.663  -1.007   1.171  0.00  0.00    -0.490 OA
BRANCH  30  32
ATOM     31  C   UNL     1       1.206  -0.007  -0.962  0.00  0.00    +0.048 C 
ATOM     32  C   UNL     1       0.224  -0.885  -0.184  0.00  0.00    +0.226 C 
ENDBRANCH  30  32
ENDBRANCH  24  30
ENDBRANCH  18  29
ENDBRANCH   1  21
TORSDOF 5
