REMARK  Name = ZINC39533980
REMARK  12 active torsions:
REMARK  status: ('A' for Active; 'I' for Inactive)
REMARK    1  A    between atoms: C_1  and  C_2
REMARK    2  A    between atoms: C_2  and  C_3
REMARK    3  A    between atoms: C_2  and  S_4
REMARK    4  A    between atoms: S_4  and  N_7
REMARK    5  A    between atoms: N_7  and  C_8
REMARK    6  A    between atoms: C_8  and  C_9
REMARK    7  A    between atoms: C_9  and  C_11
REMARK    8  A    between atoms: C_9  and  N_24
REMARK    9  A    between atoms: C_14  and  C_17
REMARK   10  A    between atoms: C_22  and  O_23
REMARK   11  A    between atoms: C_28  and  C_31
REMARK   12  A    between atoms: C_36  and  O_37
REMARK                            x       y       z     vdW  Elec       q    Type
REMARK                         _______ _______ _______ _____ _____    ______ ____
ROOT
ATOM      1  C   UNL     1      -0.041  -4.510   2.583  0.00  0.00    +0.102 C 
ENDROOT
BRANCH   1   2
ATOM      2  N   UNL     1       0.785  -5.287   1.650  0.00  0.00    -0.297 NA
ATOM      3  C   UNL     1       0.344  -5.087   0.263  0.00  0.00    +0.066 C 
ATOM      4  C   UNL     1       1.265  -5.864  -0.680  0.00  0.00    -0.066 C 
ATOM      5  N   UNL     1       1.224  -7.292  -0.337  0.00  0.00    +0.385 N 
ATOM      6  C   UNL     1       1.691  -7.479   1.043  0.00  0.00    -0.023 C 
ATOM      7  C   UNL     1       0.774  -6.715   2.000  0.00  0.00    +0.074 C 
ATOM      8  H   UNL     1       0.278  -7.631  -0.421  0.00  0.00    -0.085 HD
ATOM      9  H   UNL     1       1.822  -7.806  -0.967  0.00  0.00    -0.085 HD
BRANCH   6  10
ATOM     10  C   UNL     1       1.665  -8.946   1.387  0.00  0.00    -0.019 A 
ATOM     11  C   UNL     1       0.888  -9.817   0.647  0.00  0.00    +0.005 A 
ATOM     12  C   UNL     1       0.864 -11.162   0.963  0.00  0.00    +0.000 A 
ATOM     13  C   UNL     1       1.618 -11.641   2.019  0.00  0.00    +0.004 A 
ATOM     14  C   UNL     1       2.397 -10.775   2.762  0.00  0.00    +0.045 A 
ATOM     15  C   UNL     1       2.426  -9.425   2.444  0.00  0.00    +0.118 A 
BRANCH  15  16
ATOM     16  O   UNL     1       3.196  -8.571   3.169  0.00  0.00    -0.507 OA
ATOM     17  H   UNL     1       2.743  -8.183   3.930  0.00  0.00    +0.292 HD
ENDBRANCH  15  16
ENDBRANCH   6  10
ENDBRANCH   1   2
BRANCH   1  18
ATOM     18  C   UNL     1       0.499  -4.665   3.981  0.00  0.00    -0.029 A 
ATOM     19  C   UNL     1       1.866  -4.667   4.196  0.00  0.00    +0.006 A 
ATOM     20  C   UNL     1       2.366  -4.809   5.475  0.00  0.00    +0.009 A 
ATOM     21  C   UNL     1       1.491  -4.950   6.550  0.00  0.00    -0.014 A 
ATOM     22  C   UNL     1       0.115  -4.947   6.328  0.00  0.00    +0.009 A 
ATOM     23  C   UNL     1      -0.374  -4.799   5.046  0.00  0.00    +0.006 A 
BRANCH  21  24
ATOM     24  C   UNL     1       2.023  -5.104   7.927  0.00  0.00    +0.024 A 
ATOM     25  C   UNL     1       3.015  -6.044   8.192  0.00  0.00    +0.012 A 
ATOM     26  C   UNL     1       3.506  -6.184   9.474  0.00  0.00    +0.001 A 
ATOM     27  C   UNL     1       3.016  -5.392  10.498  0.00  0.00    +0.004 A 
ATOM     28  C   UNL     1       2.031  -4.456  10.246  0.00  0.00    +0.046 A 
ATOM     29  C   UNL     1       1.534  -4.302   8.962  0.00  0.00    +0.125 A 
BRANCH  29  30
ATOM     30  O   UNL     1       0.570  -3.378   8.711  0.00  0.00    -0.506 OA
ATOM     31  H   UNL     1      -0.332  -3.713   8.812  0.00  0.00    +0.292 HD
ENDBRANCH  29  30
ENDBRANCH  21  24
ENDBRANCH   1  18
BRANCH   1  32
ATOM     32  C   UNL     1      -0.008  -3.033   2.184  0.00  0.00    +0.129 C 
BRANCH  32  33
ATOM     33  N   UNL     1      -0.887  -2.268   3.072  0.00  0.00    -0.192 NA
ATOM     34  H   UNL     1      -1.598  -2.716   3.555  0.00  0.00    +0.148 HD
BRANCH  33  35
ATOM     35  S   UNL     1      -0.666  -0.636   3.251  0.00  0.00    +0.032 S 
ATOM     36  O   UNL     1       0.726  -0.483   3.492  0.00  0.00    -0.158 OA
ATOM     37  O   UNL     1      -1.617  -0.247   4.232  0.00  0.00    -0.158 OA
BRANCH  35  39
ATOM     38  C   UNL     1      -0.917   1.591   1.683  0.00  0.00    +0.033 C 
ATOM     39  C   UNL     1      -1.103   0.073   1.640  0.00  0.00    +0.142 C 
ATOM     40  C   UNL     1      -0.198  -0.521   0.559  0.00  0.00    +0.033 C 
ENDBRANCH  35  39
ENDBRANCH  33  35
ENDBRANCH  32  33
ENDBRANCH   1  32
TORSDOF 10
