REMARK  Name = ZINC16012238
REMARK  5 active torsions:
REMARK  status: ('A' for Active; 'I' for Inactive)
REMARK    1  A    between atoms: C_1  and  C_2
REMARK    2  A    between atoms: C_7  and  C_8
REMARK    3  A    between atoms: C_13  and  C_30
REMARK    4  A    between atoms: C_30  and  C_32
REMARK    5  A    between atoms: C_36  and  N_38
REMARK                            x       y       z     vdW  Elec       q    Type
REMARK                         _______ _______ _______ _____ _____    ______ ____
ROOT
ATOM      1  C   UNL     1       0.824  -4.129  -0.340  0.00  0.00    +0.044 C 
ATOM      2  C   UNL     1       0.496  -2.660  -0.257  0.00  0.00    -0.046 A 
ATOM      3  C   UNL     1      -0.822  -2.253  -0.168  0.00  0.00    +0.004 A 
ATOM      4  C   UNL     1      -1.123  -0.904  -0.091  0.00  0.00    +0.005 A 
ATOM      5  C   UNL     1      -0.110   0.028  -0.105  0.00  0.00    -0.027 A 
ATOM      6  C   UNL     1       1.220  -0.369  -0.194  0.00  0.00    +0.039 A 
ATOM      7  C   UNL     1       1.514  -1.729  -0.270  0.00  0.00    -0.026 A 
ATOM      8  C   UNL     1       2.947  -2.184  -0.368  0.00  0.00    +0.046 C 
ATOM      9  N   UNL     1       2.059   0.747  -0.191  0.00  0.00    -0.286 N 
ATOM     10  C   UNL     1       1.370   1.900  -0.104  0.00  0.00    +0.212 C 
ATOM     11  O   UNL     1       1.834   3.020  -0.081  0.00  0.00    -0.277 OA
ATOM     12  C   UNL     1      -0.090   1.532  -0.040  0.00  0.00    +0.052 C 
ATOM     13  C   UNL     1      -0.727   2.033   1.262  0.00  0.00    +0.080 C 
ATOM     14  C   UNL     1      -1.568   3.247   0.853  0.00  0.00    +0.071 C 
ATOM     15  C   UNL     1      -1.144   4.483   1.597  0.00  0.00    -0.012 A 
ATOM     16  C   UNL     1       0.042   5.176   1.681  0.00  0.00    +0.006 A 
ATOM     17  C   UNL     1       0.127   6.309   2.472  0.00  0.00    +0.000 A 
ATOM     18  C   UNL     1      -0.982   6.742   3.175  0.00  0.00    +0.002 A 
ATOM     19  C   UNL     1      -2.173   6.050   3.093  0.00  0.00    +0.023 A 
ATOM     20  C   UNL     1      -2.267   4.910   2.299  0.00  0.00    +0.038 A 
ATOM     21  N   UNL     1      -3.343   4.053   2.057  0.00  0.00    -0.285 N 
ATOM     22  C   UNL     1      -3.016   3.052   1.218  0.00  0.00    +0.227 C 
ATOM     23  O   UNL     1      -3.747   2.165   0.831  0.00  0.00    -0.275 OA
ATOM     24  C   UNL     1      -1.393   3.414  -0.659  0.00  0.00    -0.046 C 
ATOM     25  C   UNL     1      -2.017   1.289  -1.496  0.00  0.00    -0.076 C 
ATOM     26  C   UNL     1      -2.988   2.300  -2.154  0.00  0.00    -0.020 C 
ATOM     27  C   UNL     1      -2.778   3.580  -1.313  0.00  0.00    -0.016 C 
ATOM     28  H   UNL     1       3.026   0.698  -0.246  0.00  0.00    +0.155 HD
ATOM     29  H   UNL     1      -4.224   4.166   2.448  0.00  0.00    +0.155 HD
ATOM     30  N   UNL     1      -0.868   2.146  -1.131  0.00  0.00    +0.395 N 
ATOM     31  H   UNL     1      -0.265   2.291  -1.950  0.00  0.00    -0.079 HD
ENDROOT
BRANCH  13  32
ATOM     32  C   UNL     1      -1.605   0.964   1.859  0.00  0.00    +0.167 C 
ATOM     33  O   UNL     1      -2.563   0.551   1.241  0.00  0.00    -0.292 OA
BRANCH  32  34
ATOM     34  C   UNL     1      -1.301   0.423   3.193  0.00  0.00    +0.020 A 
ATOM     35  C   UNL     1      -0.194   0.893   3.908  0.00  0.00    +0.011 A 
ATOM     36  C   UNL     1       0.082   0.384   5.159  0.00  0.00    +0.003 A 
ATOM     37  C   UNL     1      -0.728  -0.597   5.704  0.00  0.00    +0.033 A 
ATOM     38  C   UNL     1      -1.823  -1.071   5.002  0.00  0.00    +0.127 A 
ATOM     39  C   UNL     1      -2.114  -0.569   3.752  0.00  0.00    +0.044 A 
BRANCH  38  40
ATOM     40  N   UNL     1      -2.682  -2.121   5.595  0.00  0.00    +0.056 N 
ATOM     41  O   UNL     1      -3.645  -2.539   4.978  0.00  0.00    -0.126 OA
ATOM     42  O   UNL     1      -2.425  -2.566   6.699  0.00  0.00    -0.126 OA
ENDBRANCH  38  40
ENDBRANCH  32  34
ENDBRANCH  13  32
TORSDOF 3
