REMARK  Name = ZINC13785708
REMARK  9 active torsions:
REMARK  status: ('A' for Active; 'I' for Inactive)
REMARK    1  A    between atoms: C_3  and  S_26
REMARK    2  A    between atoms: C_6  and  C_7
REMARK    3  A    between atoms: C_10  and  C_12
REMARK    4  A    between atoms: C_13  and  C_14
REMARK    5  A    between atoms: C_13  and  C_16
REMARK    6  A    between atoms: N_18  and  C_19
REMARK    7  A    between atoms: C_19  and  C_20
REMARK    8  A    between atoms: C_20  and  N_54
REMARK    9  A    between atoms: S_26  and  N_29
REMARK                            x       y       z     vdW  Elec       q    Type
REMARK                         _______ _______ _______ _____ _____    ______ ____
ROOT
ATOM      1  C   UNL     1      -3.296   3.147   4.723  0.00  0.00    +0.136 A 
ATOM      2  C   UNL     1      -3.084   4.303   5.443  0.00  0.00    +0.050 A 
ATOM      3  C   UNL     1      -3.938   4.261   6.545  0.00  0.00    +0.050 A 
ATOM      4  C   UNL     1      -4.646   3.071   6.457  0.00  0.00    +0.130 A 
ATOM      5  O   UNL     1      -4.242   2.421   5.344  0.00  0.00    -0.455 OA
ENDROOT
BRANCH   1  11
ATOM      6  C   UNL     1      -2.855   1.532   2.879  0.00  0.00    +0.013 A 
ATOM      7  C   UNL     1      -2.205   1.188   1.712  0.00  0.00    +0.029 A 
ATOM      8  C   UNL     1      -1.306   2.066   1.132  0.00  0.00    +0.105 A 
ATOM      9  C   UNL     1      -1.050   3.292   1.719  0.00  0.00    +0.029 A 
ATOM     10  C   UNL     1      -1.696   3.652   2.882  0.00  0.00    +0.013 A 
ATOM     11  C   UNL     1      -2.605   2.771   3.474  0.00  0.00    +0.017 A 
BRANCH   8  12
ATOM     12  S   UNL     1      -0.481   1.617  -0.359  0.00  0.00    +0.056 S 
ATOM     13  O   UNL     1      -0.479   0.197  -0.410  0.00  0.00    -0.153 OA
ATOM     14  O   UNL     1       0.716   2.383  -0.407  0.00  0.00    -0.153 OA
BRANCH  12  15
ATOM     15  N   UNL     1      -1.425   2.135  -1.617  0.00  0.00    -0.204 NA
ATOM     16  H   UNL     1      -1.770   1.496  -2.259  0.00  0.00    +0.144 HD
ATOM     17  H   UNL     1      -1.633   3.078  -1.711  0.00  0.00    +0.144 HD
ENDBRANCH  12  15
ENDBRANCH   8  12
ENDBRANCH   1  11
BRANCH   4  18
ATOM     18  C   UNL     1      -5.620   2.623   7.364  0.00  0.00    +0.070 C 
ATOM     19  C   UNL     1      -6.160   1.352   7.231  0.00  0.00    +0.117 C 
BRANCH  19  20
ATOM     20  C   UNL     1      -5.607   0.419   6.242  0.00  0.00    +0.254 C 
ATOM     21  O   UNL     1      -6.199   0.217   5.198  0.00  0.00    -0.269 OA
ATOM     22  N   UNL     1      -4.443  -0.214   6.490  0.00  0.00    -0.313 N 
ATOM     23  H   UNL     1      -4.008  -0.111   7.351  0.00  0.00    +0.149 HD
BRANCH  22  24
ATOM     24  C   UNL     1      -3.833  -1.057   5.458  0.00  0.00    +0.086 C 
BRANCH  24  25
ATOM     25  C   UNL     1      -2.597  -1.752   6.033  0.00  0.00    -0.060 C 
BRANCH  25  31
ATOM     26  C   UNL     1      -2.877  -3.706   4.631  0.00  0.00    -0.079 C 
ATOM     27  C   UNL     1      -2.275  -4.478   3.455  0.00  0.00    -0.019 C 
ATOM     28  C   UNL     1      -0.898  -5.016   3.855  0.00  0.00    -0.004 C 
ATOM     29  C   UNL     1      -0.005  -3.847   4.280  0.00  0.00    -0.019 C 
ATOM     30  C   UNL     1      -0.674  -3.094   5.432  0.00  0.00    -0.079 C 
ATOM     31  N   UNL     1      -1.983  -2.580   4.975  0.00  0.00    +0.381 N 
ATOM     32  H   UNL     1      -1.840  -2.002   4.139  0.00  0.00    -0.082 HD
ENDBRANCH  25  31
ENDBRANCH  24  25
ENDBRANCH  22  24
ENDBRANCH  19  20
BRANCH  19  33
ATOM     33  C   UNL     1      -7.258   0.950   8.058  0.00  0.00    +0.104 C 
ATOM     34  N   UNL     1      -8.129   0.631   8.714  0.00  0.00    -0.191 NA
ENDBRANCH  19  33
ENDBRANCH   4  18
TORSDOF 9
