REMARK  Name = ZINC37818322
REMARK  4 active torsions:
REMARK  status: ('A' for Active; 'I' for Inactive)
REMARK    1  A    between atoms: C_13  and  C_15
REMARK    2  A    between atoms: C_15  and  N_16
REMARK    3  A    between atoms: C_17  and  C_19
REMARK    4  A    between atoms: C_19  and  N_20
REMARK                            x       y       z     vdW  Elec       q    Type
REMARK                         _______ _______ _______ _____ _____    ______ ____
ROOT
ATOM      1  C   UNL     1      -0.019   1.521   0.010  0.00  0.00    +0.054 C 
ATOM      2  C   UNL     1       1.420   2.049  -0.001  0.00  0.00    +0.110 C 
ATOM      3  N   UNL     1       2.135   1.446  -1.134  0.00  0.00    -0.300 N 
ATOM      4  C   UNL     1       2.152  -0.017  -1.265  0.00  0.00    +0.110 C 
ATOM      5  C   UNL     1       0.708  -0.529  -1.244  0.00  0.00    +0.054 C 
ATOM      6  C   UNL     1       0.002  -0.004   0.002  0.00  0.00    +0.115 C 
ATOM      7  C   UNL     1      -1.405  -0.551   0.082  0.00  0.00    +0.244 C 
ATOM      8  O   UNL     1      -2.304  -0.382  -0.714  0.00  0.00    -0.273 OA
ATOM      9  N   UNL     1      -1.449  -1.266   1.225  0.00  0.00    -0.238 N 
ATOM     10  C   UNL     1      -0.274  -1.243   1.867  0.00  0.00    +0.307 C 
ATOM     11  O   UNL     1      -0.068  -1.813   2.920  0.00  0.00    -0.252 OA
ATOM     12  N   UNL     1       0.653  -0.516   1.215  0.00  0.00    -0.285 N 
ATOM     13  C   UNL     1       2.764   2.223  -2.038  0.00  0.00    +0.233 C 
ATOM     14  O   UNL     1       2.744   3.430  -1.921  0.00  0.00    -0.274 OA
ATOM     15  H   UNL     1      -2.234  -1.738   1.543  0.00  0.00    +0.159 HD
ATOM     16  H   UNL     1       1.570  -0.361   1.491  0.00  0.00    +0.151 HD
ENDROOT
BRANCH  13  17
ATOM     17  C   UNL     1       3.494   1.591  -3.196  0.00  0.00    +0.200 C 
BRANCH  17  18
ATOM     18  N   UNL     1       4.089   2.639  -4.029  0.00  0.00    -0.308 N 
ATOM     19  C   UNL     1       4.794   2.307  -5.128  0.00  0.00    +0.196 C 
ATOM     20  O   UNL     1       4.936   1.141  -5.428  0.00  0.00    -0.278 OA
ATOM     21  H   UNL     1       3.975   3.572  -3.789  0.00  0.00    +0.149 HD
BRANCH  19  22
ATOM     22  C   UNL     1       5.406   3.385  -5.985  0.00  0.00    +0.011 C 
BRANCH  22  23
ATOM     23  N   UNL     1       6.117   2.770  -7.114  0.00  0.00    +0.384 N 
ATOM     24  H   UNL     1       6.845   2.165  -6.763  0.00  0.00    -0.089 HD
ATOM     25  H   UNL     1       5.468   2.229  -7.666  0.00  0.00    -0.089 HD
ATOM     26  H   UNL     1       6.527   3.492  -7.687  0.00  0.00    -0.089 HD
ENDBRANCH  22  23
ENDBRANCH  19  22
ENDBRANCH  17  18
ENDBRANCH  13  17
TORSDOF 4
