REMARK  Name = ZINC27278785
REMARK  8 active torsions:
REMARK  status: ('A' for Active; 'I' for Inactive)
REMARK    1  A    between atoms: C_1  and  C_2
REMARK    2  A    between atoms: C_2  and  C_4
REMARK    3  A    between atoms: C_2  and  N_11
REMARK    4  A    between atoms: N_9  and  C_10
REMARK    5  A    between atoms: N_14  and  C_17
REMARK    6  A    between atoms: C_17  and  C_18
REMARK    7  A    between atoms: C_18  and  N_19
REMARK    8  A    between atoms: C_20  and  C_22
REMARK                            x       y       z     vdW  Elec       q    Type
REMARK                         _______ _______ _______ _____ _____    ______ ____
ROOT
ATOM      1  N   UNL     1       0.690  -0.478  -1.207  0.00  0.00    -0.295 NA
ATOM      2  C   UNL     1       2.065   0.038  -1.267  0.00  0.00    +0.066 C 
ATOM      3  C   UNL     1       2.764  -0.525  -2.506  0.00  0.00    -0.063 C 
ATOM      4  N   UNL     1       2.021  -0.129  -3.710  0.00  0.00    +0.382 N 
ATOM      5  C   UNL     1       0.658  -0.672  -3.647  0.00  0.00    -0.063 C 
ATOM      6  C   UNL     1      -0.059  -0.110  -2.417  0.00  0.00    +0.066 C 
ATOM      7  H   UNL     1       1.980   0.877  -3.763  0.00  0.00    -0.082 HD
ENDROOT
BRANCH   1   9
ATOM      8  C   UNL     1      -0.019   1.526   0.010  0.00  0.00    +0.034 C 
ATOM      9  C   UNL     1       0.002  -0.004   0.002  0.00  0.00    +0.140 C 
BRANCH   9  10
ATOM     10  C   UNL     1       0.731  -0.503   1.223  0.00  0.00    +0.237 C 
ATOM     11  O   UNL     1       1.725  -1.186   1.099  0.00  0.00    -0.274 OA
ATOM     12  N   UNL     1       0.278  -0.191   2.453  0.00  0.00    -0.239 N 
ATOM     13  C   UNL     1       0.930  -0.637   3.545  0.00  0.00    +0.306 C 
ATOM     14  O   UNL     1       1.926  -1.322   3.420  0.00  0.00    -0.252 OA
ATOM     15  N   UNL     1       0.476  -0.324   4.775  0.00  0.00    -0.302 N 
ATOM     16  C   UNL     1       1.185  -0.810   5.962  0.00  0.00    +0.129 C 
ATOM     17  H   UNL     1      -0.517   0.356   2.553  0.00  0.00    +0.159 HD
ATOM     18  H   UNL     1      -0.319   0.222   4.875  0.00  0.00    +0.150 HD
ENDBRANCH   9  10
ENDBRANCH   1   9
BRANCH   4  19
ATOM     19  C   UNL     1       2.703  -0.655  -4.900  0.00  0.00    -0.060 C 
BRANCH  19  20
ATOM     20  C   UNL     1       2.001  -0.139  -6.159  0.00  0.00    +0.086 C 
BRANCH  20  21
ATOM     21  N   UNL     1       2.681  -0.663  -7.346  0.00  0.00    -0.311 N 
ATOM     22  C   UNL     1       2.234  -0.340  -8.576  0.00  0.00    +0.279 C 
ATOM     23  O   UNL     1       1.267   0.388  -8.700  0.00  0.00    -0.267 OA
ATOM     24  H   UNL     1       3.452  -1.243  -7.247  0.00  0.00    +0.149 HD
BRANCH  22  25
ATOM     25  C   UNL     1       2.915  -0.864  -9.764  0.00  0.00    +0.189 A 
ATOM     26  C   UNL     1       2.572  -0.612 -11.062  0.00  0.00    +0.054 A 
ATOM     27  C   UNL     1       3.487  -1.312 -11.864  0.00  0.00    +0.042 A 
ATOM     28  C   UNL     1       4.337  -1.952 -11.032  0.00  0.00    +0.196 A 
ATOM     29  O   UNL     1       3.993  -1.676  -9.767  0.00  0.00    -0.458 OA
ENDBRANCH  22  25
ENDBRANCH  20  21
ENDBRANCH  19  20
ENDBRANCH   4  19
TORSDOF 6
