REMARK  Name = ZINC39531045
REMARK  11 active torsions:
REMARK  status: ('A' for Active; 'I' for Inactive)
REMARK    1  A    between atoms: C_1  and  C_2
REMARK    2  A    between atoms: C_2  and  O_3
REMARK    3  A    between atoms: O_3  and  N_4
REMARK    4  A    between atoms: N_4  and  C_5
REMARK    5  A    between atoms: C_5  and  C_6
REMARK    6  A    between atoms: C_6  and  C_8
REMARK    7  A    between atoms: C_6  and  N_21
REMARK    8  A    between atoms: C_11  and  C_14
REMARK    9  A    between atoms: C_14  and  C_15
REMARK   10  A    between atoms: C_25  and  C_28
REMARK   11  A    between atoms: C_33  and  O_34
REMARK                            x       y       z     vdW  Elec       q    Type
REMARK                         _______ _______ _______ _____ _____    ______ ____
ROOT
ATOM      1  C   UNL     1       1.555  -3.877   2.523  0.00  0.00    +0.103 C 
ENDROOT
BRANCH   1   2
ATOM      2  N   UNL     1       2.196  -4.207   1.243  0.00  0.00    -0.297 NA
ATOM      3  C   UNL     1       3.162  -3.170   0.854  0.00  0.00    +0.066 C 
ATOM      4  C   UNL     1       3.849  -3.581  -0.450  0.00  0.00    -0.066 C 
ATOM      5  N   UNL     1       2.839  -3.753  -1.503  0.00  0.00    +0.385 N 
ATOM      6  C   UNL     1       1.896  -4.809  -1.111  0.00  0.00    -0.023 C 
ATOM      7  C   UNL     1       1.193  -4.409   0.188  0.00  0.00    +0.074 C 
ATOM      8  H   UNL     1       2.338  -2.887  -1.633  0.00  0.00    -0.085 HD
ATOM      9  H   UNL     1       3.293  -4.011  -2.366  0.00  0.00    -0.085 HD
BRANCH   6  10
ATOM     10  C   UNL     1       0.871  -4.997  -2.200  0.00  0.00    -0.019 A 
ATOM     11  C   UNL     1       0.660  -3.998  -3.131  0.00  0.00    +0.005 A 
ATOM     12  C   UNL     1      -0.280  -4.169  -4.129  0.00  0.00    +0.000 A 
ATOM     13  C   UNL     1      -1.011  -5.341  -4.200  0.00  0.00    +0.004 A 
ATOM     14  C   UNL     1      -0.804  -6.343  -3.272  0.00  0.00    +0.045 A 
ATOM     15  C   UNL     1       0.143  -6.175  -2.272  0.00  0.00    +0.118 A 
BRANCH  15  16
ATOM     16  O   UNL     1       0.353  -7.162  -1.361  0.00  0.00    -0.507 OA
ATOM     17  H   UNL     1      -0.206  -7.096  -0.575  0.00  0.00    +0.292 HD
ENDBRANCH  15  16
ENDBRANCH   6  10
ENDBRANCH   1   2
BRANCH   1  18
ATOM     18  C   UNL     1       2.333  -4.502   3.651  0.00  0.00    -0.029 A 
ATOM     19  C   UNL     1       3.709  -4.604   3.568  0.00  0.00    +0.005 A 
ATOM     20  C   UNL     1       4.424  -5.178   4.603  0.00  0.00    +0.004 A 
ATOM     21  C   UNL     1       3.762  -5.649   5.722  0.00  0.00    -0.043 A 
ATOM     22  C   UNL     1       2.386  -5.546   5.805  0.00  0.00    +0.004 A 
ATOM     23  C   UNL     1       1.672  -4.968   4.772  0.00  0.00    +0.005 A 
BRANCH  21  24
ATOM     24  C   UNL     1       4.541  -6.275   6.850  0.00  0.00    +0.070 C 
BRANCH  24  25
ATOM     25  C   UNL     1       4.933  -5.210   7.841  0.00  0.00    -0.043 A 
ATOM     26  C   UNL     1       6.129  -4.534   7.692  0.00  0.00    +0.004 A 
ATOM     27  C   UNL     1       6.489  -3.557   8.601  0.00  0.00    +0.000 A 
ATOM     28  C   UNL     1       5.653  -3.256   9.660  0.00  0.00    +0.000 A 
ATOM     29  C   UNL     1       4.456  -3.932   9.809  0.00  0.00    +0.000 A 
ATOM     30  C   UNL     1       4.094  -4.906   8.897  0.00  0.00    +0.004 A 
ENDBRANCH  24  25
ENDBRANCH  21  24
ENDBRANCH   1  18
BRANCH   1  31
ATOM     31  C   UNL     1       1.528  -2.357   2.702  0.00  0.00    +0.134 C 
BRANCH  31  32
ATOM     32  N   UNL     1       0.798  -1.745   1.584  0.00  0.00    -0.199 NA
ATOM     33  H   UNL     1      -0.131  -2.130   1.504  0.00  0.00    +0.154 HD
BRANCH  32  34
ATOM     34  O   UNL     1       0.752  -0.289   1.722  0.00  0.00    -0.300 OA
BRANCH  34  36
ATOM     35  C   UNL     1       0.070   1.883   0.912  0.00  0.00    +0.036 C 
ATOM     36  C   UNL     1       0.055   0.373   0.665  0.00  0.00    +0.182 C 
ENDBRANCH  34  36
ENDBRANCH  32  34
ENDBRANCH  31  32
ENDBRANCH   1  31
TORSDOF 10
