REMARK  Name = ZINC63142009
REMARK  10 active torsions:
REMARK  status: ('A' for Active; 'I' for Inactive)
REMARK    1  A    between atoms: C_1  and  C_2
REMARK    2  A    between atoms: C_2  and  O_3
REMARK    3  A    between atoms: O_3  and  C_4
REMARK    4  A    between atoms: C_7  and  C_12
REMARK    5  A    between atoms: C_9  and  O_10
REMARK    6  A    between atoms: O_10  and  C_11
REMARK    7  A    between atoms: N_31  and  C_34
REMARK    8  A    between atoms: C_34  and  C_35
REMARK    9  A    between atoms: C_35  and  C_37
REMARK   10  A    between atoms: C_35  and  O_43
REMARK                            x       y       z     vdW  Elec       q    Type
REMARK                         _______ _______ _______ _____ _____    ______ ____
ROOT
ATOM      1  C   UNL     1       1.107  -6.044  -1.844  0.00  0.00    +0.134 C 
ATOM      2  C   UNL     1      -0.203  -6.580  -2.420  0.00  0.00    +0.131 C 
ATOM      3  C   UNL     1      -0.153  -8.095  -2.234  0.00  0.00    -0.034 C 
ATOM      4  C   UNL     1      -0.214  -8.630  -3.445  0.00  0.00    -0.001 A 
ATOM      5  C   UNL     1      -0.232 -10.031  -3.897  0.00  0.00    +0.010 A 
ATOM      6  C   UNL     1      -0.297 -10.228  -5.240  0.00  0.00    +0.001 A 
ATOM      7  C   UNL     1      -0.344  -9.183  -6.169  0.00  0.00    +0.002 A 
ATOM      8  C   UNL     1      -0.333  -7.866  -5.843  0.00  0.00    +0.026 A 
ATOM      9  C   UNL     1      -0.268  -7.533  -4.458  0.00  0.00    +0.043 A 
ATOM     10  N   UNL     1      -0.258  -6.353  -3.870  0.00  0.00    -0.375 N 
ATOM     11  C   UNL     1      -0.026  -8.708  -0.867  0.00  0.00    +0.065 C 
ATOM     12  C   UNL     1       0.955  -7.918  -0.041  0.00  0.00    +0.167 C 
ATOM     13  N   UNL     1       1.423  -6.651  -0.558  0.00  0.00    -0.279 N 
ATOM     14  C   UNL     1       2.306  -5.976   0.249  0.00  0.00    +0.234 C 
ATOM     15  O   UNL     1       2.718  -4.873  -0.043  0.00  0.00    -0.274 OA
ATOM     16  C   UNL     1       2.740  -6.673   1.521  0.00  0.00    +0.203 C 
ATOM     17  N   UNL     1       3.037  -8.082   1.204  0.00  0.00    -0.288 N 
ATOM     18  C   UNL     1       2.131  -8.740   0.425  0.00  0.00    +0.237 C 
ATOM     19  O   UNL     1       2.258  -9.910   0.131  0.00  0.00    -0.274 OA
ATOM     20  H   UNL     1      -0.280  -5.487  -4.306  0.00  0.00    +0.160 HD
ENDROOT
BRANCH   1  24
ATOM     21  C   UNL     1       0.777  -1.811  -1.336  0.00  0.00    +0.162 A 
ATOM     22  C   UNL     1       0.243  -2.669  -0.388  0.00  0.00    +0.050 A 
ATOM     23  C   UNL     1       0.352  -4.037  -0.555  0.00  0.00    +0.009 A 
ATOM     24  C   UNL     1       0.992  -4.552  -1.667  0.00  0.00    -0.021 A 
ATOM     25  C   UNL     1       1.526  -3.702  -2.616  0.00  0.00    +0.055 A 
ATOM     26  C   UNL     1       1.416  -2.330  -2.458  0.00  0.00    +0.162 A 
BRANCH  26  27
ATOM     27  O   UNL     1       1.936  -1.492  -3.394  0.00  0.00    -0.491 OA
ATOM     28  C   UNL     1       2.578  -2.095  -4.520  0.00  0.00    +0.277 C 
ENDBRANCH  26  27
BRANCH  21  29
ATOM     29  O   UNL     1       0.671  -0.465  -1.174  0.00  0.00    -0.489 OA
BRANCH  29  31
ATOM     30  C   UNL     1      -0.019   1.526   0.010  0.00  0.00    +0.048 C 
ATOM     31  C   UNL     1       0.002  -0.004   0.002  0.00  0.00    +0.226 C 
ENDBRANCH  29  31
ENDBRANCH  21  29
ENDBRANCH   1  24
BRANCH  17  32
ATOM     32  C   UNL     1       4.248  -8.742   1.698  0.00  0.00    +0.144 C 
BRANCH  32  33
ATOM     33  C   UNL     1       3.959  -9.389   3.054  0.00  0.00    +0.162 C 
BRANCH  33  34
ATOM     34  C   UNL     1       5.205 -10.068   3.562  0.00  0.00    -0.018 A 
ATOM     35  C   UNL     1       6.150  -9.344   4.263  0.00  0.00    +0.006 A 
ATOM     36  C   UNL     1       7.293  -9.967   4.729  0.00  0.00    +0.000 A 
ATOM     37  C   UNL     1       7.490 -11.315   4.494  0.00  0.00    +0.000 A 
ATOM     38  C   UNL     1       6.544 -12.040   3.793  0.00  0.00    +0.000 A 
ATOM     39  C   UNL     1       5.399 -11.417   3.331  0.00  0.00    +0.006 A 
ENDBRANCH  33  34
BRANCH  33  40
ATOM     40  O   UNL     1       3.552  -8.383   3.984  0.00  0.00    -0.386 OA
ATOM     41  H   UNL     1       4.214  -7.693   4.132  0.00  0.00    +0.210 HD
ENDBRANCH  33  40
ENDBRANCH  32  33
ENDBRANCH  17  32
TORSDOF 8
