REMARK  Name = ZINC39655962
REMARK  7 active torsions:
REMARK  status: ('A' for Active; 'I' for Inactive)
REMARK    1  A    between atoms: C_1  and  C_2
REMARK    2  A    between atoms: C_8  and  C_11
REMARK    3  A    between atoms: C_11  and  C_12
REMARK    4  A    between atoms: C_12  and  N_13
REMARK    5  A    between atoms: C_14  and  C_16
REMARK    6  A    between atoms: C_27  and  C_29
REMARK    7  A    between atoms: C_29  and  C_35
REMARK                            x       y       z     vdW  Elec       q    Type
REMARK                         _______ _______ _______ _____ _____    ______ ____
ROOT
ATOM      1  C   UNL     1       5.156   0.149  -7.608  0.00  0.00    +0.100 C 
ATOM      2  C   UNL     1       5.936   0.492  -6.319  0.00  0.00    +0.121 C 
ATOM      3  N   UNL     1       6.345  -0.822  -5.768  0.00  0.00    -0.300 N 
ATOM      4  C   UNL     1       6.720  -1.620  -6.959  0.00  0.00    +0.115 C 
ATOM      5  C   UNL     1       5.676  -1.237  -8.027  0.00  0.00    -0.004 C 
ATOM      6  C   UNL     1       6.331  -1.161  -9.403  0.00  0.00    -0.010 C 
ATOM      7  C   UNL     1       6.788  -2.561  -9.823  0.00  0.00    -0.082 C 
ATOM      8  N   UNL     1       5.632  -3.465  -9.858  0.00  0.00    +0.379 N 
ATOM      9  C   UNL     1       5.064  -3.604  -8.512  0.00  0.00    -0.082 C 
ATOM     10  C   UNL     1       4.535  -2.249  -8.036  0.00  0.00    -0.010 C 
ATOM     11  C   UNL     1       6.372  -1.203  -4.476  0.00  0.00    +0.222 C 
ATOM     12  O   UNL     1       5.958  -0.457  -3.614  0.00  0.00    -0.275 OA
ATOM     13  H   UNL     1       4.931  -3.089 -10.480  0.00  0.00    -0.086 HD
ATOM     14  H   UNL     1       5.925  -4.370 -10.194  0.00  0.00    -0.086 HD
ENDROOT
BRANCH  11  15
ATOM     15  C   UNL     1       6.915  -2.558  -4.101  0.00  0.00    +0.044 C 
ATOM     16  C   UNL     1       5.994  -3.648  -4.654  0.00  0.00    +0.016 C 
ATOM     17  C   UNL     1       4.593  -3.479  -4.063  0.00  0.00    +0.001 C 
ATOM     18  C   UNL     1       4.665  -3.596  -2.539  0.00  0.00    +0.000 C 
ATOM     19  C   UNL     1       5.586  -2.507  -1.986  0.00  0.00    +0.001 C 
ATOM     20  C   UNL     1       6.987  -2.676  -2.577  0.00  0.00    +0.016 C 
ATOM     21  C   UNL     1       8.316  -2.727  -4.692  0.00  0.00    +0.021 C 
ENDBRANCH  11  15
BRANCH   1  23
ATOM     22  N   UNL     1       2.793   0.395  -8.297  0.00  0.00    -0.315 N 
ATOM     23  C   UNL     1       3.677   0.091  -7.326  0.00  0.00    +0.218 C 
ATOM     24  O   UNL     1       3.281  -0.230  -6.225  0.00  0.00    -0.275 OA
ATOM     25  H   UNL     1       3.110   0.651  -9.178  0.00  0.00    +0.149 HD
BRANCH  22  26
ATOM     26  C   UNL     1       1.355   0.338  -8.024  0.00  0.00    +0.109 C 
BRANCH  26  27
ATOM     27  C   UNL     1       0.581   0.727  -9.284  0.00  0.00    +0.056 C 
BRANCH  27  35
ATOM     28  C   UNL     1      -2.161   5.174  -6.936  0.00  0.00    +0.044 C 
ATOM     29  C   UNL     1      -2.454   3.783  -7.434  0.00  0.00    -0.050 A 
ATOM     30  C   UNL     1      -3.748   3.286  -7.366  0.00  0.00    +0.005 A 
ATOM     31  C   UNL     1      -4.038   2.016  -7.815  0.00  0.00    +0.026 A 
ATOM     32  C   UNL     1      -3.025   1.222  -8.342  0.00  0.00    +0.047 A 
ATOM     33  N   UNL     1      -2.993  -0.054  -8.860  0.00  0.00    -0.360 N 
ATOM     34  C   UNL     1      -1.718  -0.366  -9.248  0.00  0.00    +0.087 A 
ATOM     35  C   UNL     1      -0.899   0.669  -9.003  0.00  0.00    -0.021 A 
ATOM     36  C   UNL     1      -1.715   1.730  -8.409  0.00  0.00    +0.003 A 
ATOM     37  C   UNL     1      -1.445   3.022  -7.953  0.00  0.00    +0.013 A 
ATOM     38  H   UNL     1      -3.759  -0.643  -8.937  0.00  0.00    +0.165 HD
ENDBRANCH  27  35
ENDBRANCH  26  27
ENDBRANCH  22  26
ENDBRANCH   1  23
TORSDOF 5
