REMARK  Name = ZINC13400734
REMARK  8 active torsions:
REMARK  status: ('A' for Active; 'I' for Inactive)
REMARK    1  A    between atoms: C_1  and  C_2
REMARK    2  A    between atoms: C_2  and  C_4
REMARK    3  A    between atoms: C_2  and  S_22
REMARK    4  A    between atoms: N_9  and  S_12
REMARK    5  A    between atoms: S_12  and  C_15
REMARK    6  A    between atoms: C_17  and  C_20
REMARK    7  A    between atoms: S_22  and  C_23
REMARK    8  A    between atoms: C_26  and  N_29
REMARK                            x       y       z     vdW  Elec       q    Type
REMARK                         _______ _______ _______ _____ _____    ______ ____
ROOT
ATOM      1  C   UNL     1      -0.095   0.961   2.522  0.00  0.00    +0.229 C 
ATOM      2  O   UNL     1      -0.565  -0.039   3.021  0.00  0.00    -0.274 OA
ATOM      3  N   UNL     1       0.989   1.543   3.072  0.00  0.00    -0.298 N 
ATOM      4  C   UNL     1       1.574   2.752   2.475  0.00  0.00    +0.125 C 
ATOM      5  C   UNL     1       1.637   3.845   3.555  0.00  0.00    +0.128 C 
ATOM      6  N   UNL     1       2.259   3.278   4.760  0.00  0.00    -0.173 NA
ATOM      7  C   UNL     1       1.678   2.066   5.354  0.00  0.00    +0.128 C 
ATOM      8  C   UNL     1       1.612   0.976   4.277  0.00  0.00    +0.125 C 
ENDROOT
BRANCH   6   9
ATOM      9  S   UNL     1       3.592   3.992   5.435  0.00  0.00    +0.067 S 
ATOM     10  O   UNL     1       3.572   5.354   5.032  0.00  0.00    -0.152 OA
ATOM     11  O   UNL     1       3.613   3.602   6.802  0.00  0.00    -0.152 OA
BRANCH   9  12
ATOM     12  C   UNL     1       5.010   3.265   4.683  0.00  0.00    +0.143 A 
ATOM     13  C   UNL     1       5.663   3.658   3.572  0.00  0.00    +0.051 A 
ATOM     14  C   UNL     1       6.808   2.877   3.174  0.00  0.00    +0.072 A 
ATOM     15  C   UNL     1       7.129   1.789   3.959  0.00  0.00    +0.062 A 
ATOM     16  S   UNL     1       5.924   1.826   5.202  0.00  0.00    -0.076 S 
BRANCH  14  17
ATOM     17  C   UNL     1       7.595   3.223   1.980  0.00  0.00    +0.387 C 
ATOM     18  O   UNL     1       7.288   4.188   1.308  0.00  0.00    -0.241 OA
ATOM     19  O   UNL     1       8.657   2.469   1.632  0.00  0.00    -0.241 OA
ENDBRANCH  14  17
ENDBRANCH   9  12
ENDBRANCH   6   9
BRANCH   1  21
ATOM     20  C   UNL     1       0.005   1.034   0.045  0.00  0.00    +0.029 C 
ATOM     21  C   UNL     1      -0.723   1.554   1.287  0.00  0.00    +0.134 C 
BRANCH  21  22
ATOM     22  S   UNL     1      -2.471   1.076   1.208  0.00  0.00    -0.113 S 
BRANCH  22  23
ATOM     23  C   UNL     1      -3.213   1.952   2.544  0.00  0.00    +0.009 A 
ATOM     24  C   UNL     1      -2.466   2.866   3.279  0.00  0.00    +0.017 A 
ATOM     25  C   UNL     1      -3.053   3.555   4.322  0.00  0.00    +0.034 A 
ATOM     26  C   UNL     1      -4.379   3.329   4.643  0.00  0.00    +0.126 A 
ATOM     27  C   UNL     1      -5.123   2.416   3.918  0.00  0.00    +0.034 A 
ATOM     28  C   UNL     1      -4.545   1.728   2.870  0.00  0.00    +0.017 A 
BRANCH  26  29
ATOM     29  N   UNL     1      -5.002   4.066   5.765  0.00  0.00    +0.056 N 
ATOM     30  O   UNL     1      -6.170   3.867   6.049  0.00  0.00    -0.126 OA
ATOM     31  O   UNL     1      -4.348   4.870   6.404  0.00  0.00    -0.126 OA
ENDBRANCH  26  29
ENDBRANCH  22  23
ENDBRANCH  21  22
ENDBRANCH   1  21
TORSDOF 7
