REMARK  Name = ZINC08737940
REMARK  3 active torsions:
REMARK  status: ('A' for Active; 'I' for Inactive)
REMARK    1  A    between atoms: C_12  and  C_30
REMARK    2  A    between atoms: N_20  and  C_23
REMARK    3  A    between atoms: C_30  and  C_32
REMARK                            x       y       z     vdW  Elec       q    Type
REMARK                         _______ _______ _______ _____ _____    ______ ____
ROOT
ATOM      1  C   UNL     1      -0.017   1.378   0.010  0.00  0.00    +0.001 A 
ATOM      2  C   UNL     1       1.162   2.104   0.002  0.00  0.00    +0.002 A 
ATOM      3  C   UNL     1       2.386   1.452  -0.004  0.00  0.00    +0.024 A 
ATOM      4  C   UNL     1       2.418   0.083  -0.006  0.00  0.00    +0.038 A 
ATOM      5  C   UNL     1       1.217  -0.672  -0.015  0.00  0.00    -0.004 A 
ATOM      6  C   UNL     1       0.002  -0.004   0.002  0.00  0.00    +0.010 A 
ATOM      7  C   UNL     1       1.323  -2.144  -0.067  0.00  0.00    +0.007 C 
ATOM      8  C   UNL     1       2.422  -2.776   0.368  0.00  0.00    -0.003 C 
ATOM      9  C   UNL     1       3.534  -1.914   0.944  0.00  0.00    +0.110 C 
ATOM     10  N   UNL     1       3.549  -0.718   0.013  0.00  0.00    -0.311 N 
ATOM     11  C   UNL     1       4.735  -0.757  -0.838  0.00  0.00    +0.161 C 
ATOM     12  C   UNL     1       5.328  -2.140  -0.668  0.00  0.00    +0.118 C 
ATOM     13  C   UNL     1       4.891  -2.452   0.826  0.00  0.00    +0.114 C 
ATOM     14  C   UNL     1       5.681  -3.616   1.158  0.00  0.00    +0.232 C 
ATOM     15  O   UNL     1       5.372  -4.540   1.878  0.00  0.00    -0.274 OA
ATOM     16  N   UNL     1       6.861  -3.441   0.474  0.00  0.00    -0.210 N 
ATOM     17  C   UNL     1       6.794  -2.375  -0.484  0.00  0.00    +0.232 C 
ATOM     18  O   UNL     1       7.708  -1.779  -1.012  0.00  0.00    -0.274 OA
ENDROOT
BRANCH  16  19
ATOM     19  C   UNL     1       8.002  -4.231   0.677  0.00  0.00    +0.044 A 
ATOM     20  C   UNL     1       9.158  -3.984  -0.051  0.00  0.00    +0.025 A 
ATOM     21  C   UNL     1      10.280  -4.763   0.151  0.00  0.00    +0.022 A 
ATOM     22  C   UNL     1      10.253  -5.789   1.078  0.00  0.00    +0.041 A 
ATOM     23  C   UNL     1       9.102  -6.038   1.806  0.00  0.00    +0.022 A 
ATOM     24  C   UNL     1       7.979  -5.257   1.612  0.00  0.00    +0.025 A 
ATOM     25 CL   UNL     1      11.665  -6.767   1.330  0.00  0.00    -0.084 Cl
ENDBRANCH  16  19
BRANCH  11  26
ATOM     26  C   UNL     1       4.348  -0.530  -2.276  0.00  0.00    +0.219 C 
ATOM     27  O   UNL     1       3.182  -0.596  -2.610  0.00  0.00    -0.287 OA
BRANCH  26  28
ATOM     28  C   UNL     1       5.343  -0.241  -3.238  0.00  0.00    +0.172 A 
ATOM     29  C   UNL     1       5.131  -0.007  -4.582  0.00  0.00    +0.053 A 
ATOM     30  C   UNL     1       6.391   0.235  -5.147  0.00  0.00    +0.042 A 
ATOM     31  C   UNL     1       7.301   0.142  -4.151  0.00  0.00    +0.196 A 
ATOM     32  O   UNL     1       6.669  -0.138  -3.005  0.00  0.00    -0.460 OA
ENDBRANCH  26  28
ENDBRANCH  11  26
TORSDOF 3
