REMARK  Name = ZINC33521146
REMARK  10 active torsions:
REMARK  status: ('A' for Active; 'I' for Inactive)
REMARK    1  A    between atoms: C_1  and  O_2
REMARK    2  A    between atoms: O_2  and  C_3
REMARK    3  A    between atoms: C_3  and  C_5
REMARK    4  A    between atoms: C_9  and  N_10
REMARK    5  A    between atoms: C_11  and  C_13
REMARK    6  A    between atoms: C_13  and  C_14
REMARK    7  A    between atoms: C_14  and  N_15
REMARK    8  A    between atoms: C_18  and  C_20
REMARK    9  A    between atoms: C_20  and  O_22
REMARK   10  A    between atoms: O_22  and  C_23
REMARK                            x       y       z     vdW  Elec       q    Type
REMARK                         _______ _______ _______ _____ _____    ______ ____
ROOT
ATOM      1  C   UNL     1      -2.025   1.773  -1.780  0.00  0.00    +0.092 A 
ATOM      2  C   UNL     1      -0.663   1.613  -1.272  0.00  0.00    -0.008 A 
ATOM      3  C   UNL     1       0.310   2.020  -2.107  0.00  0.00    -0.004 A 
ATOM      4  S   UNL     1      -0.547   2.604  -3.549  0.00  0.00    -0.077 S 
ATOM      5  C   UNL     1      -2.178   2.314  -3.046  0.00  0.00    +0.086 A 
ATOM      6  C   UNL     1       1.679   1.828  -1.515  0.00  0.00    +0.044 C 
ATOM      7  C   UNL     1       1.426   1.639  -0.003  0.00  0.00    +0.024 C 
ATOM      8  C   UNL     1      -0.013   1.086   0.008  0.00  0.00    +0.130 C 
ENDROOT
BRANCH   5   9
ATOM      9  N   UNL     1      -3.351   2.562  -3.741  0.00  0.00    -0.279 N 
ATOM     10  C   UNL     1      -3.302   3.098  -4.977  0.00  0.00    +0.216 C 
ATOM     11  O   UNL     1      -2.231   3.364  -5.480  0.00  0.00    -0.276 OA
ATOM     12  H   UNL     1      -4.322   2.320  -3.285  0.00  0.00    +0.155 HD
BRANCH  10  13
ATOM     13  C   UNL     1      -4.577   3.368  -5.733  0.00  0.00    +0.077 C 
BRANCH  13  14
ATOM     14  C   UNL     1      -4.243   3.973  -7.098  0.00  0.00    -0.077 C 
BRANCH  14  15
ATOM     15  N   UNL     1      -5.486   4.236  -7.835  0.00  0.00    +0.378 N 
ATOM     16  H   UNL     1      -5.246   4.671  -8.816  0.00  0.00    -0.090 HD
ATOM     17  H   UNL     1      -6.109   4.940  -7.264  0.00  0.00    -0.090 HD
ATOM     18  H   UNL     1      -6.035   3.293  -7.976  0.00  0.00    -0.090 HD
ENDBRANCH  14  15
ENDBRANCH  13  14
ENDBRANCH  10  13
ENDBRANCH   5   9
BRANCH   1  19
ATOM     19  C   UNL     1      -3.185   1.375  -0.980  0.00  0.00    +0.342 C 
ATOM     20  O   UNL     1      -3.624   0.244  -1.065  0.00  0.00    -0.245 OA
BRANCH  19  22
ATOM     21  C   UNL     1      -4.912   1.799   0.615  0.00  0.00    +0.280 C 
ATOM     22  O   UNL     1      -3.767   2.263  -0.147  0.00  0.00    -0.464 OA
ENDBRANCH  19  22
ENDBRANCH   1  19
BRANCH   8  23
ATOM     23  C   UNL     1      -0.756   1.590   1.218  0.00  0.00    +0.314 C 
ATOM     24  O   UNL     1      -1.733   2.288   1.080  0.00  0.00    -0.250 OA
BRANCH  23  25
ATOM     25  O   UNL     1      -0.333   1.264   2.450  0.00  0.00    -0.468 OA
ATOM     26  C   UNL     1      -1.097   1.785   3.569  0.00  0.00    +0.280 C 
ENDBRANCH  23  25
ENDBRANCH   8  23
TORSDOF 8
