REMARK  Name = ZINC08790260
REMARK  8 active torsions:
REMARK  status: ('A' for Active; 'I' for Inactive)
REMARK    1  A    between atoms: C_1  and  C_2
REMARK    2  A    between atoms: C_7  and  C_8
REMARK    3  A    between atoms: C_17  and  C_19
REMARK    4  A    between atoms: C_19  and  C_20
REMARK    5  A    between atoms: C_23  and  O_26
REMARK    6  A    between atoms: N_29  and  C_32
REMARK    7  A    between atoms: C_32  and  C_33
REMARK    8  A    between atoms: C_33  and  C_34
REMARK                            x       y       z     vdW  Elec       q    Type
REMARK                         _______ _______ _______ _____ _____    ______ ____
ROOT
ATOM      1  C   UNL     1       1.969   2.073   6.187  0.00  0.00    +0.044 C 
ATOM      2  C   UNL     1       1.297   2.023   4.839  0.00  0.00    -0.046 A 
ATOM      3  C   UNL     1       1.792   2.783   3.795  0.00  0.00    +0.004 A 
ATOM      4  C   UNL     1       1.176   2.738   2.558  0.00  0.00    +0.005 A 
ATOM      5  C   UNL     1       0.072   1.937   2.367  0.00  0.00    -0.027 A 
ATOM      6  C   UNL     1      -0.435   1.168   3.410  0.00  0.00    +0.039 A 
ATOM      7  C   UNL     1       0.192   1.219   4.653  0.00  0.00    -0.026 A 
ATOM      8  C   UNL     1      -0.339   0.395   5.797  0.00  0.00    +0.046 C 
ATOM      9  N   UNL     1      -1.550   0.445   2.979  0.00  0.00    -0.286 N 
ATOM     10  C   UNL     1      -1.837   0.677   1.684  0.00  0.00    +0.211 C 
ATOM     11  O   UNL     1      -2.745   0.191   1.044  0.00  0.00    -0.277 OA
ATOM     12  C   UNL     1      -0.812   1.659   1.185  0.00  0.00    +0.050 C 
ATOM     13  C   UNL     1      -0.013   1.086   0.008  0.00  0.00    +0.088 C 
ATOM     14  C   UNL     1      -0.672   1.688  -1.264  0.00  0.00    +0.073 C 
ATOM     15  C   UNL     1      -1.825   2.568  -0.735  0.00  0.00    -0.053 C 
ATOM     16  C   UNL     1       0.412   2.573  -1.834  0.00  0.00    +0.224 C 
ATOM     17  O   UNL     1       0.311   3.248  -2.836  0.00  0.00    -0.275 OA
ATOM     18  N   UNL     1       1.501   2.497  -1.060  0.00  0.00    -0.241 N 
ATOM     19  C   UNL     1       1.375   1.688  -0.002  0.00  0.00    +0.225 C 
ATOM     20  O   UNL     1       2.238   1.471   0.821  0.00  0.00    -0.275 OA
ATOM     21  H   UNL     1      -2.058  -0.156   3.547  0.00  0.00    +0.155 HD
ATOM     22  N   UNL     1      -1.432   2.877   0.643  0.00  0.00    +0.394 N 
ATOM     23  H   UNL     1      -0.758   3.652   0.654  0.00  0.00    -0.083 HD
ATOM     24  H   UNL     1      -2.257   3.132   1.198  0.00  0.00    -0.083 HD
ENDROOT
BRANCH  15  25
ATOM     25  C   UNL     1      -1.953   3.839  -1.576  0.00  0.00    +0.020 C 
BRANCH  25  26
ATOM     26  C   UNL     1      -3.158   4.622  -1.122  0.00  0.00    -0.049 A 
ATOM     27  C   UNL     1      -4.390   4.394  -1.706  0.00  0.00    +0.007 A 
ATOM     28  C   UNL     1      -5.497   5.107  -1.287  0.00  0.00    +0.045 A 
ATOM     29  C   UNL     1      -5.369   6.061  -0.287  0.00  0.00    +0.117 A 
ATOM     30  C   UNL     1      -4.130   6.292   0.293  0.00  0.00    +0.045 A 
ATOM     31  C   UNL     1      -3.027   5.572  -0.125  0.00  0.00    +0.007 A 
BRANCH  29  32
ATOM     32  O   UNL     1      -6.455   6.767   0.123  0.00  0.00    -0.507 OA
ATOM     33  H   UNL     1      -6.598   7.588  -0.367  0.00  0.00    +0.292 HD
ENDBRANCH  29  32
ENDBRANCH  25  26
ENDBRANCH  15  25
BRANCH  18  34
ATOM     34  C   UNL     1       2.731   3.239  -1.348  0.00  0.00    +0.121 C 
BRANCH  34  35
ATOM     35  C   UNL     1       3.642   2.390  -2.237  0.00  0.00    +0.054 C 
BRANCH  35  36
ATOM     36  C   UNL     1       4.908   3.153  -2.533  0.00  0.00    -0.046 A 
ATOM     37  C   UNL     1       4.978   3.969  -3.647  0.00  0.00    +0.004 A 
ATOM     38  C   UNL     1       6.137   4.673  -3.916  0.00  0.00    +0.000 A 
ATOM     39  C   UNL     1       7.229   4.553  -3.077  0.00  0.00    +0.000 A 
ATOM     40  C   UNL     1       7.160   3.732  -1.966  0.00  0.00    +0.000 A 
ATOM     41  C   UNL     1       6.000   3.032  -1.694  0.00  0.00    +0.004 A 
ENDBRANCH  35  36
ENDBRANCH  34  35
ENDBRANCH  18  34
TORSDOF 6
