REMARK  Name = ZINC14142208
REMARK  8 active torsions:
REMARK  status: ('A' for Active; 'I' for Inactive)
REMARK    1  A    between atoms: C_1  and  C_2
REMARK    2  A    between atoms: C_4  and  C_8
REMARK    3  A    between atoms: C_5  and  C_7
REMARK    4  A    between atoms: C_14  and  C_16
REMARK    5  A    between atoms: C_16  and  C_17
REMARK    6  A    between atoms: C_17  and  N_18
REMARK    7  A    between atoms: C_22  and  S_28
REMARK    8  A    between atoms: S_28  and  N_31
REMARK                            x       y       z     vdW  Elec       q    Type
REMARK                         _______ _______ _______ _____ _____    ______ ____
ROOT
ATOM      1  C   UNL     1       0.000   4.402   6.192  0.00  0.00    +0.118 C 
ENDROOT
BRANCH   1   8
ATOM      2  C   UNL     1       0.031  -0.363   2.454  0.00  0.00    +0.081 A 
ATOM      3  C   UNL     1       0.047  -1.224   3.515  0.00  0.00    +0.077 A 
ATOM      4  S   UNL     1       0.050  -0.071   4.880  0.00  0.00    -0.060 S 
ATOM      5  C   UNL     1       0.021   1.391   3.945  0.00  0.00    +0.165 A 
ATOM      6  N   UNL     1       0.015   0.937   2.708  0.00  0.00    -0.225 NA
ATOM      7  N   UNL     1       0.007   2.708   4.389  0.00  0.00    -0.265 N 
ATOM      8  C   UNL     1       0.016   2.974   5.710  0.00  0.00    +0.220 C 
ATOM      9  O   UNL     1       0.036   2.064   6.512  0.00  0.00    -0.275 OA
ATOM     10  H   UNL     1      -0.010   3.436   3.748  0.00  0.00    +0.157 HD
BRANCH   2  14
ATOM     11  C   UNL     1       0.047  -4.069  -1.019  0.00  0.00    +0.051 C 
ATOM     12  C   UNL     1       0.034  -2.659  -0.487  0.00  0.00    -0.012 A 
ATOM     13  C   UNL     1       0.040  -2.236   0.798  0.00  0.00    +0.021 A 
ATOM     14  C   UNL     1       0.024  -0.870   1.059  0.00  0.00    +0.011 A 
ATOM     15  C   UNL     1       0.002  -0.004   0.002  0.00  0.00    -0.004 A 
ATOM     16  S   UNL     1      -0.004  -1.120  -1.391  0.00  0.00    -0.098 S 
ATOM     17  C   UNL     1      -0.018   1.503   0.010  0.00  0.00    +0.052 C 
ENDBRANCH   2  14
ENDBRANCH   1   8
BRANCH   1  18
ATOM     18  C   UNL     1       0.015   4.424   7.721  0.00  0.00    +0.138 C 
BRANCH  18  19
ATOM     19  N   UNL     1      -0.000   5.812   8.190  0.00  0.00    -0.274 N 
ATOM     20  C   UNL     1       1.116   6.608   8.448  0.00  0.00    +0.090 A 
ATOM     21  C   UNL     1       2.482   6.388   8.361  0.00  0.00    +0.031 A 
ATOM     22  C   UNL     1       3.362   7.399   8.694  0.00  0.00    +0.031 A 
ATOM     23  C   UNL     1       2.885   8.628   9.113  0.00  0.00    +0.109 A 
ATOM     24  C   UNL     1       1.525   8.857   9.194  0.00  0.00    +0.077 A 
ATOM     25  C   UNL     1       0.633   7.848   8.866  0.00  0.00    +0.159 A 
ATOM     26  O   UNL     1      -0.720   7.775   8.862  0.00  0.00    -0.407 OA
ATOM     27  C   UNL     1      -1.095   6.552   8.455  0.00  0.00    +0.421 A 
ATOM     28  O   UNL     1      -2.244   6.171   8.344  0.00  0.00    -0.223 OA
BRANCH  23  29
ATOM     29  S   UNL     1       4.016   9.911   9.536  0.00  0.00    +0.056 S 
ATOM     30  O   UNL     1       3.328  10.786  10.418  0.00  0.00    -0.153 OA
ATOM     31  O   UNL     1       5.237   9.275   9.891  0.00  0.00    -0.153 OA
BRANCH  29  32
ATOM     32  N   UNL     1       4.317  10.773   8.154  0.00  0.00    -0.204 NA
ATOM     33  H   UNL     1       3.888  10.521   7.322  0.00  0.00    +0.144 HD
ATOM     34  H   UNL     1       4.923  11.530   8.177  0.00  0.00    +0.144 HD
ENDBRANCH  29  32
ENDBRANCH  23  29
ENDBRANCH  18  19
ENDBRANCH   1  18
TORSDOF 6
