REMARK  Name = ZINC28703238
REMARK  6 active torsions:
REMARK  status: ('A' for Active; 'I' for Inactive)
REMARK    1  A    between atoms: C_3  and  C_8
REMARK    2  A    between atoms: C_5  and  O_7
REMARK    3  A    between atoms: C_9  and  C_23
REMARK    4  A    between atoms: C_14  and  N_17
REMARK    5  A    between atoms: N_17  and  C_18
REMARK    6  A    between atoms: N_29  and  C_30
REMARK                            x       y       z     vdW  Elec       q    Type
REMARK                         _______ _______ _______ _____ _____    ______ ____
ROOT
ATOM      1  C   UNL     1      -0.076   5.330   0.031  0.00  0.00    +0.074 A 
ATOM      2  C   UNL     1      -1.013   6.137  -0.605  0.00  0.00    +0.097 A 
ATOM      3  N   UNL     1      -0.657   7.439  -0.332  0.00  0.00    -0.297 N 
ATOM      4  C   UNL     1      -1.208   8.635  -0.691  0.00  0.00    +0.093 A 
ATOM      5  C   UNL     1      -0.653   9.799  -0.290  0.00  0.00    +0.020 A 
ATOM      6  C   UNL     1       0.504   9.796   0.503  0.00  0.00    +0.028 A 
ATOM      7  C   UNL     1       1.067   8.605   0.871  0.00  0.00    +0.069 A 
ATOM      8  C   UNL     1       0.471   7.396   0.442  0.00  0.00    +0.138 A 
ATOM      9  N   UNL     1       0.801   6.127   0.647  0.00  0.00    -0.337 N 
ATOM     10  H   UNL     1       1.637   5.691   1.214  0.00  0.00    +0.167 HD
ENDROOT
BRANCH   2  11
ATOM     11  C   UNL     1      -2.160   5.688  -1.409  0.00  0.00    +0.095 A 
ATOM     12  C   UNL     1      -3.290   6.506  -1.558  0.00  0.00    +0.050 A 
ATOM     13  C   UNL     1      -4.342   6.042  -2.322  0.00  0.00    +0.116 A 
ATOM     14  N   UNL     1      -4.255   4.846  -2.888  0.00  0.00    -0.223 NA
ATOM     15  C   UNL     1      -3.176   4.092  -2.732  0.00  0.00    +0.216 A 
ATOM     16  N   UNL     1      -2.141   4.497  -2.013  0.00  0.00    -0.213 NA
ATOM     17  N   UNL     1      -3.128   2.849  -3.340  0.00  0.00    -0.311 N 
ATOM     18  H   UNL     1      -2.240   2.212  -3.220  0.00  0.00    +0.149 HD
BRANCH  17  19
ATOM     19  C   UNL     1      -4.261   2.384  -4.145  0.00  0.00    +0.073 C 
ATOM     20  C   UNL     1      -5.295   1.679  -3.243  0.00  0.00    +0.022 C 
ATOM     21  C   UNL     1      -5.821   0.509  -4.112  0.00  0.00    +0.002 C 
ATOM     22  C   UNL     1      -4.547   0.035  -4.855  0.00  0.00    +0.002 C 
ATOM     23  C   UNL     1      -3.786   1.340  -5.170  0.00  0.00    +0.022 C 
ENDBRANCH  17  19
ENDBRANCH   2  11
BRANCH   1  26
ATOM     24  C   UNL     1      -1.220   1.748   0.017  0.00  0.00    +0.004 A 
ATOM     25  C   UNL     1      -1.246   3.129   0.030  0.00  0.00    +0.010 A 
ATOM     26  C   UNL     1      -0.051   3.848   0.023  0.00  0.00    +0.004 A 
ATOM     27  C   UNL     1       1.166   3.169   0.008  0.00  0.00    +0.055 A 
ATOM     28  C   UNL     1       1.182   1.784   0.000  0.00  0.00    +0.117 A 
ATOM     29  C   UNL     1      -0.013   1.076   0.008  0.00  0.00    +0.045 A 
BRANCH  28  30
ATOM     30  O   UNL     1       2.366   1.119  -0.014  0.00  0.00    -0.507 OA
ATOM     31  H   UNL     1       2.379   0.019  -0.020  0.00  0.00    +0.292 HD
ENDBRANCH  28  30
ENDBRANCH   1  26
BRANCH   7  32
ATOM     32  N   UNL     1       2.218   8.583   1.661  0.00  0.00    -0.338 N 
ATOM     33  H   UNL     1       2.666   7.622   1.954  0.00  0.00    +0.146 HD
BRANCH  32  34
ATOM     34  C   UNL     1       2.829   9.840   2.101  0.00  0.00    +0.070 C 
ATOM     35  C   UNL     1       3.817  10.350   1.032  0.00  0.00    +0.022 C 
ATOM     36  C   UNL     1       4.982  10.960   1.852  0.00  0.00    +0.002 C 
ATOM     37  C   UNL     1       5.107   9.984   3.048  0.00  0.00    +0.002 C 
ATOM     38  C   UNL     1       3.649   9.607   3.383  0.00  0.00    +0.022 C 
ENDBRANCH  32  34
ENDBRANCH   7  32
TORSDOF 6
