REMARK  Name = ZINC13442674
REMARK  7 active torsions:
REMARK  status: ('A' for Active; 'I' for Inactive)
REMARK    1  A    between atoms: C_1  and  C_2
REMARK    2  A    between atoms: C_2  and  C_4
REMARK    3  A    between atoms: C_2  and  N_47
REMARK    4  A    between atoms: N_6  and  C_7
REMARK    5  A    between atoms: C_8  and  C_19
REMARK    6  A    between atoms: C_16  and  C_18
REMARK    7  A    between atoms: C_19  and  C_21
REMARK                            x       y       z     vdW  Elec       q    Type
REMARK                         _______ _______ _______ _____ _____    ______ ____
ROOT
ATOM      1  C   UNL     1       0.768   4.105  -0.725  0.00  0.00    +0.083 A 
ATOM      2  C   UNL     1       1.887   3.406  -1.165  0.00  0.00    +0.054 A 
ATOM      3  C   UNL     1       1.897   1.964  -0.972  0.00  0.00    -0.021 A 
ATOM      4  C   UNL     1       0.797   1.459  -0.372  0.00  0.00    +0.013 A 
ATOM      5  S   UNL     1      -0.239   2.860  -0.062  0.00  0.00    -0.076 S 
ATOM      6  C   UNL     1       0.534   0.021  -0.044  0.00  0.00    +0.150 C 
ATOM      7  N   UNL     1       1.590  -0.776  -0.700  0.00  0.00    -0.297 N 
ATOM      8  C   UNL     1       2.965  -0.259  -0.643  0.00  0.00    +0.113 C 
ATOM      9  C   UNL     1       3.047   1.064  -1.405  0.00  0.00    +0.056 C 
ATOM     10  C   UNL     1       1.303  -1.934  -1.328  0.00  0.00    +0.213 C 
ATOM     11  O   UNL     1       2.171  -2.525  -1.935  0.00  0.00    -0.276 OA
ATOM     12  C   UNL     1      -0.095  -2.493  -1.277  0.00  0.00    +0.109 C 
ENDROOT
BRANCH   1  15
ATOM     13  C   UNL     1      -0.581   5.981  -0.214  0.00  0.00    +0.203 C 
ATOM     14  O   UNL     1      -1.306   5.270   0.449  0.00  0.00    -0.277 OA
ATOM     15  N   UNL     1       0.521   5.466  -0.794  0.00  0.00    -0.281 N 
ATOM     16  H   UNL     1       1.141   6.048  -1.261  0.00  0.00    +0.155 HD
BRANCH  13  18
ATOM     17  C   UNL     1      -0.095   8.271   0.604  0.00  0.00    -0.005 C 
ATOM     18  C   UNL     1      -0.912   7.441  -0.388  0.00  0.00    +0.010 C 
BRANCH  18  21
ATOM     19  H   UNL     1      -2.592   8.623  -0.251  0.00  0.00    -0.089 HD
ATOM     20  H   UNL     1      -2.905   7.065  -0.741  0.00  0.00    -0.089 HD
ATOM     21  N   UNL     1      -2.346   7.644  -0.116  0.00  0.00    +0.385 N 
ATOM     22  H   UNL     1      -2.546   7.379   0.855  0.00  0.00    -0.089 HD
ENDBRANCH  18  21
ENDBRANCH  13  18
ENDBRANCH   1  15
BRANCH   2  23
ATOM     23  C   UNL     1       3.012   4.096  -1.799  0.00  0.00    +0.197 C 
ATOM     24  O   UNL     1       3.967   4.445  -1.129  0.00  0.00    -0.287 OA
BRANCH  23  25
ATOM     25  C   UNL     1       2.989   4.367  -3.252  0.00  0.00    +0.041 A 
ATOM     26  C   UNL     1       1.943   3.882  -4.040  0.00  0.00    +0.013 A 
ATOM     27  C   UNL     1       1.928   4.138  -5.394  0.00  0.00    +0.001 A 
ATOM     28  C   UNL     1       2.946   4.875  -5.975  0.00  0.00    +0.001 A 
ATOM     29  C   UNL     1       3.985   5.360  -5.202  0.00  0.00    +0.021 A 
ATOM     30  C   UNL     1       4.011   5.115  -3.842  0.00  0.00    +0.052 A 
ATOM     31 CL   UNL     1       5.312   5.730  -2.872  0.00  0.00    -0.083 Cl
ENDBRANCH  23  25
ENDBRANCH   2  23
TORSDOF 5
