REMARK  Name = ZINC44973739
REMARK  11 active torsions:
REMARK  status: ('A' for Active; 'I' for Inactive)
REMARK    1  A    between atoms: C_1  and  C_2
REMARK    2  A    between atoms: C_2  and  O_3
REMARK    3  A    between atoms: O_3  and  C_4
REMARK    4  A    between atoms: C_4  and  C_6
REMARK    5  A    between atoms: C_8  and  C_30
REMARK    6  A    between atoms: C_15  and  S_27
REMARK    7  A    between atoms: C_19  and  C_20
REMARK    8  A    between atoms: C_19  and  O_26
REMARK    9  A    between atoms: S_27  and  C_28
REMARK   10  A    between atoms: C_28  and  C_29
REMARK   11  A    between atoms: C_33  and  N_36
REMARK                            x       y       z     vdW  Elec       q    Type
REMARK                         _______ _______ _______ _____ _____    ______ ____
ROOT
ATOM      1  C   UNL     1       1.468  -2.353  -2.550  0.00  0.00    +0.164 C 
ATOM      2  C   UNL     1       1.444  -3.882  -2.495  0.00  0.00    +0.076 C 
ATOM      3  C   UNL     1       1.916  -4.459  -3.801  0.00  0.00    +0.065 A 
ATOM      4  C   UNL     1       2.376  -5.781  -3.843  0.00  0.00    +0.258 A 
ATOM      5  O   UNL     1       2.399  -6.462  -2.830  0.00  0.00    -0.267 OA
ATOM      6  N   UNL     1       2.794  -6.289  -5.021  0.00  0.00    -0.302 N 
ATOM      7  H   UNL     1       3.118  -7.202  -5.067  0.00  0.00    +0.171 HD
ATOM      8  C   UNL     1       2.761  -5.522  -6.146  0.00  0.00    +0.171 A 
ATOM      9  N   UNL     1       2.330  -4.278  -6.113  0.00  0.00    -0.208 NA
ATOM     10  C   UNL     1       1.907  -3.720  -4.971  0.00  0.00    +0.133 A 
ATOM     11  N   UNL     1       1.474  -2.408  -4.978  0.00  0.00    -0.297 N 
ATOM     12  C   UNL     1       0.737  -1.891  -3.817  0.00  0.00    +0.172 C 
ATOM     13  H   UNL     1       1.654  -1.834  -5.739  0.00  0.00    +0.151 HD
ENDROOT
BRANCH  12  14
ATOM     14  C   UNL     1       0.698  -0.385  -3.863  0.00  0.00    +0.003 A 
ATOM     15  C   UNL     1      -0.298   0.301  -3.195  0.00  0.00    +0.008 A 
ATOM     16  C   UNL     1      -0.334   1.683  -3.237  0.00  0.00    +0.000 A 
ATOM     17  C   UNL     1       0.628   2.377  -3.946  0.00  0.00    +0.000 A 
ATOM     18  C   UNL     1       1.625   1.691  -4.613  0.00  0.00    +0.000 A 
ATOM     19  C   UNL     1       1.663   0.310  -4.568  0.00  0.00    +0.008 A 
ENDBRANCH  12  14
BRANCH   2  20
ATOM     20  C   UNL     1       2.352  -4.355  -1.389  0.00  0.00    -0.039 A 
ATOM     21  C   UNL     1       3.696  -4.035  -1.413  0.00  0.00    +0.006 A 
ATOM     22  C   UNL     1       4.529  -4.470  -0.398  0.00  0.00    +0.033 A 
ATOM     23  C   UNL     1       4.016  -5.223   0.641  0.00  0.00    +0.126 A 
ATOM     24  C   UNL     1       2.671  -5.542   0.666  0.00  0.00    +0.033 A 
ATOM     25  C   UNL     1       1.838  -5.104  -0.346  0.00  0.00    +0.006 A 
BRANCH  23  26
ATOM     26  N   UNL     1       4.907  -5.689   1.728  0.00  0.00    +0.056 N 
ATOM     27  O   UNL     1       6.083  -5.410   1.706  0.00  0.00    -0.126 OA
ATOM     28  O   UNL     1       4.459  -6.347   2.637  0.00  0.00    -0.126 OA
ENDBRANCH  23  26
ENDBRANCH   2  20
BRANCH   1  29
ATOM     29  C   UNL     1       0.775  -1.794  -1.334  0.00  0.00    +0.316 C 
ATOM     30  O   UNL     1       0.314  -2.540  -0.504  0.00  0.00    -0.250 OA
BRANCH  29  31
ATOM     31  O   UNL     1       0.671  -0.465  -1.174  0.00  0.00    -0.465 OA
BRANCH  31  33
ATOM     32  C   UNL     1      -0.019   1.526   0.010  0.00  0.00    +0.048 C 
ATOM     33  C   UNL     1       0.002  -0.004   0.002  0.00  0.00    +0.229 C 
ENDBRANCH  31  33
ENDBRANCH  29  31
ENDBRANCH   1  29
BRANCH  12  34
ATOM     34  O   UNL     1      -0.595  -2.410  -3.824  0.00  0.00    -0.367 OA
ATOM     35  H   UNL     1      -1.113  -2.154  -4.599  0.00  0.00    +0.212 HD
ENDBRANCH  12  34
BRANCH   8  36
ATOM     36  S   UNL     1       3.306  -6.207  -7.675  0.00  0.00    -0.088 S 
BRANCH  36  37
ATOM     37  C   UNL     1       3.087  -4.855  -8.865  0.00  0.00    +0.074 C 
ATOM     38  C   UNL     1       3.529  -5.321 -10.253  0.00  0.00    +0.016 C 
ENDBRANCH  36  37
ENDBRANCH   8  36
TORSDOF 9
