REMARK  Name = ZINC04160193
REMARK  9 active torsions:
REMARK  status: ('A' for Active; 'I' for Inactive)
REMARK    1  A    between atoms: C_1  and  C_2
REMARK    2  A    between atoms: C_6  and  C_8
REMARK    3  A    between atoms: C_13  and  C_21
REMARK    4  A    between atoms: C_13  and  C_22
REMARK    5  A    between atoms: C_15  and  S_17
REMARK    6  A    between atoms: S_17  and  C_18
REMARK    7  A    between atoms: C_18  and  C_19
REMARK    8  A    between atoms: C_28  and  O_31
REMARK    9  A    between atoms: C_29  and  O_30
REMARK                            x       y       z     vdW  Elec       q    Type
REMARK                         _______ _______ _______ _____ _____    ______ ____
ROOT
ATOM      1  C   UNL     1       0.054  -2.845   2.489  0.00  0.00    +0.058 C 
ATOM      2  C   UNL     1       1.316  -3.707   2.558  0.00  0.00    +0.084 C 
ATOM      3  C   UNL     1       1.173  -4.676   3.739  0.00  0.00    +0.187 C 
ATOM      4  C   UNL     1       0.874  -3.879   5.011  0.00  0.00    +0.096 C 
ATOM      5  C   UNL     1       0.984  -4.825   6.216  0.00  0.00    +0.034 C 
ATOM      6  N   UNL     1       2.353  -5.362   6.229  0.00  0.00    -0.320 N 
ATOM      7  C   UNL     1       2.922  -5.750   5.038  0.00  0.00    +0.131 C 
ATOM      8  N   UNL     1       2.406  -5.441   3.893  0.00  0.00    -0.331 N 
ATOM      9  C   UNL     1      -0.022  -5.969   6.073  0.00  0.00    +0.031 C 
ATOM     10  C   UNL     1       0.715  -4.053   7.509  0.00  0.00    +0.031 C 
ATOM     11  O   UNL     1       0.087  -5.562   3.465  0.00  0.00    -0.463 OA
ATOM     12  C   UNL     1      -1.089  -5.021   3.051  0.00  0.00    +0.172 A 
ATOM     13  C   UNL     1      -1.167  -3.726   2.570  0.00  0.00    +0.006 A 
ATOM     14  C   UNL     1      -2.385  -3.216   2.152  0.00  0.00    +0.011 A 
ATOM     15  C   UNL     1      -3.527  -3.991   2.213  0.00  0.00    +0.050 A 
ATOM     16  C   UNL     1      -3.457  -5.289   2.696  0.00  0.00    +0.162 A 
ATOM     17  C   UNL     1      -2.240  -5.804   3.115  0.00  0.00    +0.201 A 
ATOM     18  H   UNL     1       2.846  -5.441   7.061  0.00  0.00    +0.148 HD
ATOM     19  H   UNL     1       2.865  -5.734   3.091  0.00  0.00    +0.165 HD
ENDROOT
BRANCH   1  25
ATOM     20  C   UNL     1      -0.018   1.503   0.010  0.00  0.00    +0.044 C 
ATOM     21  C   UNL     1       0.002  -0.004   0.002  0.00  0.00    -0.050 A 
ATOM     22  C   UNL     1       0.006  -0.689  -1.199  0.00  0.00    +0.003 A 
ATOM     23  C   UNL     1       0.025  -2.071  -1.207  0.00  0.00    +0.001 A 
ATOM     24  C   UNL     1       0.040  -2.768  -0.013  0.00  0.00    +0.004 A 
ATOM     25  C   UNL     1       0.037  -2.084   1.188  0.00  0.00    -0.039 A 
ATOM     26  C   UNL     1       0.023  -0.702   1.195  0.00  0.00    +0.007 A 
ENDBRANCH   1  25
BRANCH  17  27
ATOM     27  O   UNL     1      -2.169  -7.078   3.589  0.00  0.00    -0.501 OA
ATOM     28  H   UNL     1      -2.304  -7.150   4.544  0.00  0.00    +0.292 HD
ENDBRANCH  17  27
BRANCH  16  29
ATOM     29  O   UNL     1      -4.580  -6.054   2.759  0.00  0.00    -0.503 OA
ATOM     30  H   UNL     1      -4.749  -6.572   1.959  0.00  0.00    +0.292 HD
ENDBRANCH  16  29
BRANCH   7  31
ATOM     31  S   UNL     1       4.404  -6.702   5.074  0.00  0.00    -0.089 S 
BRANCH  31  32
ATOM     32  C   UNL     1       4.759  -6.896   6.842  0.00  0.00    +0.103 C 
BRANCH  32  33
ATOM     33  C   UNL     1       6.019  -7.703   7.016  0.00  0.00    -0.023 C 
ATOM     34  C   UNL     1       7.081  -7.153   7.552  0.00  0.00    +0.005 C 
ENDBRANCH  32  33
ENDBRANCH  31  32
ENDBRANCH   7  31
TORSDOF 6
