REMARK  Name = ZINC13209365
REMARK  4 active torsions:
REMARK  status: ('A' for Active; 'I' for Inactive)
REMARK    1  A    between atoms: C_1  and  C_2
REMARK    2  A    between atoms: C_2  and  N_3
REMARK    3  A    between atoms: C_7  and  N_10
REMARK    4  A    between atoms: C_13  and  C_30
REMARK                            x       y       z     vdW  Elec       q    Type
REMARK                         _______ _______ _______ _____ _____    ______ ____
ROOT
ATOM      1  N   UNL     1       1.724  -3.890  -2.321  0.00  0.00    -0.328 N 
ATOM      2  C   UNL     1       2.772  -4.521  -2.970  0.00  0.00    +0.124 A 
ATOM      3  C   UNL     1       3.722  -3.775  -3.672  0.00  0.00    +0.066 A 
ATOM      4  C   UNL     1       4.750  -4.446  -4.304  0.00  0.00    +0.045 A 
ATOM      5  N   UNL     1       4.806  -5.768  -4.227  0.00  0.00    -0.219 NA
ATOM      6  C   UNL     1       3.891  -6.449  -3.554  0.00  0.00    +0.224 A 
ATOM      7  N   UNL     1       2.892  -5.843  -2.929  0.00  0.00    -0.199 NA
ATOM      8  N   UNL     1       3.984  -7.832  -3.497  0.00  0.00    -0.254 N 
ATOM      9  C   UNL     1       5.022  -8.482  -4.137  0.00  0.00    +0.200 A 
ATOM     10  N   UNL     1       6.012  -7.867  -4.848  0.00  0.00    -0.326 N 
ATOM     11  H   UNL     1       6.111  -6.912  -4.991  0.00  0.00    +0.169 HD
ATOM     12  C   UNL     1       6.851  -8.860  -5.328  0.00  0.00    +0.069 A 
ATOM     13  C   UNL     1       8.004  -8.855  -6.098  0.00  0.00    +0.049 A 
ATOM     14  C   UNL     1       8.624 -10.047  -6.415  0.00  0.00    +0.061 A 
ATOM     15  C   UNL     1       8.099 -11.252  -5.968  0.00  0.00    +0.061 A 
ATOM     16  C   UNL     1       6.954 -11.274  -5.202  0.00  0.00    +0.051 A 
ATOM     17  C   UNL     1       6.316 -10.076  -4.872  0.00  0.00    +0.092 A 
ATOM     18  N   UNL     1       5.206  -9.778  -4.148  0.00  0.00    -0.214 NA
ATOM     19 CL   UNL     1       8.891 -12.742  -6.376  0.00  0.00    -0.082 Cl
ATOM     20 CL   UNL     1      10.067 -10.039  -7.380  0.00  0.00    -0.082 Cl
ATOM     21  C   UNL     1       5.798  -3.684  -5.074  0.00  0.00    +0.066 C 
ATOM     22  H   UNL     1       1.070  -4.414  -1.832  0.00  0.00    +0.148 HD
ATOM     23  H   UNL     1       3.321  -8.343  -3.007  0.00  0.00    +0.158 HD
ENDROOT
BRANCH   1  28
ATOM     24  N   UNL     1       0.690  -0.478  -1.207  0.00  0.00    +0.381 N 
ATOM     25  C   UNL     1      -0.082  -0.085  -2.392  0.00  0.00    -0.079 C 
ATOM     26  C   UNL     1       0.671  -0.505  -3.657  0.00  0.00    -0.017 C 
ATOM     27  C   UNL     1       0.861  -2.025  -3.650  0.00  0.00    +0.018 C 
ATOM     28  C   UNL     1       1.601  -2.431  -2.373  0.00  0.00    +0.055 C 
ATOM     29  C   UNL     1       0.815  -1.939  -1.155  0.00  0.00    -0.056 C 
ATOM     30  H   UNL     1       1.609  -0.064  -1.253  0.00  0.00    -0.082 HD
BRANCH  24  32
ATOM     31  C   UNL     1      -0.019   1.526   0.010  0.00  0.00    -0.017 C 
ATOM     32  C   UNL     1       0.002  -0.004   0.002  0.00  0.00    -0.082 C 
ENDBRANCH  24  32
ENDBRANCH   1  28
TORSDOF 2
