REMARK  Name = ZINC40138695
REMARK  7 active torsions:
REMARK  status: ('A' for Active; 'I' for Inactive)
REMARK    1  A    between atoms: C_6  and  O_7
REMARK    2  A    between atoms: O_7  and  C_8
REMARK    3  A    between atoms: C_8  and  C_9
REMARK    4  A    between atoms: C_9  and  C_10
REMARK    5  A    between atoms: C_10  and  N_11
REMARK    6  A    between atoms: N_19  and  N_20
REMARK    7  A    between atoms: C_21  and  C_23
REMARK                            x       y       z     vdW  Elec       q    Type
REMARK                         _______ _______ _______ _____ _____    ______ ____
ROOT
ATOM      1  N   UNL     1      -3.719  -4.837   0.013  0.00  0.00    -0.265 N 
ATOM      2  C   UNL     1      -4.429  -5.148   1.168  0.00  0.00    +0.046 A 
ATOM      3  C   UNL     1      -4.106  -5.016   2.514  0.00  0.00    +0.025 A 
ATOM      4  C   UNL     1      -5.006  -5.408   3.484  0.00  0.00    +0.022 A 
ATOM      5  C   UNL     1      -6.238  -5.936   3.132  0.00  0.00    +0.042 A 
ATOM      6  C   UNL     1      -6.576  -6.074   1.800  0.00  0.00    +0.032 A 
ATOM      7  C   UNL     1      -5.675  -5.682   0.816  0.00  0.00    +0.030 A 
ATOM      8  C   UNL     1      -5.721  -5.695  -0.665  0.00  0.00    +0.153 C 
ATOM      9  N   UNL     1      -6.701  -6.113  -1.429  0.00  0.00    -0.175 NA
ATOM     10  C   UNL     1      -4.425  -5.130  -1.092  0.00  0.00    +0.271 C 
ATOM     11  O   UNL     1      -4.061  -4.962  -2.241  0.00  0.00    -0.268 OA
ATOM     12 CL   UNL     1      -7.358  -6.424   4.366  0.00  0.00    -0.084 Cl
ENDROOT
BRANCH   9  13
ATOM     13  N   UNL     1      -6.576  -6.052  -2.824  0.00  0.00    -0.206 N 
ATOM     14  C   UNL     1      -7.583  -6.482  -3.610  0.00  0.00    +0.235 C 
ATOM     15  O   UNL     1      -8.597  -6.920  -3.110  0.00  0.00    -0.274 OA
ATOM     16  H   UNL     1      -5.765  -5.702  -3.223  0.00  0.00    +0.177 HD
BRANCH  14  17
ATOM     17  C   UNL     1      -7.449  -6.417  -5.109  0.00  0.00    +0.077 C 
ATOM     18  C   UNL     1      -7.237  -4.964  -5.540  0.00  0.00    +0.013 C 
ATOM     19  C   UNL     1      -7.101  -4.898  -7.062  0.00  0.00    +0.001 C 
ATOM     20  C   UNL     1      -8.374  -5.442  -7.712  0.00  0.00    +0.000 C 
ATOM     21  C   UNL     1      -8.586  -6.895  -7.282  0.00  0.00    +0.001 C 
ATOM     22  C   UNL     1      -8.722  -6.961  -5.759  0.00  0.00    +0.013 C 
ENDBRANCH  14  17
ENDBRANCH   9  13
BRANCH   1  23
ATOM     23  C   UNL     1      -2.373  -4.258   0.003  0.00  0.00    +0.117 C 
BRANCH  23  24
ATOM     24  C   UNL     1      -2.475  -2.731   0.012  0.00  0.00    +0.060 C 
BRANCH  24  25
ATOM     25  C   UNL     1      -1.070  -2.126   0.001  0.00  0.00    +0.230 C 
BRANCH  25  26
ATOM     26  O   UNL     1      -1.165  -0.701   0.010  0.00  0.00    -0.492 OA
BRANCH  26  32
ATOM     27  C   UNL     1      -0.017   1.383   0.010  0.00  0.00    +0.047 A 
ATOM     28  C   UNL     1       1.171   2.089   0.002  0.00  0.00    +0.019 A 
ATOM     29  C   UNL     1       2.378   1.414  -0.013  0.00  0.00    +0.018 A 
ATOM     30  C   UNL     1       2.399   0.030  -0.022  0.00  0.00    +0.019 A 
ATOM     31  C   UNL     1       1.214  -0.679  -0.014  0.00  0.00    +0.047 A 
ATOM     32  C   UNL     1       0.002  -0.004   0.002  0.00  0.00    +0.121 A 
ATOM     33 BR   UNL     1       4.002   2.383  -0.024  0.00  0.00    -0.050 Br
ENDBRANCH  26  32
ENDBRANCH  25  26
ENDBRANCH  24  25
ENDBRANCH  23  24
ENDBRANCH   1  23
TORSDOF 7
