REMARK  Name = ZINC41027099
REMARK  9 active torsions:
REMARK  status: ('A' for Active; 'I' for Inactive)
REMARK    1  A    between atoms: C_1  and  C_2
REMARK    2  A    between atoms: C_2  and  C_3
REMARK    3  A    between atoms: C_2  and  C_4
REMARK    4  A    between atoms: C_2  and  O_5
REMARK    5  A    between atoms: O_5  and  C_6
REMARK    6  A    between atoms: C_7  and  N_22
REMARK    7  A    between atoms: C_10  and  S_12
REMARK    8  A    between atoms: S_12  and  C_13
REMARK    9  A    between atoms: C_19  and  N_21
REMARK                            x       y       z     vdW  Elec       q    Type
REMARK                         _______ _______ _______ _____ _____    ______ ____
ROOT
ATOM      1  C   UNL     1       2.059  -0.340  -1.135  0.00  0.00    +0.238 A 
ATOM      2  C   UNL     1       2.794  -0.883  -2.187  0.00  0.00    +0.087 A 
ATOM      3  C   UNL     1       4.141  -0.560  -2.311  0.00  0.00    +0.031 A 
ATOM      4  C   UNL     1       4.704   0.295  -1.377  0.00  0.00    +0.037 A 
ATOM      5  C   UNL     1       3.912   0.800  -0.354  0.00  0.00    +0.108 A 
ATOM      6  N   UNL     1       2.630   0.478  -0.267  0.00  0.00    -0.205 NA
ENDROOT
BRANCH   2   7
ATOM      7  N   UNL     1       2.183  -1.746  -3.109  0.00  0.00    -0.354 N 
ATOM      8  H   UNL     1       1.244  -1.967  -3.017  0.00  0.00    +0.142 HD
ATOM      9  H   UNL     1       2.701  -2.121  -3.839  0.00  0.00    +0.142 HD
ENDBRANCH   2   7
BRANCH   1  10
ATOM     10  O   UNL     1       0.744  -0.648  -1.004  0.00  0.00    -0.469 OA
BRANCH  10  12
ATOM     11  C   UNL     1       0.097   1.379   0.142  0.00  0.00    +0.055 C 
ATOM     12  C   UNL     1       0.073  -0.150   0.155  0.00  0.00    +0.104 C 
ATOM     13  C   UNL     1       0.782  -0.660   1.412  0.00  0.00    +0.055 C 
ATOM     14  C   UNL     1      -1.377  -0.638   0.154  0.00  0.00    +0.055 C 
ENDBRANCH  10  12
ENDBRANCH   1  10
BRANCH   5  15
ATOM     15  S   UNL     1       4.620   1.888   0.837  0.00  0.00    -0.032 S 
BRANCH  15  16
ATOM     16  C   UNL     1       4.279   1.109   2.381  0.00  0.00    +0.177 A 
ATOM     17  N   UNL     1       4.591   1.756   3.538  0.00  0.00    -0.302 N 
ATOM     18  H   UNL     1       4.997   2.637   3.506  0.00  0.00    +0.171 HD
ATOM     19  C   UNL     1       4.337   1.175   4.729  0.00  0.00    +0.254 A 
ATOM     20  O   UNL     1       4.613   1.748   5.771  0.00  0.00    -0.268 OA
ATOM     21  C   UNL     1       3.752  -0.095   4.750  0.00  0.00    +0.113 A 
ATOM     22  C   UNL     1       3.453  -0.711   3.542  0.00  0.00    +0.124 A 
ATOM     23  N   UNL     1       3.722  -0.084   2.392  0.00  0.00    -0.208 NA
BRANCH  22  24
ATOM     24  N   UNL     1       2.874  -1.965   3.529  0.00  0.00    -0.343 N 
ATOM     25  H   UNL     1       2.608  -2.385   4.362  0.00  0.00    +0.144 HD
ATOM     26  H   UNL     1       2.734  -2.425   2.687  0.00  0.00    +0.144 HD
ENDBRANCH  22  24
ENDBRANCH  15  16
ENDBRANCH   5  15
TORSDOF 6
