REMARK  Name = ZINC20728904
REMARK  3 active torsions:
REMARK  status: ('A' for Active; 'I' for Inactive)
REMARK    1  A    between atoms: C_1  and  C_2
REMARK    2  A    between atoms: C_14  and  O_27
REMARK    3  A    between atoms: C_17  and  C_19
REMARK                            x       y       z     vdW  Elec       q    Type
REMARK                         _______ _______ _______ _____ _____    ______ ____
ROOT
ATOM      1  C   UNL     1      -0.129   1.449   0.053  0.00  0.00    +0.068 C 
ATOM      2  C   UNL     1      -0.112  -0.058   0.014  0.00  0.00    +0.067 A 
ATOM      3  C   UNL     1      -0.156  -0.846  -1.151  0.00  0.00    +0.037 A 
ATOM      4  C   UNL     1      -0.126  -2.159  -0.768  0.00  0.00    +0.167 A 
ATOM      5  N   UNL     1      -0.056  -2.164   0.614  0.00  0.00    -0.179 N 
ATOM      6  N   UNL     1      -0.048  -0.841   1.053  0.00  0.00    -0.167 NA
ATOM      7  C   UNL     1       0.001  -3.296   1.425  0.00  0.00    +0.253 A 
ATOM      8  N   UNL     1      -0.005  -4.494   0.863  0.00  0.00    -0.219 NA
ATOM      9  C   UNL     1       0.048  -5.589   1.604  0.00  0.00    +0.116 A 
ATOM     10  C   UNL     1       0.110  -5.469   2.984  0.00  0.00    +0.039 A 
ATOM     11  C   UNL     1       0.114  -4.198   3.538  0.00  0.00    +0.116 A 
ATOM     12  N   UNL     1       0.065  -3.146   2.739  0.00  0.00    -0.219 NA
ATOM     13  N   UNL     1      -0.160  -3.301  -1.473  0.00  0.00    -0.197 NA
ATOM     14  C   UNL     1      -0.225  -3.622  -2.682  0.00  0.00    +0.199 C 
ATOM     15  C   UNL     1      -0.232  -2.770  -3.890  0.00  0.00    +0.165 C 
ATOM     16  S   UNL     1      -1.168  -1.249  -3.676  0.00  0.00    -0.138 S 
ATOM     17  C   UNL     1      -0.220  -0.248  -2.525  0.00  0.00    +0.115 C 
ENDROOT
BRANCH  17  18
ATOM     18  C   UNL     1      -0.851   1.117  -2.433  0.00  0.00    +0.005 A 
ATOM     19  C   UNL     1      -0.062   2.250  -2.501  0.00  0.00    +0.010 A 
ATOM     20  C   UNL     1      -0.640   3.502  -2.417  0.00  0.00    +0.039 A 
ATOM     21  C   UNL     1      -2.011   3.624  -2.264  0.00  0.00    +0.126 A 
ATOM     22  C   UNL     1      -2.802   2.490  -2.195  0.00  0.00    +0.077 A 
ATOM     23  C   UNL     1      -2.223   1.236  -2.285  0.00  0.00    +0.131 A 
ATOM     24  F   UNL     1      -2.995   0.129  -2.224  0.00  0.00    -0.205 F 
ATOM     25  F   UNL     1      -2.576   4.848  -2.181  0.00  0.00    -0.205 F 
ENDBRANCH  17  18
BRANCH  14  26
ATOM     26  O   UNL     1      -0.297  -4.948  -2.918  0.00  0.00    -0.495 OA
ATOM     27  H   UNL     1      -0.291  -5.490  -2.118  0.00  0.00    +0.293 HD
ENDBRANCH  14  26
TORSDOF 2
