REMARK  Name = ZINC39336635
REMARK  8 active torsions:
REMARK  status: ('A' for Active; 'I' for Inactive)
REMARK    1  A    between atoms: C_1  and  C_2
REMARK    2  A    between atoms: C_2  and  O_3
REMARK    3  A    between atoms: O_3  and  C_4
REMARK    4  A    between atoms: C_4  and  C_6
REMARK    5  A    between atoms: C_8  and  N_29
REMARK    6  A    between atoms: C_9  and  C_20
REMARK    7  A    between atoms: C_10  and  N_13
REMARK    8  A    between atoms: N_13  and  C_14
REMARK                            x       y       z     vdW  Elec       q    Type
REMARK                         _______ _______ _______ _____ _____    ______ ____
ROOT
ATOM      1  C   UNL     1      -2.932  -2.363   0.466  0.00  0.00    +0.111 C 
ATOM      2  C   UNL     1      -3.219  -3.585   0.964  0.00  0.00    +0.031 C 
ATOM      3  C   UNL     1      -4.638  -4.055   0.962  0.00  0.00    +0.107 C 
ATOM      4  C   UNL     1      -5.617  -2.863   0.803  0.00  0.00    +0.146 C 
ATOM      5  S   UNL     1      -4.496  -1.667  -0.035  0.00  0.00    -0.094 S 
ENDROOT
BRANCH   3   6
ATOM      6  C   UNL     1      -4.932  -4.774   2.279  0.00  0.00    +0.185 C 
ATOM      7  N   UNL     1      -4.463  -3.965   3.411  0.00  0.00    -0.363 N 
ATOM      8  C   UNL     1      -3.567  -4.665   4.046  0.00  0.00    +0.060 A 
ATOM      9  C   UNL     1      -2.752  -4.397   5.239  0.00  0.00    +0.027 A 
ATOM     10  C   UNL     1      -1.885  -5.333   5.676  0.00  0.00    +0.002 A 
ATOM     11  C   UNL     1      -1.722  -6.573   5.034  0.00  0.00    +0.002 A 
ATOM     12  C   UNL     1      -2.419  -6.920   3.934  0.00  0.00    +0.027 A 
ATOM     13  C   UNL     1      -3.394  -5.978   3.367  0.00  0.00    +0.060 A 
ATOM     14  N   UNL     1      -4.190  -6.040   2.339  0.00  0.00    -0.363 N 
ATOM     15  H   UNL     1      -4.765  -3.073   3.643  0.00  0.00    +0.162 HD
ATOM     16  H   UNL     1      -4.277  -6.786   1.725  0.00  0.00    +0.162 HD
ENDBRANCH   3   6
BRANCH   2  18
ATOM     17  H   UNL     1      -1.397  -3.987   1.788  0.00  0.00    +0.142 HD
ATOM     18  N   UNL     1      -2.221  -4.385   1.466  0.00  0.00    -0.360 N 
ATOM     19  H   UNL     1      -2.341  -5.347   1.499  0.00  0.00    +0.142 HD
ENDBRANCH   2  18
BRANCH   1  20
ATOM     20  C   UNL     1      -1.655  -1.757   0.367  0.00  0.00    +0.347 C 
ATOM     21  O   UNL     1      -0.667  -2.354   0.752  0.00  0.00    -0.244 OA
BRANCH  20  22
ATOM     22  O   UNL     1      -1.535  -0.518  -0.155  0.00  0.00    -0.461 OA
BRANCH  22  24
ATOM     23  C   UNL     1      -0.280   1.431  -0.838  0.00  0.00    +0.048 C 
ATOM     24  C   UNL     1      -0.217   0.031  -0.224  0.00  0.00    +0.229 C 
ENDBRANCH  22  24
ENDBRANCH  20  22
ENDBRANCH   1  20
BRANCH   4  25
ATOM     25  N   UNL     1      -6.058  -2.355   2.104  0.00  0.00    -0.331 N 
ATOM     26  H   UNL     1      -6.282  -2.975   2.816  0.00  0.00    +0.147 HD
BRANCH  25  27
ATOM     27  C   UNL     1      -6.158  -0.979   2.320  0.00  0.00    +0.028 A 
ATOM     28  C   UNL     1      -5.859  -0.446   3.567  0.00  0.00    +0.023 A 
ATOM     29  C   UNL     1      -5.959   0.915   3.777  0.00  0.00    +0.002 A 
ATOM     30  C   UNL     1      -6.355   1.748   2.747  0.00  0.00    +0.000 A 
ATOM     31  C   UNL     1      -6.654   1.221   1.503  0.00  0.00    +0.002 A 
ATOM     32  C   UNL     1      -6.551  -0.139   1.285  0.00  0.00    +0.023 A 
ENDBRANCH  25  27
ENDBRANCH   4  25
TORSDOF 7
