REMARK  Name = ZINC43260391
REMARK  9 active torsions:
REMARK  status: ('A' for Active; 'I' for Inactive)
REMARK    1  A    between atoms: C_1  and  C_2
REMARK    2  A    between atoms: C_2  and  C_3
REMARK    3  A    between atoms: C_3  and  C_5
REMARK    4  A    between atoms: C_3  and  N_22
REMARK    5  A    between atoms: C_5  and  C_7
REMARK    6  A    between atoms: C_5  and  N_13
REMARK    7  A    between atoms: N_16  and  C_19
REMARK    8  A    between atoms: C_19  and  C_20
REMARK    9  A    between atoms: C_20  and  O_21
REMARK                            x       y       z     vdW  Elec       q    Type
REMARK                         _______ _______ _______ _____ _____    ______ ____
ROOT
ATOM      1  C   UNL     1      -1.299  -2.055  -0.074  0.00  0.00    -0.014 C 
ENDROOT
BRANCH   1   2
ATOM      2  N   UNL     1      -0.542  -2.412  -1.282  0.00  0.00    +0.387 N 
ATOM      3  C   UNL     1      -0.518  -3.873  -1.430  0.00  0.00    -0.062 C 
ATOM      4  C   UNL     1       0.254  -4.245  -2.698  0.00  0.00    +0.066 C 
ATOM      5  N   UNL     1       1.624  -3.721  -2.605  0.00  0.00    -0.304 NA
ATOM      6  C   UNL     1       1.615  -2.261  -2.431  0.00  0.00    +0.066 C 
ATOM      7  C   UNL     1       0.832  -1.907  -1.165  0.00  0.00    -0.062 C 
ATOM      8  H   UNL     1      -0.985  -2.000  -2.089  0.00  0.00    -0.081 HD
BRANCH   5   9
ATOM      9  C   UNL     1       2.416  -4.106  -3.781  0.00  0.00    +0.112 C 
BRANCH   9  10
ATOM     10  C   UNL     1       3.888  -3.764  -3.539  0.00  0.00    +0.171 C 
BRANCH  10  11
ATOM     11  O   UNL     1       4.392  -4.562  -2.466  0.00  0.00    -0.394 OA
ATOM     12  H   UNL     1       5.322  -4.398  -2.257  0.00  0.00    +0.209 HD
ENDBRANCH  10  11
ENDBRANCH   9  10
ENDBRANCH   5   9
ENDBRANCH   1   2
BRANCH   1  13
ATOM     13  C   UNL     1      -2.685  -2.640  -0.159  0.00  0.00    -0.021 A 
ATOM     14  C   UNL     1      -3.431  -3.212   0.818  0.00  0.00    +0.011 A 
ATOM     15  C   UNL     1      -4.692  -3.686   0.508  0.00  0.00    +0.023 A 
ATOM     16  C   UNL     1      -5.146  -3.564  -0.765  0.00  0.00    +0.055 A 
ATOM     17  S   UNL     1      -3.773  -2.753  -1.569  0.00  0.00    -0.088 S 
ATOM     18 BR   UNL     1      -6.803  -4.106  -1.496  0.00  0.00    -0.043 Br
ENDBRANCH   1  13
BRANCH   1  19
ATOM     19  C   UNL     1      -1.394  -0.532   0.037  0.00  0.00    +0.042 C 
BRANCH  19  20
ATOM     20  N   UNL     1      -2.162  -0.006  -1.099  0.00  0.00    -0.328 NA
ATOM     21  H   UNL     1      -1.685  -0.183  -1.971  0.00  0.00    +0.118 HD
ATOM     22  H   UNL     1      -3.095  -0.388  -1.113  0.00  0.00    +0.118 HD
ENDBRANCH  19  20
BRANCH  19  24
ATOM     23  C   UNL     1      -2.064   1.360   1.525  0.00  0.00    +0.005 C 
ATOM     24  C   UNL     1      -2.097  -0.159   1.344  0.00  0.00    +0.014 C 
ENDBRANCH  19  24
ENDBRANCH   1  19
TORSDOF 8
