REMARK  Name = ZINC62012250
REMARK  9 active torsions:
REMARK  status: ('A' for Active; 'I' for Inactive)
REMARK    1  A    between atoms: C_1  and  C_2
REMARK    2  A    between atoms: C_2  and  C_4
REMARK    3  A    between atoms: C_2  and  N_11
REMARK    4  A    between atoms: N_11  and  C_12
REMARK    5  A    between atoms: N_11  and  C_13
REMARK    6  A    between atoms: C_13  and  C_15
REMARK    7  A    between atoms: C_13  and  C_21
REMARK    8  A    between atoms: C_21  and  C_23
REMARK    9  A    between atoms: C_21  and  N_24
REMARK                            x       y       z     vdW  Elec       q    Type
REMARK                         _______ _______ _______ _____ _____    ______ ____
ROOT
ATOM      1  C   UNL     1       0.036   0.310  -2.754  0.00  0.00    +0.079 C 
ENDROOT
BRANCH   1   2
ATOM      2  C   UNL     1       1.248   0.455  -3.638  0.00  0.00    +0.006 A 
ATOM      3  C   UNL     1       1.400   1.194  -4.764  0.00  0.00    +0.028 A 
ATOM      4  C   UNL     1       2.617   1.175  -5.420  0.00  0.00    +0.025 A 
ATOM      5  C   UNL     1       3.623   0.418  -4.917  0.00  0.00    +0.060 A 
ATOM      6  S   UNL     1       2.859  -0.296  -3.469  0.00  0.00    -0.099 S 
ATOM      7 BR   UNL     1       2.875   2.190  -6.995  0.00  0.00    -0.050 Br
ENDBRANCH   1   2
BRANCH   1   8
ATOM      8  N   UNL     1       0.439   0.436  -1.347  0.00  0.00    -0.293 NA
ATOM      9  C   UNL     1       0.994  -0.827  -0.843  0.00  0.00    +0.106 C 
BRANCH   8  11
ATOM     10  C   UNL     1      -1.112   2.290  -0.951  0.00  0.00    +0.029 C 
ATOM     11  C   UNL     1      -0.686   0.886  -0.516  0.00  0.00    +0.084 C 
BRANCH  11  12
ATOM     12  C   UNL     1      -0.263   0.915   0.930  0.00  0.00    -0.030 A 
ATOM     13  C   UNL     1       0.997   1.371   1.272  0.00  0.00    +0.006 A 
ATOM     14  C   UNL     1       1.385   1.397   2.598  0.00  0.00    +0.020 A 
ATOM     15  C   UNL     1       0.514   0.967   3.583  0.00  0.00    +0.041 A 
ATOM     16  C   UNL     1      -0.746   0.511   3.240  0.00  0.00    +0.020 A 
ATOM     17  C   UNL     1      -1.136   0.490   1.914  0.00  0.00    +0.006 A 
ATOM     18 CL   UNL     1       1.002   0.999   5.249  0.00  0.00    -0.084 Cl
ENDBRANCH  11  12
ENDBRANCH   8  11
ENDBRANCH   1   8
BRANCH   1  19
ATOM     19  C   UNL     1      -0.599  -1.063  -2.982  0.00  0.00    -0.056 C 
ATOM     20  C   UNL     1      -1.909  -1.155  -2.195  0.00  0.00    -0.012 C 
BRANCH  19  21
ATOM     21  N   UNL     1      -0.874  -1.244  -4.413  0.00  0.00    +0.381 N 
ATOM     22  H   UNL     1      -0.011  -1.183  -4.932  0.00  0.00    -0.090 HD
ATOM     23  H   UNL     1      -1.293  -2.150  -4.563  0.00  0.00    -0.090 HD
ATOM     24  H   UNL     1      -1.507  -0.524  -4.728  0.00  0.00    -0.090 HD
ENDBRANCH  19  21
ENDBRANCH   1  19
TORSDOF 6
