REMARK  Name = ZINC49717253
REMARK  9 active torsions:
REMARK  status: ('A' for Active; 'I' for Inactive)
REMARK    1  A    between atoms: C_1  and  C_2
REMARK    2  A    between atoms: C_2  and  C_4
REMARK    3  A    between atoms: C_2  and  N_9
REMARK    4  A    between atoms: N_9  and  C_10
REMARK    5  A    between atoms: N_9  and  S_11
REMARK    6  A    between atoms: S_11  and  C_14
REMARK    7  A    between atoms: C_17  and  C_19
REMARK    8  A    between atoms: C_19  and  C_20
REMARK    9  A    between atoms: C_20  and  N_21
REMARK                            x       y       z     vdW  Elec       q    Type
REMARK                         _______ _______ _______ _____ _____    ______ ____
ROOT
ATOM      1  S   UNL     1       2.068  -1.422   1.019  0.00  0.00    +0.067 S 
ATOM      2  O   UNL     1       2.195  -2.176   2.217  0.00  0.00    -0.152 OA
ATOM      3  O   UNL     1       1.983  -2.034  -0.261  0.00  0.00    -0.152 OA
ENDROOT
BRANCH   1   4
ATOM      4  C   UNL     1       3.449  -0.328   0.964  0.00  0.00    +0.143 A 
ATOM      5  C   UNL     1       4.210   0.137   1.984  0.00  0.00    +0.036 A 
ATOM      6  C   UNL     1       5.256   0.996   1.702  0.00  0.00    +0.013 A 
ATOM      7  C   UNL     1       5.488   1.348   0.414  0.00  0.00    -0.010 A 
ATOM      8  S   UNL     1       4.211   0.449  -0.451  0.00  0.00    -0.074 S 
BRANCH   7   9
ATOM      9  C   UNL     1       6.552   2.258  -0.144  0.00  0.00    +0.023 C 
BRANCH   9  10
ATOM     10  C   UNL     1       7.799   1.438  -0.481  0.00  0.00    -0.081 C 
BRANCH  10  11
ATOM     11  N   UNL     1       8.836   2.326  -1.024  0.00  0.00    +0.378 N 
ATOM     12  H   UNL     1       8.492   2.773  -1.861  0.00  0.00    -0.090 HD
ATOM     13  H   UNL     1       9.070   3.029  -0.340  0.00  0.00    -0.090 HD
ATOM     14  H   UNL     1       9.659   1.785  -1.246  0.00  0.00    -0.090 HD
ENDBRANCH  10  11
ENDBRANCH   9  10
ENDBRANCH   7   9
ENDBRANCH   1   4
BRANCH   1  15
ATOM     15  N   UNL     1       0.711  -0.489   1.189  0.00  0.00    -0.172 NA
ATOM     16  C   UNL     1       0.218  -0.149   2.526  0.00  0.00    +0.132 C 
BRANCH  15  18
ATOM     17  C   UNL     1      -0.019   1.526   0.010  0.00  0.00    +0.031 C 
ATOM     18  C   UNL     1       0.002  -0.004   0.002  0.00  0.00    +0.113 C 
BRANCH  18  19
ATOM     19  C   UNL     1      -1.412  -0.526   0.013  0.00  0.00    +0.008 A 
ATOM     20  C   UNL     1      -2.157  -0.992  -1.019  0.00  0.00    +0.013 A 
ATOM     21  C   UNL     1      -3.447  -1.425  -0.772  0.00  0.00    +0.008 A 
ATOM     22  C   UNL     1      -3.927  -1.370   0.494  0.00  0.00    +0.045 A 
ATOM     23  S   UNL     1      -2.537  -0.697   1.389  0.00  0.00    -0.100 S 
ENDBRANCH  18  19
ENDBRANCH  15  18
ENDBRANCH   1  15
TORSDOF 7
