REMARK  Name = ZINC39491686
REMARK  13 active torsions:
REMARK  status: ('A' for Active; 'I' for Inactive)
REMARK    1  A    between atoms: C_1  and  C_2
REMARK    2  A    between atoms: C_2  and  C_3
REMARK    3  A    between atoms: C_3  and  N_4
REMARK    4  A    between atoms: N_4  and  C_5
REMARK    5  A    between atoms: C_5  and  C_6
REMARK    6  A    between atoms: N_8  and  C_19
REMARK    7  A    between atoms: C_12  and  C_15
REMARK    8  A    between atoms: C_15  and  O_17
REMARK    9  A    between atoms: O_17  and  C_18
REMARK   10  A    between atoms: C_19  and  C_20
REMARK   11  A    between atoms: C_20  and  C_22
REMARK   12  A    between atoms: C_20  and  C_28
REMARK   13  A    between atoms: C_33  and  O_34
REMARK                            x       y       z     vdW  Elec       q    Type
REMARK                         _______ _______ _______ _____ _____    ______ ____
ROOT
ATOM      1  C   UNL     1       1.308  -4.070  -2.327  0.00  0.00    -0.039 A 
ATOM      2  C   UNL     1       2.282  -4.904  -1.930  0.00  0.00    +0.088 A 
ATOM      3  N   UNL     1       1.974  -6.188  -2.294  0.00  0.00    -0.346 N 
ATOM      4  C   UNL     1       0.767  -6.213  -2.950  0.00  0.00    +0.049 A 
ATOM      5  C   UNL     1       0.291  -4.888  -2.995  0.00  0.00    +0.002 A 
ATOM      6  C   UNL     1      -0.929  -4.606  -3.602  0.00  0.00    +0.025 A 
ATOM      7  C   UNL     1      -1.671  -5.645  -4.158  0.00  0.00    +0.060 A 
ATOM      8  C   UNL     1      -1.188  -6.960  -4.104  0.00  0.00    +0.017 A 
ATOM      9  C   UNL     1       0.011  -7.237  -3.517  0.00  0.00    +0.027 A 
ENDROOT
BRANCH   7  10
ATOM     10  C   UNL     1      -2.967  -5.361  -4.805  0.00  0.00    +0.339 C 
ATOM     11  O   UNL     1      -3.385  -4.222  -4.852  0.00  0.00    -0.245 OA
BRANCH  10  12
ATOM     12  O   UNL     1      -3.685  -6.366  -5.343  0.00  0.00    -0.464 OA
ATOM     13  C   UNL     1      -4.930  -6.019  -5.953  0.00  0.00    +0.280 C 
ENDBRANCH  10  12
ENDBRANCH   7  10
BRANCH   1  14
ATOM     14  C   UNL     1       1.266  -2.578  -2.120  0.00  0.00    -0.045 C 
BRANCH  14  15
ATOM     15  N   UNL     1       0.404  -2.268  -0.972  0.00  0.00    +0.382 N 
ATOM     16  H   UNL     1       0.773  -2.712  -0.144  0.00  0.00    -0.085 HD
ATOM     17  H   UNL     1      -0.529  -2.609  -1.149  0.00  0.00    -0.085 HD
BRANCH  15  18
ATOM     18  C   UNL     1       0.363  -0.813  -0.769  0.00  0.00    -0.082 C 
BRANCH  18  20
ATOM     19  C   UNL     1      -0.578   1.025   0.637  0.00  0.00    +0.002 C 
ATOM     20  C   UNL     1      -0.535  -0.490   0.426  0.00  0.00    -0.022 C 
ENDBRANCH  18  20
ENDBRANCH  15  18
ENDBRANCH  14  15
ENDBRANCH   1  14
BRANCH   3  21
ATOM     21  C   UNL     1       2.810  -7.361  -2.025  0.00  0.00    +0.134 C 
BRANCH  21  22
ATOM     22  C   UNL     1       3.692  -7.648  -3.241  0.00  0.00    +0.072 C 
BRANCH  22  23
ATOM     23  C   UNL     1       2.824  -8.037  -4.411  0.00  0.00    -0.038 A 
ATOM     24  C   UNL     1       2.104  -9.216  -4.375  0.00  0.00    +0.004 A 
ATOM     25  C   UNL     1       1.308  -9.572  -5.447  0.00  0.00    +0.000 A 
ATOM     26  C   UNL     1       1.232  -8.749  -6.556  0.00  0.00    +0.000 A 
ATOM     27  C   UNL     1       1.952  -7.570  -6.591  0.00  0.00    +0.000 A 
ATOM     28  C   UNL     1       2.745  -7.211  -5.517  0.00  0.00    +0.004 A 
ENDBRANCH  22  23
BRANCH  22  29
ATOM     29  C   UNL     1       4.637  -8.777  -2.920  0.00  0.00    +0.003 A 
ATOM     30  C   UNL     1       4.149  -9.962  -2.403  0.00  0.00    +0.008 A 
ATOM     31  C   UNL     1       5.016 -10.997  -2.108  0.00  0.00    +0.001 A 
ATOM     32  C   UNL     1       6.373 -10.851  -2.330  0.00  0.00    +0.004 A 
ATOM     33  C   UNL     1       6.866  -9.669  -2.848  0.00  0.00    +0.046 A 
ATOM     34  C   UNL     1       5.997  -8.630  -3.150  0.00  0.00    +0.121 A 
BRANCH  34  35
ATOM     35  O   UNL     1       6.479  -7.468  -3.664  0.00  0.00    -0.506 OA
ATOM     36  H   UNL     1       6.722  -6.813  -2.996  0.00  0.00    +0.292 HD
ENDBRANCH  34  35
ENDBRANCH  22  29
ENDBRANCH  21  22
ENDBRANCH   3  21
TORSDOF 11
