REMARK  Name = ZINC39631849
REMARK  14 active torsions:
REMARK  status: ('A' for Active; 'I' for Inactive)
REMARK    1  A    between atoms: C_1  and  C_2
REMARK    2  A    between atoms: C_5  and  O_8
REMARK    3  A    between atoms: O_8  and  C_9
REMARK    4  A    between atoms: C_10  and  C_15
REMARK    5  A    between atoms: C_19  and  C_28
REMARK    6  A    between atoms: N_30  and  C_31
REMARK    7  A    between atoms: C_31  and  C_33
REMARK    8  A    between atoms: C_31  and  C_34
REMARK    9  A    between atoms: C_34  and  C_35
REMARK   10  A    between atoms: C_35  and  C_36
REMARK   11  A    between atoms: C_36  and  C_37
REMARK   12  A    between atoms: C_37  and  C_38
REMARK   13  A    between atoms: C_37  and  C_39
REMARK   14  A    between atoms: C_37  and  O_40
REMARK                            x       y       z     vdW  Elec       q    Type
REMARK                         _______ _______ _______ _____ _____    ______ ____
ROOT
ATOM      1  C   UNL     1       0.283  -6.853  -0.106  0.00  0.00    +0.252 C 
ATOM      2  O   UNL     1       0.248  -6.278  -1.176  0.00  0.00    -0.270 OA
ATOM      3  N   UNL     1       0.311  -8.200  -0.065  0.00  0.00    -0.296 N 
ATOM      4  C   UNL     1       0.426  -9.070   1.129  0.00  0.00    +0.121 C 
ATOM      5  C   UNL     1      -0.526 -10.252   0.844  0.00  0.00    +0.100 C 
ATOM      6  C   UNL     1      -0.646 -10.298  -0.689  0.00  0.00    -0.004 C 
ATOM      7  C   UNL     1       0.228  -9.145  -1.204  0.00  0.00    +0.115 C 
ATOM      8  C   UNL     1      -0.131 -11.632  -1.220  0.00  0.00    -0.010 C 
ATOM      9  C   UNL     1      -0.314 -11.676  -2.740  0.00  0.00    -0.082 C 
ATOM     10  N   UNL     1      -1.735 -11.513  -3.068  0.00  0.00    +0.379 N 
ATOM     11  C   UNL     1      -2.200 -10.189  -2.636  0.00  0.00    -0.082 C 
ATOM     12  C   UNL     1      -2.096 -10.082  -1.112  0.00  0.00    -0.010 C 
ATOM     13  H   UNL     1      -1.861 -11.603  -4.065  0.00  0.00    -0.086 HD
ATOM     14  H   UNL     1      -2.272 -12.226  -2.598  0.00  0.00    -0.086 HD
ENDROOT
BRANCH   1  16
ATOM     15  C   UNL     1      -0.436  -4.883   1.257  0.00  0.00    +0.233 A 
ATOM     16  C   UNL     1       0.294  -6.076   1.149  0.00  0.00    +0.099 A 
ATOM     17  C   UNL     1       1.034  -6.516   2.252  0.00  0.00    +0.020 A 
ATOM     18  C   UNL     1       1.011  -5.752   3.406  0.00  0.00    +0.021 A 
ATOM     19  C   UNL     1       0.266  -4.587   3.435  0.00  0.00    +0.114 A 
ATOM     20  N   UNL     1      -0.419  -4.188   2.381  0.00  0.00    -0.220 NA
BRANCH  15  21
ATOM     21  O   UNL     1      -1.159  -4.438   0.201  0.00  0.00    -0.437 OA
BRANCH  21  26
ATOM     22  C   UNL     1      -3.666   0.586   0.640  0.00  0.00    +0.044 C 
ATOM     23  C   UNL     1      -2.995  -0.758   0.523  0.00  0.00    -0.050 A 
ATOM     24  C   UNL     1      -1.615  -0.843   0.520  0.00  0.00    +0.007 A 
ATOM     25  C   UNL     1      -0.998  -2.074   0.412  0.00  0.00    +0.046 A 
ATOM     26  C   UNL     1      -1.764  -3.226   0.307  0.00  0.00    +0.130 A 
ATOM     27  C   UNL     1      -3.148  -3.138   0.311  0.00  0.00    +0.046 A 
ATOM     28  C   UNL     1      -3.761  -1.905   0.424  0.00  0.00    +0.007 A 
ENDBRANCH  21  26
ENDBRANCH  15  21
ENDBRANCH   1  16
BRANCH   5  29
ATOM     29  C   UNL     1       0.062 -11.538   1.365  0.00  0.00    +0.218 C 
ATOM     30  O   UNL     1       1.264 -11.648   1.489  0.00  0.00    -0.275 OA
ATOM     31  N   UNL     1      -0.746 -12.566   1.692  0.00  0.00    -0.312 N 
ATOM     32  H   UNL     1      -1.707 -12.477   1.592  0.00  0.00    +0.149 HD
BRANCH  31  33
ATOM     33  C   UNL     1      -0.174 -13.815   2.198  0.00  0.00    +0.070 C 
ATOM     34  C   UNL     1       0.047 -13.700   3.708  0.00  0.00    +0.028 C 
BRANCH  33  35
ATOM     35  C   UNL     1      -1.135 -14.970   1.911  0.00  0.00    +0.022 C 
BRANCH  35  36
ATOM     36  C   UNL     1      -1.260 -15.165   0.398  0.00  0.00    +0.005 C 
BRANCH  36  37
ATOM     37  C   UNL     1      -2.221 -16.320   0.110  0.00  0.00    +0.034 C 
BRANCH  37  38
ATOM     38  C   UNL     1      -2.345 -16.515  -1.402  0.00  0.00    +0.061 C 
ATOM     39  C   UNL     1      -3.399 -17.585  -1.694  0.00  0.00    +0.041 C 
ATOM     40  C   UNL     1      -2.764 -15.196  -2.054  0.00  0.00    +0.041 C 
BRANCH  38  41
ATOM     41  O   UNL     1      -1.085 -16.931  -1.934  0.00  0.00    -0.389 OA
ATOM     42  H   UNL     1      -1.090 -17.074  -2.890  0.00  0.00    +0.210 HD
ENDBRANCH  38  41
ENDBRANCH  37  38
ENDBRANCH  36  37
ENDBRANCH  35  36
ENDBRANCH  33  35
ENDBRANCH  31  33
ENDBRANCH   5  29
TORSDOF 10
