REMARK  Name = ZINC22325568
REMARK  13 active torsions:
REMARK  status: ('A' for Active; 'I' for Inactive)
REMARK    1  A    between atoms: C_1  and  C_2
REMARK    2  A    between atoms: C_2  and  C_3
REMARK    3  A    between atoms: N_9  and  C_10
REMARK    4  A    between atoms: C_10  and  C_11
REMARK    5  A    between atoms: C_11  and  C_12
REMARK    6  A    between atoms: C_12  and  N_13
REMARK    7  A    between atoms: C_14  and  C_16
REMARK    8  A    between atoms: C_16  and  N_17
REMARK    9  A    between atoms: N_17  and  C_18
REMARK   10  A    between atoms: N_17  and  S_26
REMARK   11  A    between atoms: C_23  and  C_24
REMARK   12  A    between atoms: S_26  and  C_29
REMARK   13  A    between atoms: C_32  and  C_35
REMARK                            x       y       z     vdW  Elec       q    Type
REMARK                         _______ _______ _______ _____ _____    ______ ____
ROOT
ATOM      1  N   UNL     1       2.092   2.091   2.799  0.00  0.00    -0.194 N 
ENDROOT
BRANCH   1   2
ATOM      2  C   UNL     1       0.697   2.059   2.844  0.00  0.00    +0.056 A 
ATOM      3  C   UNL     1      -0.037   2.057   1.664  0.00  0.00    +0.025 A 
ATOM      4  C   UNL     1      -1.417   2.024   1.710  0.00  0.00    +0.003 A 
ATOM      5  C   UNL     1      -2.069   1.995   2.930  0.00  0.00    +0.020 A 
ATOM      6  C   UNL     1      -1.341   1.991   4.107  0.00  0.00    +0.046 A 
ATOM      7  C   UNL     1       0.040   2.029   4.067  0.00  0.00    -0.010 A 
ATOM      8  C   UNL     1       0.832   2.031   5.349  0.00  0.00    +0.047 C 
ATOM      9 CL   UNL     1      -2.164   1.947   5.635  0.00  0.00    -0.083 Cl
ENDBRANCH   1   2
BRANCH   1  10
ATOM     10  S   UNL     1       2.878   3.512   2.470  0.00  0.00    +0.075 S 
ATOM     11  O   UNL     1       4.182   3.161   2.027  0.00  0.00    -0.150 OA
ATOM     12  O   UNL     1       1.990   4.293   1.682  0.00  0.00    -0.150 OA
BRANCH  10  13
ATOM     13  C   UNL     1       3.077   4.364   3.999  0.00  0.00    +0.109 A 
ATOM     14  C   UNL     1       2.163   5.331   4.375  0.00  0.00    +0.029 A 
ATOM     15  C   UNL     1       2.317   5.996   5.577  0.00  0.00    +0.005 A 
ATOM     16  C   UNL     1       3.389   5.701   6.398  0.00  0.00    -0.050 A 
ATOM     17  C   UNL     1       4.305   4.738   6.020  0.00  0.00    +0.005 A 
ATOM     18  C   UNL     1       4.149   4.069   4.820  0.00  0.00    +0.029 A 
ATOM     19  C   UNL     1       3.560   6.430   7.707  0.00  0.00    +0.044 C 
ENDBRANCH  10  13
ENDBRANCH   1  10
BRANCH   1  20
ATOM     20  C   UNL     1       2.861   0.869   3.044  0.00  0.00    +0.227 C 
BRANCH  20  22
ATOM     21  N   UNL     1       3.575  -1.123   1.763  0.00  0.00    -0.314 N 
ATOM     22  C   UNL     1       2.995   0.093   1.759  0.00  0.00    +0.232 C 
ATOM     23  O   UNL     1       2.579   0.563   0.721  0.00  0.00    -0.274 OA
ATOM     24  H   UNL     1       3.952  -1.549   2.704  0.00  0.00    +0.149 HD
BRANCH  21  25
ATOM     25  C   UNL     1       3.705  -1.877   0.513  0.00  0.00    +0.102 C 
BRANCH  25  26
ATOM     26  C   UNL     1       4.394  -3.214   0.793  0.00  0.00    +0.000 C 
BRANCH  26  27
ATOM     27  C   UNL     1       4.529  -4.001  -0.511  0.00  0.00    -0.077 C 
BRANCH  27  33
ATOM     28  C   UNL     1       5.252  -6.110  -1.456  0.00  0.00    -0.069 C 
ATOM     29  C   UNL     1       6.073  -7.371  -1.176  0.00  0.00    -0.015 C 
ATOM     30  C   UNL     1       5.420  -8.156  -0.034  0.00  0.00    -0.003 C 
ATOM     31  C   UNL     1       5.325  -7.258   1.203  0.00  0.00    -0.019 C 
ATOM     32  C   UNL     1       4.526  -6.000   0.854  0.00  0.00    -0.078 C 
ATOM     33  N   UNL     1       5.191  -5.285  -0.242  0.00  0.00    +0.382 N 
ATOM     34  H   UNL     1       6.224  -5.075   0.072  0.00  0.00    -0.081 HD
BRANCH  28  36
ATOM     35  C   UNL     1       5.862  -6.124  -3.878  0.00  0.00    +0.002 C 
ATOM     36  C   UNL     1       5.912  -5.312  -2.582  0.00  0.00    -0.019 C 
ENDBRANCH  28  36
ENDBRANCH  27  33
ENDBRANCH  26  27
ENDBRANCH  25  26
ENDBRANCH  21  25
ENDBRANCH  20  22
ENDBRANCH   1  20
TORSDOF 10
