REMARK  Name = ZINC57877920
REMARK  6 active torsions:
REMARK  status: ('A' for Active; 'I' for Inactive)
REMARK    1  A    between atoms: C_1  and  C_2
REMARK    2  A    between atoms: C_2  and  C_4
REMARK    3  A    between atoms: C_2  and  C_19
REMARK    4  A    between atoms: C_4  and  N_5
REMARK    5  A    between atoms: C_14  and  C_15
REMARK    6  A    between atoms: C_19  and  N_21
REMARK                            x       y       z     vdW  Elec       q    Type
REMARK                         _______ _______ _______ _____ _____    ______ ____
ROOT
ATOM      1  N   UNL     1      -0.058  -0.119  -2.573  0.00  0.00    -0.305 N 
ATOM      2  C   UNL     1      -1.096  -0.862  -3.094  0.00  0.00    +0.161 A 
ATOM      3  C   UNL     1      -1.409  -0.271  -4.331  0.00  0.00    +0.110 A 
ATOM      4  C   UNL     1      -2.438  -0.817  -5.102  0.00  0.00    +0.053 A 
ATOM      5  C   UNL     1      -3.107  -1.922  -4.609  0.00  0.00    +0.061 A 
ATOM      6  C   UNL     1      -2.742  -2.450  -3.380  0.00  0.00    +0.133 A 
ATOM      7  N   UNL     1      -1.768  -1.920  -2.669  0.00  0.00    -0.234 NA
ATOM      8 CL   UNL     1      -4.396  -2.644  -5.522  0.00  0.00    -0.082 Cl
ATOM      9  N   UNL     1      -0.565   0.779  -4.497  0.00  0.00    -0.222 NA
ATOM     10  C   UNL     1       0.222   0.871  -3.464  0.00  0.00    +0.217 A 
ENDROOT
BRANCH  10  11
ATOM     11  C   UNL     1       1.290   1.919  -3.284  0.00  0.00    +0.451 C 
ATOM     12  F   UNL     1       1.102   2.943  -4.218  0.00  0.00    -0.163 F 
ATOM     13  F   UNL     1       1.212   2.447  -1.990  0.00  0.00    -0.163 F 
ATOM     14  F   UNL     1       2.549   1.339  -3.475  0.00  0.00    -0.163 F 
ENDBRANCH  10  11
BRANCH   1  15
ATOM     15  C   UNL     1       0.615  -0.348  -1.292  0.00  0.00    +0.135 C 
BRANCH  15  17
ATOM     16  C   UNL     1       1.486  -2.576  -2.013  0.00  0.00    +0.016 C 
ATOM     17  C   UNL     1       1.878  -1.181  -1.522  0.00  0.00    +0.057 C 
BRANCH  17  18
ATOM     18  C   UNL     1       2.644  -1.300  -0.230  0.00  0.00    +0.051 C 
ATOM     19  S   UNL     1       1.979  -0.813   1.141  0.00  0.00    -0.040 S 
BRANCH  18  20
ATOM     20  N   UNL     1       3.889  -1.816  -0.229  0.00  0.00    -0.355 N 
ATOM     21  H   UNL     1       4.292  -2.111  -1.060  0.00  0.00    +0.143 HD
ATOM     22  H   UNL     1       4.382  -1.892   0.603  0.00  0.00    +0.143 HD
ENDBRANCH  18  20
ENDBRANCH  17  18
ENDBRANCH  15  17
ENDBRANCH   1  15
TORSDOF 5
