REMARK  Name = ZINC35268859
REMARK  4 active torsions:
REMARK  status: ('A' for Active; 'I' for Inactive)
REMARK    1  A    between atoms: C_1  and  N_2
REMARK    2  A    between atoms: N_5  and  S_15
REMARK    3  A    between atoms: C_6  and  C_9
REMARK    4  A    between atoms: S_15  and  C_18
REMARK                            x       y       z     vdW  Elec       q    Type
REMARK                         _______ _______ _______ _____ _____    ______ ____
ROOT
ATOM      1  S   UNL     1      -1.037  -3.860   1.738  0.00  0.00    +0.062 S 
ATOM      2  O   UNL     1      -0.180  -3.863   2.871  0.00  0.00    -0.153 OA
ATOM      3  O   UNL     1      -2.450  -3.765   1.852  0.00  0.00    -0.153 OA
ENDROOT
BRANCH   1   4
ATOM      4  C   UNL     1      -0.702  -5.344   0.849  0.00  0.00    +0.108 A 
ATOM      5  C   UNL     1      -1.589  -5.782  -0.119  0.00  0.00    +0.030 A 
ATOM      6  C   UNL     1      -1.335  -6.944  -0.821  0.00  0.00    +0.030 A 
ATOM      7  C   UNL     1      -0.186  -7.674  -0.555  0.00  0.00    +0.067 A 
ATOM      8  C   UNL     1       0.709  -7.231   0.421  0.00  0.00    +0.069 A 
ATOM      9  C   UNL     1       0.448  -6.061   1.117  0.00  0.00    +0.056 A 
ATOM     10  N   UNL     1       1.750  -8.155   0.461  0.00  0.00    -0.306 N 
ATOM     11  H   UNL     1       2.523  -8.114   1.045  0.00  0.00    +0.170 HD
ATOM     12  C   UNL     1       1.500  -9.116  -0.449  0.00  0.00    +0.325 A 
ATOM     13  O   UNL     1       2.215 -10.076  -0.669  0.00  0.00    -0.247 OA
ATOM     14  N   UNL     1       0.339  -8.853  -1.078  0.00  0.00    -0.306 N 
ATOM     15  H   UNL     1      -0.062  -9.393  -1.777  0.00  0.00    +0.170 HD
ENDBRANCH   1   4
BRANCH   1  20
ATOM     16  C   UNL     1       0.103   1.488   0.077  0.00  0.00    +0.105 C 
ATOM     17  N   UNL     1      -0.011   0.025   0.010  0.00  0.00    -0.302 NA
ATOM     18  C   UNL     1      -1.409  -0.401   0.156  0.00  0.00    +0.101 C 
ATOM     19  C   UNL     1      -1.509  -1.909  -0.099  0.00  0.00    +0.125 C 
ATOM     20  N   UNL     1      -0.554  -2.597   0.783  0.00  0.00    -0.167 NA
ATOM     21  C   UNL     1       0.842  -2.133   0.793  0.00  0.00    +0.124 C 
ATOM     22  C   UNL     1       0.850  -0.617   1.013  0.00  0.00    +0.109 C 
BRANCH  21  23
ATOM     23  C   UNL     1       1.593  -2.814   1.907  0.00  0.00    -0.027 A 
ATOM     24  C   UNL     1       2.349  -3.941   1.643  0.00  0.00    +0.005 A 
ATOM     25  C   UNL     1       3.038  -4.566   2.666  0.00  0.00    +0.000 A 
ATOM     26  C   UNL     1       2.972  -4.064   3.952  0.00  0.00    +0.000 A 
ATOM     27  C   UNL     1       2.217  -2.937   4.216  0.00  0.00    +0.000 A 
ATOM     28  C   UNL     1       1.531  -2.309   3.193  0.00  0.00    +0.005 A 
ENDBRANCH  21  23
ENDBRANCH   1  20
TORSDOF 3
