REMARK  Name = ZINC09615198
REMARK  8 active torsions:
REMARK  status: ('A' for Active; 'I' for Inactive)
REMARK    1  A    between atoms: C_1  and  C_2
REMARK    2  A    between atoms: C_5  and  C_40
REMARK    3  A    between atoms: C_6  and  N_8
REMARK    4  A    between atoms: C_14  and  C_16
REMARK    5  A    between atoms: C_20  and  N_22
REMARK    6  A    between atoms: C_29  and  C_39
REMARK    7  A    between atoms: C_36  and  O_37
REMARK    8  A    between atoms: O_37  and  C_38
REMARK                            x       y       z     vdW  Elec       q    Type
REMARK                         _______ _______ _______ _____ _____    ______ ____
ROOT
ATOM      1  C   UNL     1      -1.310   1.845  -0.426  0.00  0.00    +0.039 A 
ATOM      2  C   UNL     1      -0.039   1.282  -0.292  0.00  0.00    +0.013 A 
ATOM      3  C   UNL     1       1.057   2.095  -0.088  0.00  0.00    +0.003 A 
ATOM      4  C   UNL     1       0.901   3.467  -0.011  0.00  0.00    +0.024 A 
ATOM      5  C   UNL     1      -0.360   4.036  -0.138  0.00  0.00    +0.042 A 
ATOM      6  C   UNL     1      -1.468   3.228  -0.343  0.00  0.00    +0.036 A 
ENDROOT
BRANCH   5   7
ATOM      7  N   UNL     1      -0.512   5.425  -0.060  0.00  0.00    -0.216 N 
ATOM      8  C   UNL     1       0.049   6.195  -1.004  0.00  0.00    +0.310 C 
ATOM      9  O   UNL     1       0.735   5.668  -1.858  0.00  0.00    -0.252 OA
ATOM     10  N   UNL     1      -0.112   7.528  -1.036  0.00  0.00    -0.292 N 
ATOM     11  C   UNL     1      -0.995   8.181  -0.055  0.00  0.00    +0.114 C 
ATOM     12  C   UNL     1      -0.832   7.445   1.278  0.00  0.00    +0.096 C 
ATOM     13  C   UNL     1      -1.273   5.992   1.050  0.00  0.00    +0.185 C 
ATOM     14  O   UNL     1      -2.669   5.984   0.766  0.00  0.00    -0.464 OA
ATOM     15  C   UNL     1      -3.165   6.904  -0.103  0.00  0.00    +0.170 A 
ATOM     16  C   UNL     1      -2.418   7.986  -0.528  0.00  0.00    +0.018 A 
ATOM     17  C   UNL     1      -2.964   8.907  -1.405  0.00  0.00    +0.009 A 
ATOM     18  C   UNL     1      -4.256   8.747  -1.867  0.00  0.00    +0.004 A 
ATOM     19  C   UNL     1      -5.009   7.664  -1.453  0.00  0.00    +0.049 A 
ATOM     20  C   UNL     1      -4.469   6.742  -0.573  0.00  0.00    +0.162 A 
ATOM     21  C   UNL     1      -1.008   5.176   2.317  0.00  0.00    +0.079 C 
ATOM     22  H   UNL     1       0.349   8.059  -1.704  0.00  0.00    +0.151 HD
BRANCH  20  23
ATOM     23  O   UNL     1      -5.210   5.677  -0.166  0.00  0.00    -0.491 OA
ATOM     24  C   UNL     1      -6.537   5.573  -0.686  0.00  0.00    +0.277 C 
ENDBRANCH  20  23
ENDBRANCH   5   7
BRANCH   1  31
ATOM     25  N   UNL     1      -3.391  -1.800   2.192  0.00  0.00    -0.327 N 
ATOM     26  C   UNL     1      -4.431  -1.241   1.318  0.00  0.00    +0.124 C 
ATOM     27  C   UNL     1      -3.842  -0.984  -0.073  0.00  0.00    +0.127 C 
ATOM     28  N   UNL     1      -2.640  -0.149   0.076  0.00  0.00    -0.295 N 
ATOM     29  C   UNL     1      -1.609  -0.577   1.033  0.00  0.00    +0.127 C 
ATOM     30  C   UNL     1      -2.289  -0.847   2.385  0.00  0.00    +0.124 C 
ATOM     31  C   UNL     1      -2.486   0.976  -0.650  0.00  0.00    +0.247 C 
ATOM     32  O   UNL     1      -3.312   1.277  -1.489  0.00  0.00    -0.270 OA
BRANCH  25  38
ATOM     33  C   UNL     1      -5.521  -0.624   6.462  0.00  0.00    +0.044 C 
ATOM     34  C   UNL     1      -4.968  -1.651   5.507  0.00  0.00    -0.049 A 
ATOM     35  C   UNL     1      -4.991  -2.992   5.846  0.00  0.00    +0.004 A 
ATOM     36  C   UNL     1      -4.484  -3.937   4.974  0.00  0.00    +0.005 A 
ATOM     37  C   UNL     1      -3.953  -3.545   3.761  0.00  0.00    -0.029 A 
ATOM     38  C   UNL     1      -3.928  -2.200   3.417  0.00  0.00    +0.033 A 
ATOM     39  C   UNL     1      -4.434  -1.252   4.298  0.00  0.00    +0.026 A 
ATOM     40  C   UNL     1      -3.401  -4.577   2.811  0.00  0.00    +0.045 C 
ENDBRANCH  25  38
ENDBRANCH   1  31
TORSDOF 4
