REMARK  Name = ZINC59115181
REMARK  9 active torsions:
REMARK  status: ('A' for Active; 'I' for Inactive)
REMARK    1  A    between atoms: C_1  and  C_2
REMARK    2  A    between atoms: C_2  and  C_25
REMARK    3  A    between atoms: C_4  and  N_10
REMARK    4  A    between atoms: C_6  and  C_8
REMARK    5  A    between atoms: C_6  and  C_9
REMARK    6  A    between atoms: N_10  and  C_11
REMARK    7  A    between atoms: C_11  and  N_13
REMARK    8  A    between atoms: N_13  and  C_14
REMARK    9  A    between atoms: C_16  and  C_21
REMARK                            x       y       z     vdW  Elec       q    Type
REMARK                         _______ _______ _______ _____ _____    ______ ____
ROOT
ATOM      1  C   UNL     1       3.989  -0.626  -2.979  0.00  0.00    +0.135 C 
ATOM      2  S   UNL     1       5.118   0.190  -1.983  0.00  0.00    -0.019 S 
ENDROOT
BRANCH   1   3
ATOM      3  N   UNL     1       2.836  -1.085  -2.455  0.00  0.00    -0.324 N 
ATOM      4  H   UNL     1       2.196  -1.547  -3.019  0.00  0.00    +0.148 HD
BRANCH   3   8
ATOM      5  C   UNL     1       0.932   0.729   1.078  0.00  0.00    -0.010 C 
ATOM      6  C   UNL     1       0.705  -0.729   0.664  0.00  0.00    -0.072 C 
ATOM      7  C   UNL     1       1.033  -0.903  -0.815  0.00  0.00    +0.009 C 
ATOM      8  C   UNL     1       2.547  -0.886  -1.029  0.00  0.00    +0.069 C 
ATOM      9  C   UNL     1       3.155  -2.035  -0.226  0.00  0.00    +0.009 C 
ATOM     10  C   UNL     1       2.842  -1.871   1.258  0.00  0.00    -0.072 C 
ATOM     11  N   UNL     1       1.433  -1.642   1.527  0.00  0.00    +0.386 N 
ATOM     12  C   UNL     1       3.710  -0.755   1.850  0.00  0.00    -0.010 C 
ATOM     13  C   UNL     1       3.249  -3.185   1.964  0.00  0.00    -0.010 C 
ATOM     14  C   UNL     1      -0.804  -1.020   0.840  0.00  0.00    -0.010 C 
ATOM     15  H   UNL     1       1.340  -1.315   2.493  0.00  0.00    -0.084 HD
ATOM     16  H   UNL     1       0.954  -2.548   1.512  0.00  0.00    -0.084 HD
ENDBRANCH   3   8
ENDBRANCH   1   3
BRANCH   1  17
ATOM     17  N   UNL     1       4.255  -0.809  -4.288  0.00  0.00    -0.296 N 
ATOM     18  H   UNL     1       3.654  -1.340  -4.835  0.00  0.00    +0.154 HD
BRANCH  17  19
ATOM     19  C   UNL     1       5.396  -0.235  -4.858  0.00  0.00    +0.052 A 
ATOM     20  C   UNL     1       5.733   1.080  -4.566  0.00  0.00    +0.037 A 
ATOM     21  C   UNL     1       6.861   1.645  -5.129  0.00  0.00    +0.057 A 
ATOM     22  C   UNL     1       7.654   0.902  -5.984  0.00  0.00    +0.014 A 
ATOM     23  C   UNL     1       7.322  -0.408  -6.278  0.00  0.00    +0.022 A 
ATOM     24  C   UNL     1       6.199  -0.981  -5.713  0.00  0.00    +0.062 A 
ATOM     25 CL   UNL     1       5.786  -2.627  -6.076  0.00  0.00    -0.082 Cl
BRANCH  21  26
ATOM     26  C   UNL     1       7.226   3.072  -4.813  0.00  0.00    +0.417 C 
ATOM     27  F   UNL     1       8.059   3.102  -3.689  0.00  0.00    -0.166 F 
ATOM     28  F   UNL     1       7.896   3.635  -5.904  0.00  0.00    -0.166 F 
ATOM     29  F   UNL     1       6.063   3.804  -4.552  0.00  0.00    -0.166 F 
ENDBRANCH  21  26
ENDBRANCH  17  19
ENDBRANCH   1  17
TORSDOF 5
