REMARK  Name = ZINC59500961
REMARK  6 active torsions:
REMARK  status: ('A' for Active; 'I' for Inactive)
REMARK    1  A    between atoms: C_4  and  C_7
REMARK    2  A    between atoms: C_7  and  C_8
REMARK    3  A    between atoms: C_11  and  C_14
REMARK    4  A    between atoms: C_16  and  C_22
REMARK    5  A    between atoms: C_22  and  C_24
REMARK    6  A    between atoms: C_22  and  O_30
REMARK                            x       y       z     vdW  Elec       q    Type
REMARK                         _______ _______ _______ _____ _____    ______ ____
ROOT
ATOM      1  C   UNL     1       5.450  -1.675   5.388  0.00  0.00    +0.109 C 
ATOM      2  C   UNL     1       6.196  -3.031   5.515  0.00  0.00    +0.131 C 
ATOM      3  N   UNL     1       5.847  -3.706   6.752  0.00  0.00    -0.361 N 
ATOM      4  C   UNL     1       4.776  -3.383   7.418  0.00  0.00    +0.126 C 
ATOM      5  S   UNL     1       4.027  -2.044   6.502  0.00  0.00    -0.083 S 
ATOM      6  N   UNL     1       4.317  -3.953   8.584  0.00  0.00    -0.339 N 
ATOM      7  H   UNL     1       4.810  -4.679   8.995  0.00  0.00    +0.144 HD
ATOM      8  H   UNL     1       3.500  -3.627   8.994  0.00  0.00    +0.144 HD
ATOM      9  H   UNL     1       6.422  -4.411   7.088  0.00  0.00    +0.162 HD
ENDROOT
BRANCH   1  13
ATOM     10  C   UNL     1       4.164  -0.959   1.377  0.00  0.00    -0.043 A 
ATOM     11  C   UNL     1       4.952  -0.028   2.027  0.00  0.00    +0.004 A 
ATOM     12  C   UNL     1       5.368  -0.259   3.325  0.00  0.00    +0.005 A 
ATOM     13  C   UNL     1       4.996  -1.422   3.973  0.00  0.00    -0.032 A 
ATOM     14  C   UNL     1       4.207  -2.353   3.324  0.00  0.00    +0.005 A 
ATOM     15  C   UNL     1       3.788  -2.120   2.027  0.00  0.00    +0.004 A 
BRANCH  10  16
ATOM     16  C   UNL     1       3.711  -0.707  -0.038  0.00  0.00    +0.070 C 
BRANCH  16  20
ATOM     17  C   UNL     1      -0.017   1.378   0.010  0.00  0.00    +0.000 A 
ATOM     18  C   UNL     1       1.171   2.086   0.002  0.00  0.00    +0.000 A 
ATOM     19  C   UNL     1       2.377   1.411  -0.013  0.00  0.00    +0.004 A 
ATOM     20  C   UNL     1       2.396   0.029  -0.020  0.00  0.00    -0.043 A 
ATOM     21  C   UNL     1       1.208  -0.679  -0.012  0.00  0.00    +0.004 A 
ATOM     22  C   UNL     1       0.002  -0.004   0.002  0.00  0.00    +0.000 A 
ENDBRANCH  16  20
ENDBRANCH  10  16
ENDBRANCH   1  13
BRANCH   2  23
ATOM     23  C   UNL     1       7.705  -2.777   5.493  0.00  0.00    +0.168 C 
BRANCH  23  24
ATOM     24  C   UNL     1       8.437  -4.089   5.616  0.00  0.00    -0.017 A 
ATOM     25  C   UNL     1       8.687  -4.849   4.489  0.00  0.00    +0.006 A 
ATOM     26  C   UNL     1       9.358  -6.052   4.602  0.00  0.00    +0.000 A 
ATOM     27  C   UNL     1       9.780  -6.495   5.842  0.00  0.00    +0.000 A 
ATOM     28  C   UNL     1       9.530  -5.734   6.969  0.00  0.00    +0.000 A 
ATOM     29  C   UNL     1       8.862  -4.529   6.855  0.00  0.00    +0.006 A 
ENDBRANCH  23  24
BRANCH  23  30
ATOM     30  O   UNL     1       8.064  -2.145   4.262  0.00  0.00    -0.385 OA
ATOM     31  H   UNL     1       7.851  -2.666   3.476  0.00  0.00    +0.210 HD
ENDBRANCH  23  30
ENDBRANCH   2  23
TORSDOF 6
