REMARK  Name = ZINC43286663
REMARK  8 active torsions:
REMARK  status: ('A' for Active; 'I' for Inactive)
REMARK    1  A    between atoms: C_1  and  C_2
REMARK    2  A    between atoms: C_2  and  C_3
REMARK    3  A    between atoms: C_3  and  C_5
REMARK    4  A    between atoms: C_3  and  N_21
REMARK    5  A    between atoms: C_5  and  C_7
REMARK    6  A    between atoms: C_5  and  N_13
REMARK    7  A    between atoms: C_18  and  C_19
REMARK    8  A    between atoms: C_18  and  C_20
REMARK                            x       y       z     vdW  Elec       q    Type
REMARK                         _______ _______ _______ _____ _____    ______ ____
ROOT
ATOM      1  C   UNL     1       0.897  -1.786   1.365  0.00  0.00    +0.080 C 
ENDROOT
BRANCH   1   2
ATOM      2  N   UNL     1       1.603  -2.279   0.175  0.00  0.00    -0.287 NA
ATOM      3  C   UNL     1       1.444  -1.352  -0.955  0.00  0.00    +0.113 C 
ATOM      4  C   UNL     1       2.242  -1.873  -2.153  0.00  0.00    +0.175 C 
ATOM      5  O   UNL     1       1.803  -3.196  -2.473  0.00  0.00    -0.377 OA
ATOM      6  C   UNL     1       1.944  -4.126  -1.395  0.00  0.00    +0.181 C 
ATOM      7  C   UNL     1       1.143  -3.627  -0.190  0.00  0.00    +0.040 C 
ATOM      8  C   UNL     1       1.354  -4.576   0.992  0.00  0.00    +0.030 C 
ATOM      9  C   UNL     1      -0.344  -3.580  -0.549  0.00  0.00    +0.030 C 
ENDBRANCH   1   2
BRANCH   1  10
ATOM     10  C   UNL     1       1.451  -2.460   2.593  0.00  0.00    +0.006 A 
ATOM     11  C   UNL     1       0.787  -2.988   3.650  0.00  0.00    +0.028 A 
ATOM     12  C   UNL     1       1.511  -3.563   4.678  0.00  0.00    +0.025 A 
ATOM     13  C   UNL     1       2.864  -3.583   4.597  0.00  0.00    +0.060 A 
ATOM     14  S   UNL     1       3.153  -2.777   3.030  0.00  0.00    -0.099 S 
ATOM     15 BR   UNL     1       0.627  -4.312   6.173  0.00  0.00    -0.050 Br
ENDBRANCH   1  10
BRANCH   1  16
ATOM     16  C   UNL     1       1.091  -0.273   1.482  0.00  0.00    -0.053 C 
BRANCH  16  17
ATOM     17  N   UNL     1       0.906   0.138   2.880  0.00  0.00    +0.381 N 
ATOM     18  H   UNL     1      -0.026  -0.106   3.181  0.00  0.00    -0.090 HD
ATOM     19  H   UNL     1       1.582  -0.334   3.462  0.00  0.00    -0.090 HD
ATOM     20  H   UNL     1       1.034   1.136   2.957  0.00  0.00    -0.090 HD
ENDBRANCH  16  17
BRANCH  16  22
ATOM     21  C   UNL     1       0.286   1.955   0.685  0.00  0.00    +0.002 C 
ATOM     22  C   UNL     1       0.066   0.443   0.600  0.00  0.00    -0.018 C 
ENDBRANCH  16  22
ENDBRANCH   1  16
TORSDOF 5
