REMARK  Name = ZINC09705928
REMARK  15 active torsions:
REMARK  status: ('A' for Active; 'I' for Inactive)
REMARK    1  A    between atoms: C_1  and  C_2
REMARK    2  A    between atoms: C_2  and  N_69
REMARK    3  A    between atoms: C_3  and  C_4
REMARK    4  A    between atoms: C_3  and  N_69
REMARK    5  A    between atoms: C_5  and  C_6
REMARK    6  A    between atoms: C_5  and  N_69
REMARK    7  A    between atoms: C_6  and  C_7
REMARK    8  A    between atoms: C_7  and  C_8
REMARK    9  A    between atoms: C_8  and  C_10
REMARK   10  A    between atoms: C_8  and  N_11
REMARK   11  A    between atoms: C_12  and  C_14
REMARK   12  A    between atoms: N_16  and  C_17
REMARK   13  A    between atoms: C_25  and  C_26
REMARK   14  A    between atoms: N_28  and  C_29
REMARK   15  A    between atoms: C_33  and  C_35
REMARK                            x       y       z     vdW  Elec       q    Type
REMARK                         _______ _______ _______ _____ _____    ______ ____
ROOT
ATOM      1  C   UNL     1       2.697   3.992  -0.390  0.00  0.00    +0.093 A 
ATOM      2  C   UNL     1       1.548   3.080  -0.453  0.00  0.00    +0.042 A 
ATOM      3  C   UNL     1       1.343   1.750  -0.085  0.00  0.00    +0.013 A 
ATOM      4  C   UNL     1       0.119   1.174  -0.280  0.00  0.00    +0.001 A 
ATOM      5  C   UNL     1      -0.920   1.904  -0.842  0.00  0.00    +0.004 A 
ATOM      6  C   UNL     1      -0.736   3.219  -1.212  0.00  0.00    +0.047 A 
ATOM      7  C   UNL     1       0.501   3.825  -1.022  0.00  0.00    +0.138 A 
ATOM      8  O   UNL     1       0.965   5.065  -1.274  0.00  0.00    -0.448 OA
ATOM      9  C   UNL     1       2.262   5.180  -0.911  0.00  0.00    +0.212 A 
ENDROOT
BRANCH   1  12
ATOM     10  C   UNL     1       4.423   2.439   0.087  0.00  0.00    +0.303 C 
ATOM     11  O   UNL     1       3.754   1.557  -0.411  0.00  0.00    -0.265 OA
ATOM     12  N   UNL     1       3.965   3.706   0.098  0.00  0.00    -0.274 N 
ATOM     13  H   UNL     1       4.522   4.420   0.447  0.00  0.00    +0.155 HD
BRANCH  10  15
ATOM     14  N   UNL     1       6.209   0.851   0.675  0.00  0.00    -0.305 N 
ATOM     15  C   UNL     1       5.752   2.119   0.687  0.00  0.00    +0.300 C 
ATOM     16  O   UNL     1       6.421   3.000   1.185  0.00  0.00    -0.265 OA
ATOM     17  H   UNL     1       5.675   0.146   0.277  0.00  0.00    +0.149 HD
BRANCH  14  18
ATOM     18  C   UNL     1       7.514   0.537   1.264  0.00  0.00    +0.070 C 
ATOM     19  C   UNL     1       7.353   0.310   2.768  0.00  0.00    +0.028 C 
BRANCH  18  20
ATOM     20  C   UNL     1       8.075  -0.729   0.614  0.00  0.00    +0.020 C 
BRANCH  20  21
ATOM     21  C   UNL     1       8.353  -0.462  -0.867  0.00  0.00    -0.017 C 
BRANCH  21  22
ATOM     22  C   UNL     1       8.914  -1.729  -1.517  0.00  0.00    -0.079 C 
BRANCH  22  23
ATOM     23  N   UNL     1       9.157  -1.462  -2.950  0.00  0.00    +0.379 N 
ATOM     24  H   UNL     1       8.304  -1.068  -3.365  0.00  0.00    -0.082 HD
BRANCH  23  26
ATOM     25  C   UNL     1      11.570  -1.075  -2.576  0.00  0.00    -0.017 C 
ATOM     26  C   UNL     1      10.259  -0.488  -3.103  0.00  0.00    -0.082 C 
ENDBRANCH  23  26
BRANCH  23  27
ATOM     27  C   UNL     1       9.494  -2.720  -3.648  0.00  0.00    -0.082 C 
ATOM     28  C   UNL     1       9.580  -2.444  -5.151  0.00  0.00    -0.017 C 
ENDBRANCH  23  27
ENDBRANCH  22  23
ENDBRANCH  21  22
ENDBRANCH  20  21
ENDBRANCH  18  20
ENDBRANCH  14  18
ENDBRANCH  10  15
ENDBRANCH   1  12
BRANCH   9  29
ATOM     29  C   UNL     1       3.074   6.388  -1.050  0.00  0.00    +0.285 C 
ATOM     30  O   UNL     1       4.260   6.359  -0.778  0.00  0.00    -0.266 OA
ATOM     31  N   UNL     1       2.508   7.534  -1.477  0.00  0.00    -0.279 N 
ATOM     32  H   UNL     1       1.550   7.578  -1.620  0.00  0.00    +0.155 HD
BRANCH  31  33
ATOM     33  C   UNL     1       3.302   8.661  -1.710  0.00  0.00    +0.034 A 
ATOM     34  C   UNL     1       4.593   8.514  -2.200  0.00  0.00    +0.023 A 
ATOM     35  C   UNL     1       5.375   9.629  -2.429  0.00  0.00    +0.002 A 
ATOM     36  C   UNL     1       4.873  10.892  -2.170  0.00  0.00    +0.003 A 
ATOM     37  C   UNL     1       3.588  11.042  -1.683  0.00  0.00    -0.049 A 
ATOM     38  C   UNL     1       2.799   9.931  -1.457  0.00  0.00    +0.026 A 
ATOM     39  C   UNL     1       3.045  12.420  -1.403  0.00  0.00    +0.044 C 
ENDBRANCH  31  33
ENDBRANCH   9  29
TORSDOF 11
