REMARK  Name = ZINC59401433
REMARK  7 active torsions:
REMARK  status: ('A' for Active; 'I' for Inactive)
REMARK    1  A    between atoms: C_1  and  C_2
REMARK    2  A    between atoms: C_5  and  N_9
REMARK    3  A    between atoms: C_14  and  N_18
REMARK    4  A    between atoms: C_19  and  C_21
REMARK    5  A    between atoms: C_22  and  C_23
REMARK    6  A    between atoms: C_26  and  C_28
REMARK    7  A    between atoms: C_31  and  N_34
REMARK                            x       y       z     vdW  Elec       q    Type
REMARK                         _______ _______ _______ _____ _____    ______ ____
ROOT
ATOM      1  N   UNL     1       0.131  -9.787   1.318  0.00  0.00    -0.282 N 
ATOM      2  C   UNL     1       0.043 -10.938   0.622  0.00  0.00    +0.241 C 
ATOM      3  O   UNL     1       0.043 -10.914  -0.596  0.00  0.00    -0.270 OA
ATOM      4  H   UNL     1       0.208  -9.809   2.285  0.00  0.00    +0.155 HD
ENDROOT
BRANCH   1  10
ATOM      5  N   UNL     1       1.002  -4.321  -0.323  0.00  0.00    -0.149 N 
ATOM      6  N   UNL     1       0.196  -4.900  -1.143  0.00  0.00    -0.147 NA
ATOM      7  C   UNL     1       0.010  -6.150  -0.750  0.00  0.00    +0.113 A 
ATOM      8  C   UNL     1      -0.729  -7.259  -1.200  0.00  0.00    +0.033 A 
ATOM      9  C   UNL     1      -0.671  -8.427  -0.510  0.00  0.00    +0.025 A 
ATOM     10  C   UNL     1       0.109  -8.560   0.647  0.00  0.00    +0.036 A 
ATOM     11  C   UNL     1       0.848  -7.521   1.133  0.00  0.00    +0.055 A 
ATOM     12  C   UNL     1       0.830  -6.287   0.463  0.00  0.00    +0.115 A 
ATOM     13  N   UNL     1       1.395  -5.100   0.623  0.00  0.00    -0.147 NA
BRANCH   5  18
ATOM     14  C   UNL     1       2.656   1.083  -0.838  0.00  0.00    +0.045 C 
ATOM     15  C   UNL     1       2.217  -0.352  -0.701  0.00  0.00    -0.032 A 
ATOM     16  C   UNL     1       1.344  -0.897  -1.624  0.00  0.00    +0.007 A 
ATOM     17  C   UNL     1       0.939  -2.212  -1.501  0.00  0.00    +0.030 A 
ATOM     18  C   UNL     1       1.411  -2.987  -0.450  0.00  0.00    +0.088 A 
ATOM     19  C   UNL     1       2.288  -2.438   0.475  0.00  0.00    +0.049 A 
ATOM     20  C   UNL     1       2.694  -1.123   0.344  0.00  0.00    +0.046 A 
ATOM     21 CL   UNL     1       3.796  -0.437   1.497  0.00  0.00    -0.083 Cl
ENDBRANCH   5  18
ENDBRANCH   1  10
BRANCH   2  22
ATOM     22  C   UNL     1      -0.048 -12.172   1.306  0.00  0.00    +0.071 C 
ATOM     23  C   UNL     1      -0.136 -13.332   0.605  0.00  0.00    +0.051 C 
BRANCH  23  24
ATOM     24  C   UNL     1      -0.227 -14.566   1.288  0.00  0.00    +0.129 A 
ATOM     25  C   UNL     1      -0.316 -15.815   0.701  0.00  0.00    +0.050 A 
ATOM     26  C   UNL     1      -0.386 -16.744   1.742  0.00  0.00    +0.050 A 
ATOM     27  C   UNL     1      -0.338 -16.042   2.913  0.00  0.00    +0.136 A 
ATOM     28  O   UNL     1      -0.236 -14.732   2.627  0.00  0.00    -0.455 OA
BRANCH  27  29
ATOM     29  C   UNL     1      -0.384 -16.625   4.268  0.00  0.00    +0.017 A 
ATOM     30  C   UNL     1      -0.478 -18.009   4.434  0.00  0.00    +0.014 A 
ATOM     31  C   UNL     1      -0.521 -18.548   5.703  0.00  0.00    +0.033 A 
ATOM     32  C   UNL     1      -0.469 -17.720   6.811  0.00  0.00    +0.126 A 
ATOM     33  C   UNL     1      -0.376 -16.348   6.655  0.00  0.00    +0.033 A 
ATOM     34  C   UNL     1      -0.327 -15.797   5.391  0.00  0.00    +0.014 A 
BRANCH  32  35
ATOM     35  N   UNL     1      -0.515 -18.305   8.170  0.00  0.00    +0.056 N 
ATOM     36  O   UNL     1      -0.597 -19.503   8.310  0.00  0.00    -0.126 OA
ATOM     37  O   UNL     1      -0.471 -17.585   9.140  0.00  0.00    -0.126 OA
ENDBRANCH  32  35
ENDBRANCH  27  29
ENDBRANCH  23  24
ENDBRANCH   2  22
TORSDOF 6
