REMARK  Name = ZINC63659146
REMARK  12 active torsions:
REMARK  status: ('A' for Active; 'I' for Inactive)
REMARK    1  A    between atoms: C_1  and  C_2
REMARK    2  A    between atoms: C_7  and  C_33
REMARK    3  A    between atoms: C_9  and  C_12
REMARK    4  A    between atoms: C_12  and  C_13
REMARK    5  A    between atoms: C_13  and  N_14
REMARK    6  A    between atoms: N_14  and  C_15
REMARK    7  A    between atoms: N_14  and  C_22
REMARK    8  A    between atoms: C_15  and  C_16
REMARK    9  A    between atoms: C_22  and  N_24
REMARK   10  A    between atoms: N_24  and  C_25
REMARK   11  A    between atoms: C_28  and  O_31
REMARK   12  A    between atoms: O_31  and  C_32
REMARK                            x       y       z     vdW  Elec       q    Type
REMARK                         _______ _______ _______ _____ _____    ______ ____
ROOT
ATOM      1  N   UNL     1       0.087  -0.762   5.337  0.00  0.00    -0.306 N 
ENDROOT
BRANCH   1   2
ATOM      2  C   UNL     1      -1.092  -0.672   5.985  0.00  0.00    +0.137 C 
ATOM      3  S   UNL     1      -2.547  -0.519   5.097  0.00  0.00    -0.018 S 
BRANCH   2   4
ATOM      4  N   UNL     1      -1.124  -0.702   7.332  0.00  0.00    -0.297 N 
ATOM      5  H   UNL     1      -0.311  -0.869   7.833  0.00  0.00    +0.154 HD
BRANCH   4   6
ATOM      6  C   UNL     1      -2.333  -0.492   8.008  0.00  0.00    +0.033 A 
ATOM      7  C   UNL     1      -2.658  -1.273   9.109  0.00  0.00    +0.027 A 
ATOM      8  C   UNL     1      -3.849  -1.065   9.776  0.00  0.00    +0.047 A 
ATOM      9  C   UNL     1      -4.722  -0.076   9.345  0.00  0.00    +0.120 A 
ATOM     10  C   UNL     1      -4.398   0.704   8.245  0.00  0.00    +0.047 A 
ATOM     11  C   UNL     1      -3.204   0.501   7.581  0.00  0.00    +0.027 A 
BRANCH   9  12
ATOM     12  O   UNL     1      -5.895   0.128  10.002  0.00  0.00    -0.495 OA
ATOM     13  C   UNL     1      -6.746   1.163   9.504  0.00  0.00    +0.277 C 
ENDBRANCH   9  12
ENDBRANCH   4   6
ENDBRANCH   2   4
ENDBRANCH   1   2
BRANCH   1  14
ATOM     14  C   UNL     1       0.122  -0.730   3.873  0.00  0.00    +0.111 C 
BRANCH  14  15
ATOM     15  C   UNL     1       0.005  -2.155   3.328  0.00  0.00    +0.052 C 
BRANCH  15  23
ATOM     16  C   UNL     1       0.504   2.754   0.617  0.00  0.00    +0.044 C 
ATOM     17  C   UNL     1       0.380   1.283   0.312  0.00  0.00    -0.050 A 
ATOM     18  C   UNL     1       0.370   0.861  -1.025  0.00  0.00    +0.005 A 
ATOM     19  C   UNL     1       0.262  -0.436  -1.379  0.00  0.00    +0.026 A 
ATOM     20  C   UNL     1       0.150  -1.446  -0.384  0.00  0.00    +0.043 A 
ATOM     21  N   UNL     1       0.034  -2.749  -0.472  0.00  0.00    -0.378 N 
ATOM     22  C   UNL     1      -0.045  -3.304   0.884  0.00  0.00    +0.103 C 
ATOM     23  C   UNL     1       0.041  -2.121   1.822  0.00  0.00    -0.037 C 
ATOM     24  C   UNL     1       0.157  -1.027   1.035  0.00  0.00    -0.001 A 
ATOM     25  C   UNL     1       0.285   0.404   1.335  0.00  0.00    +0.013 A 
ATOM     26  C   UNL     1       1.123  -4.262   1.131  0.00  0.00    +0.035 C 
ATOM     27  H   UNL     1       0.006  -3.261  -1.296  0.00  0.00    +0.160 HD
ENDBRANCH  15  23
ENDBRANCH  14  15
ENDBRANCH   1  14
BRANCH   1  28
ATOM     28  C   UNL     1       1.332  -0.893   6.097  0.00  0.00    +0.162 C 
BRANCH  28  29
ATOM     29  C   UNL     1       1.887   0.477   6.392  0.00  0.00    +0.058 A 
ATOM     30  C   UNL     1       1.602   1.083   7.602  0.00  0.00    +0.025 A 
ATOM     31  C   UNL     1       2.117   2.343   7.863  0.00  0.00    +0.003 A 
ATOM     32  C   UNL     1       2.902   2.950   6.894  0.00  0.00    +0.020 A 
ATOM     33  C   UNL     1       3.143   2.282   5.708  0.00  0.00    +0.111 A 
ATOM     34  N   UNL     1       2.642   1.081   5.496  0.00  0.00    -0.258 NA
ENDBRANCH  28  29
ENDBRANCH   1  28
TORSDOF 9
