REMARK  Name = ZINC33625625
REMARK  7 active torsions:
REMARK  status: ('A' for Active; 'I' for Inactive)
REMARK    1  A    between atoms: C_2  and  C_22
REMARK    2  A    between atoms: C_7  and  C_9
REMARK    3  A    between atoms: C_9  and  N_10
REMARK    4  A    between atoms: N_10  and  C_11
REMARK    5  A    between atoms: C_14  and  C_16
REMARK    6  A    between atoms: C_22  and  C_23
REMARK    7  A    between atoms: N_25  and  C_26
REMARK                            x       y       z     vdW  Elec       q    Type
REMARK                         _______ _______ _______ _____ _____    ______ ____
ROOT
ATOM      1  C   UNL     1       0.496   2.708  -1.996  0.00  0.00    +0.072 A 
ATOM      2  C   UNL     1      -0.354   2.046  -1.173  0.00  0.00    +0.059 A 
ATOM      3  N   UNL     1      -1.643   2.072  -1.450  0.00  0.00    -0.229 NA
ATOM      4  C   UNL     1      -2.105   2.732  -2.494  0.00  0.00    +0.165 A 
ATOM      5  S   UNL     1      -0.652   3.380  -3.189  0.00  0.00    -0.060 S 
ATOM      6  N   UNL     1      -3.418   2.869  -2.930  0.00  0.00    -0.263 N 
ATOM      7  C   UNL     1      -3.689   3.589  -4.037  0.00  0.00    +0.236 C 
ATOM      8  O   UNL     1      -2.787   4.117  -4.652  0.00  0.00    -0.274 OA
ATOM      9  H   UNL     1      -4.236   2.390  -2.372  0.00  0.00    +0.157 HD
ENDROOT
BRANCH   7  10
ATOM     10  C   UNL     1      -5.112   3.738  -4.509  0.00  0.00    +0.204 C 
BRANCH  10  11
ATOM     11  N   UNL     1      -5.141   4.559  -5.722  0.00  0.00    -0.289 N 
ATOM     12  C   UNL     1      -5.271   5.897  -5.627  0.00  0.00    +0.219 C 
ATOM     13  O   UNL     1      -5.364   6.421  -4.537  0.00  0.00    -0.275 OA
BRANCH  12  14
ATOM     14  C   UNL     1      -5.300   6.742  -6.874  0.00  0.00    +0.075 C 
ATOM     15  C   UNL     1      -3.995   6.552  -7.650  0.00  0.00    +0.013 C 
ATOM     16  C   UNL     1      -4.025   7.410  -8.916  0.00  0.00    +0.001 C 
ATOM     17  C   UNL     1      -4.179   8.883  -8.531  0.00  0.00    +0.000 C 
ATOM     18  C   UNL     1      -5.484   9.073  -7.755  0.00  0.00    +0.001 C 
ATOM     19  C   UNL     1      -5.454   8.215  -6.489  0.00  0.00    +0.013 C 
ENDBRANCH  12  14
BRANCH  11  20
ATOM     20  C   UNL     1      -5.028   3.926  -7.038  0.00  0.00    +0.077 C 
ATOM     21  C   UNL     1      -5.090   2.398  -7.095  0.00  0.00    +0.024 C 
ATOM     22  C   UNL     1      -3.760   3.121  -7.329  0.00  0.00    +0.024 C 
ENDBRANCH  11  20
ENDBRANCH  10  11
ENDBRANCH   7  10
BRANCH   2  23
ATOM     23  C   UNL     1       0.162   1.294   0.026  0.00  0.00    +0.151 C 
BRANCH  23  24
ATOM     24  C   UNL     1      -0.543   1.780   1.266  0.00  0.00    +0.219 C 
ATOM     25  O   UNL     1      -1.383   2.651   1.184  0.00  0.00    -0.275 OA
ATOM     26  N   UNL     1      -0.242   1.246   2.466  0.00  0.00    -0.304 N 
ATOM     27  H   UNL     1       0.520   0.456   2.540  0.00  0.00    +0.149 HD
BRANCH  26  28
ATOM     28  C   UNL     1      -0.927   1.718   3.671  0.00  0.00    +0.159 C 
ATOM     29  C   UNL     1      -0.729   0.709   4.805  0.00  0.00    +0.032 C 
ATOM     30  C   UNL     1       0.646   0.071   4.722  0.00  0.00    +0.004 C 
ATOM     31  C   UNL     1       1.786   1.037   4.985  0.00  0.00    +0.019 C 
ATOM     32  C   UNL     1       1.884   2.082   3.872  0.00  0.00    +0.104 C 
ATOM     33  N   UNL     1       0.981   3.199   4.194  0.00  0.00    -0.314 N 
ATOM     34  C   UNL     1      -0.345   3.049   4.099  0.00  0.00    +0.233 C 
ATOM     35  O   UNL     1      -1.082   3.975   4.362  0.00  0.00    -0.274 OA
ATOM     36  H   UNL     1       1.395   4.166   4.516  0.00  0.00    +0.149 HD
ENDBRANCH  26  28
ENDBRANCH  23  24
ENDBRANCH   2  23
TORSDOF 7
