REMARK  Name = ZINC32693808
REMARK  6 active torsions:
REMARK  status: ('A' for Active; 'I' for Inactive)
REMARK    1  A    between atoms: C_1  and  C_2
REMARK    2  A    between atoms: C_5  and  S_8
REMARK    3  A    between atoms: S_8  and  C_11
REMARK    4  A    between atoms: C_14  and  C_16
REMARK    5  A    between atoms: C_17  and  N_28
REMARK    6  A    between atoms: C_19  and  C_20
REMARK                            x       y       z     vdW  Elec       q    Type
REMARK                         _______ _______ _______ _____ _____    ______ ____
ROOT
ATOM      1  C   UNL     1      -3.494  -3.856  -2.796  0.00  0.00    +0.005 C 
ATOM      2  C   UNL     1      -2.498  -4.357  -2.030  0.00  0.00    +0.023 C 
ATOM      3  C   UNL     1      -2.310  -3.579  -0.810  0.00  0.00    -0.027 C 
ATOM      4  C   UNL     1      -1.400  -3.822   0.156  0.00  0.00    +0.013 C 
ATOM      5  C   UNL     1      -3.319  -2.452  -0.822  0.00  0.00    +0.042 C 
ATOM      6  C   UNL     1      -4.092  -2.638  -2.139  0.00  0.00    +0.044 C 
ENDROOT
BRANCH   2   7
ATOM      7  N   UNL     1      -1.743  -5.478  -2.364  0.00  0.00    -0.389 NA
ATOM      8  C   UNL     1      -2.269  -6.836  -2.152  0.00  0.00    +0.113 C 
ATOM      9  C   UNL     1      -2.099  -7.625  -3.460  0.00  0.00    +0.177 C 
ATOM     10  O   UNL     1      -0.740  -7.531  -3.891  0.00  0.00    -0.377 OA
ATOM     11  C   UNL     1      -0.314  -6.202  -4.200  0.00  0.00    +0.177 C 
ATOM     12  C   UNL     1      -0.394  -5.340  -2.935  0.00  0.00    +0.113 C 
ATOM     13  H   UNL     1      -2.361  -4.593  -2.151  0.00  0.00    +0.127 HD
ENDBRANCH   2   7
BRANCH   1  17
ATOM     14  C   UNL     1      -5.329  -4.964  -5.762  0.00  0.00    +0.208 A 
ATOM     15  C   UNL     1      -4.291  -5.524  -6.440  0.00  0.00    +0.124 A 
ATOM     16  S   UNL     1      -2.949  -5.229  -5.295  0.00  0.00    -0.054 S 
ATOM     17  C   UNL     1      -3.911  -4.395  -4.040  0.00  0.00    +0.110 A 
ATOM     18  N   UNL     1      -5.125  -4.415  -4.587  0.00  0.00    -0.219 NA
ATOM     19 CL   UNL     1      -4.273  -6.308  -7.988  0.00  0.00    -0.072 Cl
BRANCH  14  20
ATOM     20  S   UNL     1      -6.947  -4.976  -6.460  0.00  0.00    +0.044 S 
ATOM     21  O   UNL     1      -6.984  -6.058  -7.380  0.00  0.00    -0.163 OA
ATOM     22  O   UNL     1      -7.858  -4.866  -5.376  0.00  0.00    -0.163 OA
BRANCH  20  27
ATOM     23  C   UNL     1      -7.522   0.072  -9.715  0.00  0.00    +0.044 C 
ATOM     24  C   UNL     1      -7.379  -1.189  -8.902  0.00  0.00    -0.050 A 
ATOM     25  C   UNL     1      -6.893  -2.340  -9.493  0.00  0.00    +0.005 A 
ATOM     26  C   UNL     1      -6.761  -3.497  -8.747  0.00  0.00    +0.028 A 
ATOM     27  C   UNL     1      -7.115  -3.502  -7.411  0.00  0.00    +0.095 A 
ATOM     28  C   UNL     1      -7.606  -2.352  -6.822  0.00  0.00    +0.028 A 
ATOM     29  C   UNL     1      -7.733  -1.194  -7.566  0.00  0.00    +0.005 A 
ENDBRANCH  20  27
ENDBRANCH  14  20
ENDBRANCH   1  17
BRANCH   4  30
ATOM     30  C   UNL     1      -0.146  -4.519  -0.172  0.00  0.00    -0.025 A 
ATOM     31  C   UNL     1      -0.131  -5.910  -0.312  0.00  0.00    +0.008 A 
ATOM     32  C   UNL     1       1.046  -6.556  -0.625  0.00  0.00    +0.001 A 
ATOM     33  C   UNL     1       2.214  -5.831  -0.790  0.00  0.00    +0.000 A 
ATOM     34  C   UNL     1       2.208  -4.454  -0.648  0.00  0.00    +0.001 A 
ATOM     35  C   UNL     1       1.038  -3.794  -0.341  0.00  0.00    +0.008 A 
ENDBRANCH   4  30
TORSDOF 5
