REMARK  Name = ZINC05078348
REMARK  8 active torsions:
REMARK  status: ('A' for Active; 'I' for Inactive)
REMARK    1  A    between atoms: C_1  and  O_2
REMARK    2  A    between atoms: O_2  and  C_3
REMARK    3  A    between atoms: C_5  and  C_15
REMARK    4  A    between atoms: C_8  and  O_9
REMARK    5  A    between atoms: O_9  and  C_10
REMARK    6  A    between atoms: C_10  and  C_11
REMARK    7  A    between atoms: C_15  and  N_41
REMARK    8  A    between atoms: C_16  and  N_41
REMARK                            x       y       z     vdW  Elec       q    Type
REMARK                         _______ _______ _______ _____ _____    ______ ____
ROOT
ATOM      1  C   UNL     1       0.002  -0.004   0.002  0.00  0.00    +0.163 A 
ATOM      2  C   UNL     1       1.210  -0.682  -0.019  0.00  0.00    +0.051 A 
ATOM      3  C   UNL     1       1.228  -2.064  -0.022  0.00  0.00    -0.060 A 
ATOM      4  C   UNL     1       0.041  -2.774  -0.014  0.00  0.00    +0.020 A 
ATOM      5  C   UNL     1      -1.168  -2.103   0.001  0.00  0.00    +0.059 A 
ATOM      6  C   UNL     1      -1.192  -0.718   0.010  0.00  0.00    +0.176 A 
ATOM      7  I   UNL     1      -2.964  -3.183   0.012  0.00  0.00    -0.040 I 
ENDROOT
BRANCH   1   9
ATOM      8  C   UNL     1       1.248   2.022   0.001  0.00  0.00    +0.277 C 
ATOM      9  O   UNL     1      -0.016   1.356   0.009  0.00  0.00    -0.491 OA
ENDBRANCH   1   9
BRANCH   6  10
ATOM     10  O   UNL     1      -2.381  -0.057   0.025  0.00  0.00    -0.478 OA
BRANCH  10  11
ATOM     11  C   UNL     1      -2.961   0.266  -1.240  0.00  0.00    +0.324 C 
BRANCH  11  12
ATOM     12  C   UNL     1      -4.264   0.991  -1.025  0.00  0.00    +0.248 C 
ATOM     13  O   UNL     1      -4.658   1.210   0.101  0.00  0.00    -0.272 OA
ATOM     14  N   UNL     1      -4.992   1.397  -2.085  0.00  0.00    -0.327 N 
ATOM     15  H   UNL     1      -4.677   1.222  -2.985  0.00  0.00    +0.145 HD
ATOM     16  H   UNL     1      -5.831   1.863  -1.946  0.00  0.00    +0.145 HD
ENDBRANCH  11  12
ENDBRANCH  10  11
ENDBRANCH   6  10
BRANCH   3  17
ATOM     17  C   UNL     1       2.543  -2.800  -0.039  0.00  0.00    -0.046 C 
BRANCH  17  18
ATOM     18  N   UNL     1       2.951  -3.027  -1.438  0.00  0.00    +0.384 N 
ATOM     19  H   UNL     1       3.052  -2.123  -1.913  0.00  0.00    -0.085 HD
ATOM     20  H   UNL     1       2.233  -3.586  -1.913  0.00  0.00    -0.085 HD
BRANCH  18  21
ATOM     21  C   UNL     1       4.238  -3.747  -1.485  0.00  0.00    -0.071 C 
ATOM     22  C   UNL     1       5.408  -2.741  -1.450  0.00  0.00    -0.016 C 
ATOM     23  C   UNL     1       6.463  -3.353  -2.404  0.00  0.00    -0.002 C 
ATOM     24  C   UNL     1       5.594  -3.946  -3.541  0.00  0.00    -0.002 C 
ATOM     25  C   UNL     1       4.357  -4.513  -2.814  0.00  0.00    -0.016 C 
ENDBRANCH  18  21
ENDBRANCH  17  18
ENDBRANCH   3  17
TORSDOF 7
