REMARK  Name = ZINC63205511
REMARK  6 active torsions:
REMARK  status: ('A' for Active; 'I' for Inactive)
REMARK    1  A    between atoms: C_7  and  C_10
REMARK    2  A    between atoms: C_10  and  C_11
REMARK    3  A    between atoms: C_11  and  N_12
REMARK    4  A    between atoms: C_13  and  C_15
REMARK    5  A    between atoms: C_21  and  C_32
REMARK    6  A    between atoms: C_24  and  C_28
REMARK                            x       y       z     vdW  Elec       q    Type
REMARK                         _______ _______ _______ _____ _____    ______ ____
ROOT
ATOM      1  C   UNL     1      -2.483  -6.210  -2.412  0.00  0.00    +0.158 C 
ATOM      2  C   UNL     1      -3.966  -5.814  -2.627  0.00  0.00    +0.065 C 
ATOM      3  C   UNL     1      -4.333  -6.493  -3.951  0.00  0.00    +0.142 C 
ATOM      4  N   UNL     1      -5.242  -5.722  -4.794  0.00  0.00    -0.291 NA
ATOM      5  C   UNL     1      -5.480  -6.464  -6.048  0.00  0.00    +0.123 C 
ATOM      6  C   UNL     1      -4.165  -6.744  -6.773  0.00  0.00    +0.056 C 
ATOM      7  C   UNL     1      -3.157  -7.416  -5.826  0.00  0.00    +0.180 C 
ATOM      8  N   UNL     1      -3.019  -6.580  -4.646  0.00  0.00    -0.213 NA
ATOM      9  N   UNL     1      -2.106  -7.023  -3.602  0.00  0.00    -0.240 NA
ATOM     10  H   UNL     1      -6.109  -5.535  -4.314  0.00  0.00    +0.124 HD
ATOM     11  H   UNL     1      -1.147  -6.856  -3.865  0.00  0.00    +0.142 HD
ENDROOT
BRANCH   5  12
ATOM     12  C   UNL     1      -6.157  -7.772  -5.728  0.00  0.00    +0.122 A 
ATOM     13  C   UNL     1      -6.955  -8.007  -4.671  0.00  0.00    +0.046 A 
ATOM     14  C   UNL     1      -7.369  -9.356  -4.762  0.00  0.00    +0.041 A 
ATOM     15  C   UNL     1      -6.798  -9.864  -5.869  0.00  0.00    +0.195 A 
ATOM     16  O   UNL     1      -6.070  -8.899  -6.454  0.00  0.00    -0.466 OA
ENDBRANCH   5  12
BRANCH   1  18
ATOM     17  N   UNL     1      -1.537  -4.290  -1.172  0.00  0.00    -0.314 N 
ATOM     18  C   UNL     1      -1.621  -4.977  -2.328  0.00  0.00    +0.231 C 
ATOM     19  O   UNL     1      -1.002  -4.604  -3.302  0.00  0.00    -0.274 OA
ATOM     20  H   UNL     1      -2.032  -4.589  -0.393  0.00  0.00    +0.149 HD
BRANCH  17  21
ATOM     21  C   UNL     1      -0.699  -3.092  -1.091  0.00  0.00    +0.108 C 
BRANCH  21  22
ATOM     22  C   UNL     1      -0.780  -2.506   0.320  0.00  0.00    +0.052 C 
BRANCH  22  29
ATOM     23  C   UNL     1      -1.705   1.962  -0.166  0.00  0.00    +0.001 A 
ATOM     24  C   UNL     1      -0.584   2.788  -0.006  0.00  0.00    +0.002 A 
ATOM     25  C   UNL     1       0.646   2.304   0.267  0.00  0.00    +0.026 A 
ATOM     26  C   UNL     1       0.854   0.904   0.403  0.00  0.00    +0.043 A 
ATOM     27  N   UNL     1       1.930   0.202   0.660  0.00  0.00    -0.380 N 
ATOM     28  C   UNL     1       1.567  -1.220   0.687  0.00  0.00    +0.144 C 
ATOM     29  C   UNL     1       0.082  -1.273   0.403  0.00  0.00    -0.040 C 
ATOM     30  C   UNL     1      -0.314   0.009   0.238  0.00  0.00    -0.001 A 
ATOM     31  C   UNL     1      -1.618   0.617  -0.056  0.00  0.00    +0.010 A 
ATOM     32  H   UNL     1       2.819   0.561   0.807  0.00  0.00    +0.160 HD
ENDBRANCH  22  29
ENDBRANCH  21  22
ENDBRANCH  17  21
ENDBRANCH   1  18
BRANCH   7  33
ATOM     33  C   UNL     1      -3.676  -8.793  -5.407  0.00  0.00    +0.406 C 
ATOM     34  F   UNL     1      -3.971  -9.547  -6.549  0.00  0.00    -0.169 F 
ATOM     35  F   UNL     1      -2.697  -9.451  -4.655  0.00  0.00    -0.169 F 
ATOM     36  F   UNL     1      -4.833  -8.642  -4.636  0.00  0.00    -0.169 F 
ENDBRANCH   7  33
TORSDOF 6
