REMARK  Name = ZINC12918200
REMARK  9 active torsions:
REMARK  status: ('A' for Active; 'I' for Inactive)
REMARK    1  A    between atoms: C_1  and  N_51
REMARK    2  A    between atoms: C_2  and  C_3
REMARK    3  A    between atoms: C_2  and  N_51
REMARK    4  A    between atoms: N_5  and  C_6
REMARK    5  A    between atoms: C_10  and  C_12
REMARK    6  A    between atoms: C_17  and  C_18
REMARK    7  A    between atoms: C_17  and  N_51
REMARK    8  A    between atoms: N_20  and  C_21
REMARK    9  A    between atoms: C_21  and  C_27
REMARK                            x       y       z     vdW  Elec       q    Type
REMARK                         _______ _______ _______ _____ _____    ______ ____
ROOT
ATOM      1  C   UNL     1       2.279  -2.914  -0.431  0.00  0.00    +0.019 C 
ENDROOT
BRANCH   1   2
ATOM      2  C   UNL     1       1.967  -4.367  -0.681  0.00  0.00    +0.201 C 
ATOM      3  O   UNL     1       0.815  -4.729  -0.800  0.00  0.00    -0.278 OA
ATOM      4  N   UNL     1       2.968  -5.265  -0.772  0.00  0.00    -0.287 N 
ATOM      5  H   UNL     1       3.891  -4.966  -0.754  0.00  0.00    +0.155 HD
BRANCH   4   6
ATOM      6  C   UNL     1       2.676  -6.629  -0.893  0.00  0.00    +0.034 A 
ATOM      7  C   UNL     1       1.557  -7.159  -0.265  0.00  0.00    +0.025 A 
ATOM      8  C   UNL     1       1.268  -8.504  -0.390  0.00  0.00    +0.022 A 
ATOM      9  C   UNL     1       2.100  -9.325  -1.131  0.00  0.00    +0.053 A 
ATOM     10  C   UNL     1       3.219  -8.800  -1.754  0.00  0.00    +0.075 A 
ATOM     11  C   UNL     1       3.509  -7.455  -1.636  0.00  0.00    +0.037 A 
ATOM     12 CL   UNL     1       1.738 -11.016  -1.282  0.00  0.00    -0.083 Cl
BRANCH  10  13
ATOM     13  C   UNL     1       4.122  -9.697  -2.561  0.00  0.00    +0.419 C 
ATOM     14  F   UNL     1       5.176  -8.944  -3.088  0.00  0.00    -0.166 F 
ATOM     15  F   UNL     1       4.634 -10.705  -1.737  0.00  0.00    -0.166 F 
ATOM     16  F   UNL     1       3.393 -10.274  -3.606  0.00  0.00    -0.166 F 
ENDBRANCH  10  13
ENDBRANCH   4   6
ENDBRANCH   1   2
BRANCH   1  18
ATOM     17  C   UNL     1       0.223  -2.538   0.791  0.00  0.00    -0.095 C 
ATOM     18  N   UNL     1       1.012  -2.154  -0.398  0.00  0.00    +0.389 N 
ATOM     19  H   UNL     1       0.469  -2.372  -1.242  0.00  0.00    -0.081 HD
BRANCH  18  20
ATOM     20  C   UNL     1       1.294  -0.703  -0.371  0.00  0.00    +0.019 C 
BRANCH  20  21
ATOM     21  C   UNL     1       0.000   0.047  -0.559  0.00  0.00    +0.198 C 
ATOM     22  O   UNL     1      -1.041  -0.561  -0.685  0.00  0.00    -0.278 OA
ATOM     23  N   UNL     1       0.001   1.395  -0.589  0.00  0.00    -0.299 N 
ATOM     24  H   UNL     1       0.834   1.882  -0.488  0.00  0.00    +0.150 HD
BRANCH  23  25
ATOM     25  C   UNL     1      -1.255   2.124  -0.778  0.00  0.00    +0.121 C 
ATOM     26  C   UNL     1      -1.879   1.726  -2.117  0.00  0.00    +0.041 C 
ATOM     27  C   UNL     1      -3.191   2.487  -2.315  0.00  0.00    +0.003 C 
ATOM     28  C   UNL     1      -2.914   3.992  -2.309  0.00  0.00    +0.000 C 
ATOM     29  C   UNL     1      -2.290   4.390  -0.970  0.00  0.00    +0.003 C 
ATOM     30  C   UNL     1      -0.977   3.629  -0.772  0.00  0.00    +0.041 C 
BRANCH  25  31
ATOM     31  C   UNL     1      -2.184   1.793   0.314  0.00  0.00    +0.088 C 
ATOM     32  N   UNL     1      -2.902   1.537   1.157  0.00  0.00    -0.194 NA
ENDBRANCH  25  31
ENDBRANCH  23  25
ENDBRANCH  20  21
ENDBRANCH  18  20
ENDBRANCH   1  18
TORSDOF 8
