REMARK  Name = ZINC35034654
REMARK  8 active torsions:
REMARK  status: ('A' for Active; 'I' for Inactive)
REMARK    1  A    between atoms: C_1  and  C_2
REMARK    2  A    between atoms: C_2  and  N_3
REMARK    3  A    between atoms: C_13  and  C_14
REMARK    4  A    between atoms: C_14  and  C_16
REMARK    5  A    between atoms: C_14  and  N_17
REMARK    6  A    between atoms: C_21  and  C_24
REMARK    7  A    between atoms: N_27  and  C_28
REMARK    8  A    between atoms: C_33  and  C_34
REMARK                            x       y       z     vdW  Elec       q    Type
REMARK                         _______ _______ _______ _____ _____    ______ ____
ROOT
ATOM      1  N   UNL     1       4.526  -0.247  -0.513  0.00  0.00    +0.388 N 
ATOM      2  C   UNL     1       4.623  -1.668  -0.869  0.00  0.00    -0.058 C 
ATOM      3  C   UNL     1       5.966  -1.930  -1.559  0.00  0.00    +0.091 C 
ATOM      4  N   UNL     1       7.043  -1.450  -0.680  0.00  0.00    -0.286 N 
ATOM      5  C   UNL     1       6.942  -0.085  -0.142  0.00  0.00    +0.058 C 
ATOM      6  C   UNL     1       5.553   0.090   0.481  0.00  0.00    -0.055 C 
ATOM      7  C   UNL     1       8.019   0.129   0.924  0.00  0.00    +0.026 C 
ATOM      8  C   UNL     1       8.093  -2.239  -0.376  0.00  0.00    +0.307 C 
ATOM      9  O   UNL     1       8.926  -1.861   0.425  0.00  0.00    -0.252 OA
ATOM     10  N   UNL     1       8.219  -3.447  -0.960  0.00  0.00    -0.269 N 
ATOM     11  H   UNL     1       7.606  -3.713  -1.663  0.00  0.00    +0.156 HD
ATOM     12  H   UNL     1       4.663   0.315  -1.339  0.00  0.00    -0.081 HD
ENDROOT
BRANCH  10  13
ATOM     13  C   UNL     1       9.234  -4.319  -0.551  0.00  0.00    +0.046 A 
ATOM     14  C   UNL     1       9.876  -4.119   0.665  0.00  0.00    +0.024 A 
ATOM     15  C   UNL     1      10.877  -4.982   1.066  0.00  0.00    +0.002 A 
ATOM     16  C   UNL     1      11.242  -6.043   0.258  0.00  0.00    +0.001 A 
ATOM     17  C   UNL     1      10.605  -6.245  -0.953  0.00  0.00    +0.014 A 
ATOM     18  C   UNL     1       9.599  -5.390  -1.357  0.00  0.00    +0.076 A 
BRANCH  18  19
ATOM     19  C   UNL     1       8.902  -5.614  -2.674  0.00  0.00    +0.419 C 
ATOM     20  F   UNL     1       9.438  -6.744  -3.299  0.00  0.00    -0.166 F 
ATOM     21  F   UNL     1       7.534  -5.810  -2.450  0.00  0.00    -0.166 F 
ATOM     22  F   UNL     1       9.084  -4.496  -3.494  0.00  0.00    -0.166 F 
ENDBRANCH  18  19
ENDBRANCH  10  13
BRANCH   1  23
ATOM     23  C   UNL     1       3.196   0.026   0.049  0.00  0.00    -0.004 C 
ATOM     24  C   UNL     1       3.051   1.526   0.310  0.00  0.00    -0.005 C 
BRANCH  23  35
ATOM     25  N   UNL     1       1.292  -1.413  -0.552  0.00  0.00    -0.298 N 
ATOM     26  C   UNL     1       0.321  -1.845  -1.391  0.00  0.00    +0.262 A 
ATOM     27  O   UNL     1      -0.448  -2.731  -1.066  0.00  0.00    -0.267 OA
ATOM     28  C   UNL     1       0.230  -1.201  -2.710  0.00  0.00    +0.066 A 
ATOM     29  C   UNL     1      -0.733  -1.572  -3.646  0.00  0.00    +0.035 A 
ATOM     30  C   UNL     1      -0.773  -0.934  -4.868  0.00  0.00    +0.042 A 
ATOM     31  C   UNL     1       0.137   0.071  -5.170  0.00  0.00    +0.022 A 
ATOM     32  C   UNL     1       1.097   0.450  -4.259  0.00  0.00    +0.030 A 
ATOM     33  C   UNL     1       1.157  -0.180  -3.014  0.00  0.00    +0.078 A 
ATOM     34  N   UNL     1       2.086   0.164  -2.087  0.00  0.00    -0.235 NA
ATOM     35  C   UNL     1       2.138  -0.419  -0.928  0.00  0.00    +0.099 A 
ATOM     36 CL   UNL     1      -1.971  -1.392  -6.038  0.00  0.00    -0.084 Cl
BRANCH  25  38
ATOM     37  C   UNL     1       0.622  -1.207   1.791  0.00  0.00    +0.027 C 
ATOM     38  C   UNL     1       1.427  -2.020   0.774  0.00  0.00    +0.123 C 
ENDBRANCH  25  38
ENDBRANCH  23  35
ENDBRANCH   1  23
TORSDOF 5
