REMARK  Name = ZINC05270108
REMARK  7 active torsions:
REMARK  status: ('A' for Active; 'I' for Inactive)
REMARK    1  A    between atoms: C_1  and  C_2
REMARK    2  A    between atoms: C_5  and  C_8
REMARK    3  A    between atoms: C_8  and  N_9
REMARK    4  A    between atoms: C_10  and  C_12
REMARK    5  A    between atoms: C_12  and  C_14
REMARK    6  A    between atoms: C_12  and  N_15
REMARK    7  A    between atoms: C_16  and  C_18
REMARK                            x       y       z     vdW  Elec       q    Type
REMARK                         _______ _______ _______ _____ _____    ______ ____
ROOT
ATOM      1  N   UNL     1      -0.011   0.966   0.007  0.00  0.00    -0.306 N 
ATOM      2  C   UNL     1       1.147   1.655   0.000  0.00  0.00    +0.200 C 
ATOM      3  O   UNL     1       1.130   2.868   0.007  0.00  0.00    -0.278 OA
ATOM      4  H   UNL     1       0.002  -0.004   0.002  0.00  0.00    +0.149 HD
ENDROOT
BRANCH   2   5
ATOM      5  C   UNL     1       2.462   0.920  -0.017  0.00  0.00    +0.021 C 
ATOM      6  C   UNL     1       2.814   0.465   1.400  0.00  0.00    +0.028 C 
ATOM      7  C   UNL     1       4.228  -0.054   1.438  0.00  0.00    -0.047 A 
ATOM      8  C   UNL     1       4.621  -0.828   2.519  0.00  0.00    +0.004 A 
ATOM      9  C   UNL     1       5.910  -1.316   2.596  0.00  0.00    +0.000 A 
ATOM     10  C   UNL     1       6.814  -1.032   1.590  0.00  0.00    +0.000 A 
ATOM     11  C   UNL     1       6.424  -0.264   0.512  0.00  0.00    +0.002 A 
ATOM     12  C   UNL     1       5.128   0.226   0.432  0.00  0.00    -0.061 A 
ATOM     13  C   UNL     1       4.749   1.057  -0.766  0.00  0.00    -0.045 C 
ATOM     14  N   UNL     1       3.524   1.823  -0.497  0.00  0.00    +0.389 N 
ATOM     15  H   UNL     1       3.717   2.533   0.220  0.00  0.00    -0.084 HD
ATOM     16  H   UNL     1       3.215   2.284  -1.360  0.00  0.00    -0.084 HD
ENDBRANCH   2   5
BRANCH   1  17
ATOM     17  C   UNL     1      -1.290   1.681   0.017  0.00  0.00    +0.156 C 
ATOM     18  C   UNL     1      -1.680   2.047  -1.416  0.00  0.00    +0.038 C 
BRANCH  17  20
ATOM     19  N   UNL     1      -3.619   1.251   0.731  0.00  0.00    -0.310 N 
ATOM     20  C   UNL     1      -2.354   0.799   0.618  0.00  0.00    +0.233 C 
ATOM     21  O   UNL     1      -2.072  -0.317   1.000  0.00  0.00    -0.274 OA
ATOM     22  H   UNL     1      -3.844   2.143   0.425  0.00  0.00    +0.149 HD
BRANCH  19  23
ATOM     23  C   UNL     1      -4.653   0.393   1.315  0.00  0.00    +0.139 C 
BRANCH  23  28
ATOM     24  C   UNL     1      -9.697   3.213   1.354  0.00  0.00    +0.044 C 
ATOM     25  C   UNL     1      -8.382   2.478   1.344  0.00  0.00    -0.050 A 
ATOM     26  C   UNL     1      -8.030   1.706   0.253  0.00  0.00    +0.003 A 
ATOM     27  C   UNL     1      -6.824   1.031   0.243  0.00  0.00    +0.005 A 
ATOM     28  C   UNL     1      -5.968   1.129   1.325  0.00  0.00    -0.030 A 
ATOM     29  C   UNL     1      -6.322   1.898   2.418  0.00  0.00    +0.005 A 
ATOM     30  C   UNL     1      -7.527   2.576   2.426  0.00  0.00    +0.003 A 
ENDBRANCH  23  28
ENDBRANCH  19  23
ENDBRANCH  17  20
ENDBRANCH   1  17
TORSDOF 5
