REMARK  Name = ZINC47970754
REMARK  14 active torsions:
REMARK  status: ('A' for Active; 'I' for Inactive)
REMARK    1  A    between atoms: C_1  and  C_2
REMARK    2  A    between atoms: C_2  and  N_3
REMARK    3  A    between atoms: N_3  and  C_4
REMARK    4  A    between atoms: N_3  and  C_6
REMARK    5  A    between atoms: C_4  and  C_5
REMARK    6  A    between atoms: C_6  and  C_8
REMARK    7  A    between atoms: C_6  and  C_12
REMARK    8  A    between atoms: C_8  and  C_9
REMARK    9  A    between atoms: C_9  and  C_10
REMARK   10  A    between atoms: C_9  and  C_11
REMARK   11  A    between atoms: C_12  and  N_13
REMARK   12  A    between atoms: C_14  and  C_16
REMARK   13  A    between atoms: N_18  and  C_19
REMARK   14  A    between atoms: C_20  and  C_24
REMARK                            x       y       z     vdW  Elec       q    Type
REMARK                         _______ _______ _______ _____ _____    ______ ____
ROOT
ATOM      1  N   UNL     1       2.000   1.913   0.743  0.00  0.00    -0.309 N 
ATOM      2  C   UNL     1       2.355   3.171   1.070  0.00  0.00    +0.299 C 
ATOM      3  O   UNL     1       3.115   3.366   1.997  0.00  0.00    -0.265 OA
ATOM      4  H   UNL     1       1.452   1.753  -0.042  0.00  0.00    +0.149 HD
ENDROOT
BRANCH   2   5
ATOM      5  C   UNL     1       1.814   4.326   0.294  0.00  0.00    +0.304 C 
ATOM      6  O   UNL     1       0.984   4.140  -0.571  0.00  0.00    -0.265 OA
ATOM      7  N   UNL     1       2.249   5.575   0.553  0.00  0.00    -0.272 N 
ATOM      8  H   UNL     1       2.913   5.724   1.245  0.00  0.00    +0.156 HD
BRANCH   7   9
ATOM      9  C   UNL     1       1.748   6.646  -0.167  0.00  0.00    +0.084 A 
ATOM     10  C   UNL     1       2.079   7.988  -0.042  0.00  0.00    +0.065 A 
ATOM     11  C   UNL     1       1.400   8.906  -0.926  0.00  0.00    +0.022 A 
ATOM     12  C   UNL     1       0.515   8.354  -1.778  0.00  0.00    +0.048 A 
ATOM     13  S   UNL     1       0.605   6.619  -1.395  0.00  0.00    -0.081 S 
BRANCH  10  14
ATOM     14  C   UNL     1       3.068   8.450   0.938  0.00  0.00    +0.244 C 
ATOM     15  O   UNL     1       3.621   7.650   1.668  0.00  0.00    -0.270 OA
ATOM     16  N   UNL     1       3.364   9.762   1.029  0.00  0.00    -0.325 N 
ATOM     17  H   UNL     1       2.922  10.400   0.447  0.00  0.00    +0.145 HD
ATOM     18  H   UNL     1       4.017  10.068   1.677  0.00  0.00    +0.145 HD
ENDBRANCH  10  14
ENDBRANCH   7   9
ENDBRANCH   2   5
BRANCH   1  19
ATOM     19  C   UNL     1       2.441   0.788   1.571  0.00  0.00    +0.089 C 
BRANCH  19  20
ATOM     20  C   UNL     1       1.825  -0.508   1.040  0.00  0.00    -0.051 C 
BRANCH  20  21
ATOM     21  N   UNL     1       0.375  -0.494   1.277  0.00  0.00    +0.382 N 
ATOM     22  H   UNL     1       0.052  -1.437   1.438  0.00  0.00    -0.081 HD
BRANCH  21  24
ATOM     23  C   UNL     1       0.643  -0.344   3.707  0.00  0.00    -0.017 C 
ATOM     24  C   UNL     1       0.080   0.332   2.455  0.00  0.00    -0.082 C 
ENDBRANCH  21  24
BRANCH  21  25
ATOM     25  C   UNL     1      -0.308   0.065   0.103  0.00  0.00    -0.082 C 
ATOM     26  C   UNL     1      -0.049  -0.829  -1.111  0.00  0.00    -0.017 C 
ENDBRANCH  21  25
ENDBRANCH  20  21
BRANCH  20  27
ATOM     27  C   UNL     1       2.449  -1.703   1.764  0.00  0.00    -0.011 C 
BRANCH  27  28
ATOM     28  C   UNL     1       1.893  -3.002   1.176  0.00  0.00    -0.019 C 
ATOM     29  C   UNL     1       2.354  -3.143  -0.276  0.00  0.00    +0.007 C 
ATOM     30  C   UNL     1       2.405  -4.190   1.992  0.00  0.00    +0.007 C 
ENDBRANCH  27  28
ENDBRANCH  20  27
ENDBRANCH  19  20
ENDBRANCH   1  19
TORSDOF 10
