REMARK  Name = ZINC63165387
REMARK  8 active torsions:
REMARK  status: ('A' for Active; 'I' for Inactive)
REMARK    1  A    between atoms: C_1  and  C_2
REMARK    2  A    between atoms: C_4  and  N_15
REMARK    3  A    between atoms: C_5  and  C_14
REMARK    4  A    between atoms: N_7  and  C_8
REMARK    5  A    between atoms: C_16  and  C_18
REMARK    6  A    between atoms: C_18  and  C_19
REMARK    7  A    between atoms: C_19  and  C_20
REMARK    8  A    between atoms: C_20  and  C_21
REMARK                            x       y       z     vdW  Elec       q    Type
REMARK                         _______ _______ _______ _____ _____    ______ ____
ROOT
ATOM      1  N   UNL     1       0.442  -0.284  -2.556  0.00  0.00    -0.286 N 
ATOM      2  C   UNL     1       1.272  -0.701  -3.532  0.00  0.00    +0.217 C 
ATOM      3  O   UNL     1       2.257  -1.354  -3.254  0.00  0.00    -0.275 OA
ATOM      4  H   UNL     1      -0.381   0.175  -2.783  0.00  0.00    +0.155 HD
ENDROOT
BRANCH   1   7
ATOM      5  C   UNL     1      -0.174  -2.766  -0.689  0.00  0.00    +0.036 C 
ATOM      6  C   UNL     1       1.051  -1.856  -0.579  0.00  0.00    +0.137 C 
ATOM      7  C   UNL     1       0.769  -0.513  -1.213  0.00  0.00    +0.050 C 
ATOM      8  C   UNL     1       0.887   0.405  -0.270  0.00  0.00    +0.038 C 
ATOM      9  N   UNL     1       1.222  -0.159   0.956  0.00  0.00    -0.266 N 
ATOM     10  N   UNL     1       1.340  -1.553   0.833  0.00  0.00    -0.245 N 
ATOM     11  C   UNL     1       0.684   1.881  -0.495  0.00  0.00    +0.063 C 
ATOM     12  H   UNL     1       1.356   0.339   1.777  0.00  0.00    +0.170 HD
BRANCH  10  13
ATOM     13  C   UNL     1       1.663  -2.465   1.841  0.00  0.00    +0.048 A 
ATOM     14  C   UNL     1       1.744  -3.821   1.552  0.00  0.00    +0.025 A 
ATOM     15  C   UNL     1       2.064  -4.720   2.551  0.00  0.00    +0.002 A 
ATOM     16  C   UNL     1       2.303  -4.271   3.837  0.00  0.00    +0.000 A 
ATOM     17  C   UNL     1       2.223  -2.921   4.127  0.00  0.00    +0.002 A 
ATOM     18  C   UNL     1       1.909  -2.016   3.132  0.00  0.00    +0.025 A 
ENDBRANCH  10  13
ENDBRANCH   1   7
BRANCH   2  19
ATOM     19  C   UNL     1       0.978  -0.357  -4.969  0.00  0.00    +0.096 C 
BRANCH  19  20
ATOM     20  C   UNL     1       2.067  -0.946  -5.868  0.00  0.00    +0.014 C 
BRANCH  20  21
ATOM     21  C   UNL     1       1.769  -0.597  -7.327  0.00  0.00    +0.033 C 
BRANCH  21  22
ATOM     22  C   UNL     1       2.841  -1.178  -8.213  0.00  0.00    -0.042 C 
ATOM     23  C   UNL     1       2.802  -2.359  -8.870  0.00  0.00    -0.001 A 
ATOM     24  C   UNL     1       1.788  -3.417  -8.954  0.00  0.00    +0.010 A 
ATOM     25  C   UNL     1       2.040  -4.509  -9.710  0.00  0.00    +0.001 A 
ATOM     26  C   UNL     1       3.244  -4.656 -10.414  0.00  0.00    +0.002 A 
ATOM     27  C   UNL     1       4.223  -3.728 -10.386  0.00  0.00    +0.026 A 
ATOM     28  C   UNL     1       4.064  -2.538  -9.623  0.00  0.00    +0.043 A 
ATOM     29  N   UNL     1       4.853  -1.508  -9.438  0.00  0.00    -0.380 N 
ATOM     30  C   UNL     1       4.177  -0.554  -8.551  0.00  0.00    +0.144 C 
ATOM     31  H   UNL     1       5.734  -1.393  -9.826  0.00  0.00    +0.160 HD
ENDBRANCH  21  22
ENDBRANCH  20  21
ENDBRANCH  19  20
ENDBRANCH   2  19
TORSDOF 6
