REMARK  Name = ZINC40002618
REMARK  9 active torsions:
REMARK  status: ('A' for Active; 'I' for Inactive)
REMARK    1  A    between atoms: C_1  and  C_2
REMARK    2  A    between atoms: C_2  and  C_4
REMARK    3  A    between atoms: C_2  and  N_15
REMARK    4  A    between atoms: N_6  and  C_7
REMARK    5  A    between atoms: N_15  and  C_16
REMARK    6  A    between atoms: C_16  and  C_18
REMARK    7  A    between atoms: C_16  and  C_28
REMARK    8  A    between atoms: C_28  and  C_29
REMARK    9  A    between atoms: C_28  and  C_30
REMARK                            x       y       z     vdW  Elec       q    Type
REMARK                         _______ _______ _______ _____ _____    ______ ____
ROOT
ATOM      1  N   UNL     1      -1.263  -0.554   0.125  0.00  0.00    +0.391 N 
ATOM      2  H   UNL     1      -1.733  -0.293   0.979  0.00  0.00    -0.084 HD
ATOM      3  H   UNL     1      -0.315  -0.210   0.144  0.00  0.00    -0.084 HD
ENDROOT
BRANCH   1   5
ATOM      4  C   UNL     1      -0.409  -2.420  -1.212  0.00  0.00    -0.004 C 
ATOM      5  C   UNL     1      -1.250  -2.018   0.002  0.00  0.00    +0.014 C 
BRANCH   5   6
ATOM      6  C   UNL     1      -0.655  -2.622   1.248  0.00  0.00    +0.203 C 
ATOM      7  O   UNL     1      -0.278  -1.903   2.150  0.00  0.00    -0.277 OA
ATOM      8  N   UNL     1      -0.541  -3.960   1.360  0.00  0.00    -0.285 N 
ATOM      9  H   UNL     1      -0.768  -4.531   0.609  0.00  0.00    +0.155 HD
BRANCH   8  10
ATOM     10  C   UNL     1      -0.094  -4.527   2.561  0.00  0.00    +0.069 A 
ATOM     11  C   UNL     1      -0.247  -3.836   3.755  0.00  0.00    +0.027 A 
ATOM     12  C   UNL     1       0.194  -4.397   4.938  0.00  0.00    +0.017 A 
ATOM     13  C   UNL     1       0.789  -5.646   4.934  0.00  0.00    +0.021 A 
ATOM     14  C   UNL     1       0.944  -6.338   3.746  0.00  0.00    +0.055 A 
ATOM     15  C   UNL     1       0.499  -5.785   2.559  0.00  0.00    +0.146 A 
ATOM     16  F   UNL     1       0.644  -6.463   1.400  0.00  0.00    -0.204 F 
ATOM     17 BR   UNL     1       1.392  -6.409   6.556  0.00  0.00    -0.050 Br
ENDBRANCH   8  10
ENDBRANCH   5   6
ENDBRANCH   1   5
BRANCH   1  18
ATOM     18  C   UNL     1      -1.972   0.028  -1.023  0.00  0.00    -0.037 C 
BRANCH  18  19
ATOM     19  C   UNL     1      -3.423  -0.376  -0.974  0.00  0.00    -0.057 A 
ATOM     20  C   UNL     1      -4.092  -0.401   0.236  0.00  0.00    +0.006 A 
ATOM     21  C   UNL     1      -5.423  -0.771   0.284  0.00  0.00    +0.049 A 
ATOM     22  C   UNL     1      -6.090  -1.120  -0.880  0.00  0.00    +0.162 A 
ATOM     23  C   UNL     1      -5.418  -1.093  -2.096  0.00  0.00    +0.162 A 
ATOM     24  C   UNL     1      -4.084  -0.716  -2.139  0.00  0.00    +0.051 A 
ATOM     25  O   UNL     1      -6.056  -1.423  -3.252  0.00  0.00    -0.485 OA
ATOM     26  C   UNL     1      -7.285  -2.147  -3.125  0.00  0.00    +0.270 C 
ATOM     27  C   UNL     1      -8.135  -1.465  -2.044  0.00  0.00    +0.270 C 
ATOM     28  O   UNL     1      -7.399  -1.487  -0.816  0.00  0.00    -0.485 OA
ENDBRANCH  18  19
BRANCH  18  29
ATOM     29  C   UNL     1      -1.865   1.553  -0.969  0.00  0.00    -0.027 C 
ATOM     30  C   UNL     1      -0.402   1.968  -1.143  0.00  0.00    +0.006 C 
ATOM     31  C   UNL     1      -2.705   2.163  -2.091  0.00  0.00    +0.006 C 
ENDBRANCH  18  29
ENDBRANCH   1  18
TORSDOF 6
