REMARK  Name = ZINC28630194
REMARK  2 active torsions:
REMARK  status: ('A' for Active; 'I' for Inactive)
REMARK    1  A    between atoms: C_6  and  N_7
REMARK    2  A    between atoms: C_10  and  C_12
REMARK                            x       y       z     vdW  Elec       q    Type
REMARK                         _______ _______ _______ _____ _____    ______ ____
ROOT
ATOM      1  N   UNL     1       2.265   1.819   3.537  0.00  0.00    -0.236 N 
ATOM      2  C   UNL     1       1.529   1.423   2.470  0.00  0.00    +0.049 A 
ATOM      3  C   UNL     1       1.914   2.180   1.418  0.00  0.00    +0.006 A 
ATOM      4  C   UNL     1       2.900   3.057   1.913  0.00  0.00    +0.151 A 
ATOM      5  N   UNL     1       3.055   2.776   3.194  0.00  0.00    -0.161 NA
ATOM      6  C   UNL     1       1.393   2.076   0.011  0.00  0.00    +0.039 C 
ATOM      7  C   UNL     1      -0.042   1.539   0.046  0.00  0.00    +0.005 C 
ATOM      8  C   UNL     1      -0.018   0.013   0.004  0.00  0.00    +0.001 C 
ATOM      9  C   UNL     1       0.712  -0.551   1.219  0.00  0.00    +0.006 C 
ATOM     10  C   UNL     1       0.472   0.350   2.435  0.00  0.00    +0.056 C 
ENDROOT
BRANCH   4  11
ATOM     11  C   UNL     1       3.622   4.093   1.146  0.00  0.00    +0.267 C 
ATOM     12  O   UNL     1       3.463   4.180  -0.056  0.00  0.00    -0.268 OA
ATOM     13  N   UNL     1       4.457   4.941   1.779  0.00  0.00    -0.286 N 
ATOM     14  C   UNL     1       5.133   6.031   1.056  0.00  0.00    +0.127 C 
ATOM     15  C   UNL     1       4.675   7.361   1.671  0.00  0.00    +0.123 C 
ATOM     16  N   UNL     1       4.736   7.305   3.125  0.00  0.00    -0.313 N 
ATOM     17  C   UNL     1       4.721   6.179   3.841  0.00  0.00    +0.230 C 
ATOM     18  O   UNL     1       4.697   6.264   5.051  0.00  0.00    -0.274 OA
ATOM     19  C   UNL     1       4.734   4.811   3.217  0.00  0.00    +0.203 C 
ATOM     20  H   UNL     1       4.799   8.235   3.709  0.00  0.00    +0.149 HD
ENDBRANCH   4  11
BRANCH   1  26
ATOM     21  C   UNL     1       0.954   0.839   5.315  0.00  0.00    +0.030 A 
ATOM     22  C   UNL     1       0.872   0.292   6.580  0.00  0.00    +0.040 A 
ATOM     23  C   UNL     1       2.009   0.181   7.362  0.00  0.00    +0.124 A 
ATOM     24  C   UNL     1       3.231   0.615   6.876  0.00  0.00    +0.040 A 
ATOM     25  C   UNL     1       3.318   1.157   5.609  0.00  0.00    +0.030 A 
ATOM     26  C   UNL     1       2.179   1.269   4.823  0.00  0.00    +0.066 A 
ATOM     27  F   UNL     1       1.926  -0.349   8.602  0.00  0.00    -0.205 F 
ENDBRANCH   1  26
TORSDOF 2
