REMARK  Name = ZINC46763207
REMARK  10 active torsions:
REMARK  status: ('A' for Active; 'I' for Inactive)
REMARK    1  A    between atoms: C_1  and  C_2
REMARK    2  A    between atoms: C_5  and  C_31
REMARK    3  A    between atoms: N_8  and  C_10
REMARK    4  A    between atoms: C_10  and  C_11
REMARK    5  A    between atoms: C_11  and  C_12
REMARK    6  A    between atoms: C_12  and  C_13
REMARK    7  A    between atoms: C_13  and  N_14
REMARK    8  A    between atoms: N_17  and  N_18
REMARK    9  A    between atoms: C_19  and  C_21
REMARK   10  A    between atoms: N_23  and  C_30
REMARK                            x       y       z     vdW  Elec       q    Type
REMARK                         _______ _______ _______ _____ _____    ______ ____
ROOT
ATOM      1  N   UNL     1       2.861   0.005   7.382  0.00  0.00    -0.298 N 
ATOM      2  C   UNL     1       2.440   0.457   8.580  0.00  0.00    +0.316 C 
ATOM      3  O   UNL     1       1.492   1.216   8.645  0.00  0.00    -0.251 OA
ATOM      4  N   UNL     1       3.068   0.066   9.707  0.00  0.00    -0.218 N 
ATOM      5  H   UNL     1       3.617  -0.601   7.331  0.00  0.00    +0.150 HD
ATOM      6  H   UNL     1       2.765   0.391  10.569  0.00  0.00    +0.174 HD
ENDROOT
BRANCH   4   7
ATOM      7  N   UNL     1       4.160  -0.809   9.633  0.00  0.00    -0.229 N 
ATOM      8  C   UNL     1       4.789  -1.199  10.759  0.00  0.00    +0.262 C 
ATOM      9  O   UNL     1       4.408  -0.791  11.841  0.00  0.00    -0.269 OA
ATOM     10  H   UNL     1       4.463  -1.134   8.771  0.00  0.00    +0.173 HD
BRANCH   8  11
ATOM     11  C   UNL     1       5.933  -2.117  10.681  0.00  0.00    +0.063 A 
ATOM     12  C   UNL     1       6.476  -2.651   9.550  0.00  0.00    +0.099 A 
ATOM     13  N   UNL     1       7.519  -3.451   9.876  0.00  0.00    -0.349 N 
ATOM     14  C   UNL     1       7.701  -3.472  11.243  0.00  0.00    +0.050 A 
ATOM     15  C   UNL     1       6.726  -2.637  11.811  0.00  0.00    +0.012 A 
ATOM     16  C   UNL     1       6.673  -2.462  13.191  0.00  0.00    +0.011 A 
ATOM     17  C   UNL     1       7.585  -3.110  13.996  0.00  0.00    +0.001 A 
ATOM     18  C   UNL     1       8.552  -3.933  13.437  0.00  0.00    +0.002 A 
ATOM     19  C   UNL     1       8.610  -4.121  12.072  0.00  0.00    +0.026 A 
ATOM     20  C   UNL     1       8.339  -4.190   8.912  0.00  0.00    +0.149 C 
ENDBRANCH   8  11
ENDBRANCH   4   7
BRANCH   1  21
ATOM     21  C   UNL     1       2.178   0.429   6.158  0.00  0.00    +0.106 C 
BRANCH  21  22
ATOM     22  C   UNL     1       2.850  -0.222   4.947  0.00  0.00    +0.017 C 
BRANCH  22  23
ATOM     23  C   UNL     1       2.136   0.221   3.668  0.00  0.00    -0.017 C 
BRANCH  23  24
ATOM     24  C   UNL     1       2.808  -0.431   2.458  0.00  0.00    -0.079 C 
BRANCH  24  30
ATOM     25  C   UNL     1      -0.019   1.526   0.010  0.00  0.00    +0.005 C 
ATOM     26  C   UNL     1       0.002  -0.004   0.002  0.00  0.00    -0.031 C 
ATOM     27  C   UNL     1       0.721  -0.499  -1.257  0.00  0.00    +0.003 C 
ATOM     28  C   UNL     1       2.177  -0.027  -1.220  0.00  0.00    -0.031 C 
ATOM     29  C   UNL     1       2.839  -0.534   0.063  0.00  0.00    -0.076 C 
ATOM     30  N   UNL     1       2.123  -0.005   1.230  0.00  0.00    +0.380 N 
ATOM     31  C   UNL     1       0.744  -0.512   1.240  0.00  0.00    -0.076 C 
ATOM     32  C   UNL     1       2.924  -0.581  -2.434  0.00  0.00    +0.005 C 
ATOM     33  H   UNL     1       2.109   1.003   1.187  0.00  0.00    -0.082 HD
ENDBRANCH  24  30
ENDBRANCH  23  24
ENDBRANCH  22  23
ENDBRANCH  21  22
ENDBRANCH   1  21
TORSDOF 7
