REMARK  Name = ZINC12442587
REMARK  5 active torsions:
REMARK  status: ('A' for Active; 'I' for Inactive)
REMARK    1  A    between atoms: C_1  and  C_2
REMARK    2  A    between atoms: C_2  and  C_3
REMARK    3  A    between atoms: C_2  and  C_4
REMARK    4  A    between atoms: C_7  and  C_10
REMARK    5  A    between atoms: N_22  and  C_25
REMARK                            x       y       z     vdW  Elec       q    Type
REMARK                         _______ _______ _______ _____ _____    ______ ____
ROOT
ATOM      1  C   UNL     1      -0.892  -3.545  -0.007  0.00  0.00    +0.058 C 
ATOM      2  C   UNL     1      -0.336  -2.308  -0.029  0.00  0.00    +0.176 C 
ATOM      3  C   UNL     1      -1.063  -1.028  -0.024  0.00  0.00    +0.231 C 
ATOM      4  O   UNL     1      -2.269  -0.855  -0.001  0.00  0.00    -0.283 OA
ATOM      5  C   UNL     1      -0.004  -0.003  -0.054  0.00  0.00    +0.068 A 
ATOM      6  C   UNL     1      -0.025   1.392  -0.064  0.00  0.00    +0.019 A 
ATOM      7  C   UNL     1       1.148   2.090  -0.094  0.00  0.00    +0.047 A 
ATOM      8  C   UNL     1       2.369   1.415  -0.117  0.00  0.00    +0.130 A 
ATOM      9  C   UNL     1       2.403   0.031  -0.105  0.00  0.00    +0.051 A 
ATOM     10  C   UNL     1       1.217  -0.695  -0.074  0.00  0.00    +0.147 A 
ATOM     11  O   UNL     1       0.987  -2.026  -0.058  0.00  0.00    -0.451 OA
ATOM     12  C   UNL     1       3.716  -0.710  -0.124  0.00  0.00    +0.130 C 
ATOM     13  N   UNL     1       4.787   0.195  -0.565  0.00  0.00    -0.261 NA
ATOM     14  C   UNL     1       4.728   1.456   0.192  0.00  0.00    +0.319 C 
ATOM     15  O   UNL     1       3.519   2.138  -0.151  0.00  0.00    -0.476 OA
ENDROOT
BRANCH  13  16
ATOM     16  C   UNL     1       6.104  -0.441  -0.426  0.00  0.00    +0.083 C 
ATOM     17  C   UNL     1       6.235  -1.572  -1.459  0.00  0.00    +0.043 C 
ATOM     18  C   UNL     1       7.726  -2.014  -1.507  0.00  0.00    +0.167 C 
ATOM     19  S   UNL     1       8.566  -0.376  -1.407  0.00  0.00    -0.029 S 
ATOM     20  O   UNL     1       8.811   0.098  -2.724  0.00  0.00    -0.174 OA
ATOM     21  O   UNL     1       9.641  -0.464  -0.483  0.00  0.00    -0.174 OA
ATOM     22  C   UNL     1       7.211   0.615  -0.656  0.00  0.00    +0.184 C 
ENDBRANCH  13  16
BRANCH   1  26
ATOM     23  C   UNL     1       1.569  -6.980  -0.364  0.00  0.00    -0.045 A 
ATOM     24  C   UNL     1       2.147  -5.727  -0.260  0.00  0.00    +0.004 A 
ATOM     25  C   UNL     1       1.355  -4.605  -0.143  0.00  0.00    +0.008 A 
ATOM     26  C   UNL     1      -0.039  -4.736  -0.131  0.00  0.00    -0.021 A 
ATOM     27  C   UNL     1      -0.616  -6.007  -0.232  0.00  0.00    +0.008 A 
ATOM     28  C   UNL     1       0.191  -7.118  -0.353  0.00  0.00    +0.004 A 
BRANCH  23  30
ATOM     29  C   UNL     1       2.173  -9.146   0.682  0.00  0.00    +0.012 C 
ATOM     30  C   UNL     1       2.443  -8.201  -0.491  0.00  0.00    +0.013 C 
ATOM     31  C   UNL     1       2.130  -8.918  -1.806  0.00  0.00    +0.012 C 
ENDBRANCH  23  30
ENDBRANCH   1  26
TORSDOF 3
