REMARK  Name = ZINC61363049
REMARK  6 active torsions:
REMARK  status: ('A' for Active; 'I' for Inactive)
REMARK    1  A    between atoms: C_1  and  C_2
REMARK    2  A    between atoms: C_2  and  C_4
REMARK    3  A    between atoms: C_2  and  N_9
REMARK    4  A    between atoms: N_9  and  C_10
REMARK    5  A    between atoms: C_10  and  C_11
REMARK    6  A    between atoms: N_13  and  C_14
REMARK                            x       y       z     vdW  Elec       q    Type
REMARK                         _______ _______ _______ _____ _____    ______ ____
ROOT
ATOM      1  C   UNL     1       0.515   0.691  -4.091  0.00  0.00    +0.200 C 
ATOM      2  O   UNL     1       1.559   1.248  -4.358  0.00  0.00    -0.278 OA
ATOM      3  N   UNL     1       0.089  -0.339  -4.849  0.00  0.00    -0.285 N 
ATOM      4  H   UNL     1      -0.707  -0.832  -4.594  0.00  0.00    +0.155 HD
ENDROOT
BRANCH   3   5
ATOM      5  C   UNL     1       0.794  -0.698  -6.004  0.00  0.00    +0.070 A 
ATOM      6  C   UNL     1       1.804  -1.649  -5.936  0.00  0.00    +0.064 A 
ATOM      7  C   UNL     1       2.498  -2.000  -7.079  0.00  0.00    +0.022 A 
ATOM      8  C   UNL     1       2.189  -1.405  -8.288  0.00  0.00    +0.003 A 
ATOM      9  C   UNL     1       1.184  -0.458  -8.360  0.00  0.00    +0.022 A 
ATOM     10  C   UNL     1       0.481  -0.106  -7.222  0.00  0.00    +0.064 A 
ATOM     11 CL   UNL     1      -0.785   1.077  -7.314  0.00  0.00    -0.082 Cl
ATOM     12 CL   UNL     1       2.194  -2.396  -4.418  0.00  0.00    -0.082 Cl
ENDBRANCH   3   5
BRANCH   1  13
ATOM     13  C   UNL     1      -0.304   1.149  -2.912  0.00  0.00    +0.016 C 
BRANCH  13  14
ATOM     14  N   UNL     1       0.370   2.276  -2.256  0.00  0.00    +0.389 N 
ATOM     15  H   UNL     1       0.471   3.037  -2.912  0.00  0.00    -0.084 HD
ATOM     16  H   UNL     1       1.282   1.984  -1.938  0.00  0.00    -0.084 HD
BRANCH  14  18
ATOM     17  C   UNL     1      -1.764   3.283  -1.601  0.00  0.00    -0.009 C 
ATOM     18  C   UNL     1      -0.428   2.723  -1.107  0.00  0.00    -0.043 C 
BRANCH  18  19
ATOM     19  C   UNL     1       0.321   3.797  -0.361  0.00  0.00    -0.055 A 
ATOM     20  C   UNL     1       0.318   3.824   1.021  0.00  0.00    +0.009 A 
ATOM     21  C   UNL     1       1.002   4.803   1.661  0.00  0.00    +0.045 A 
ATOM     22  S   UNL     1       1.682   5.731   0.296  0.00  0.00    -0.105 S 
ATOM     23  C   UNL     1       1.013   4.748  -1.035  0.00  0.00    +0.047 A 
ENDBRANCH  18  19
ENDBRANCH  14  18
ENDBRANCH  13  14
ENDBRANCH   1  13
TORSDOF 5
