REMARK  Name = ZINC15524118
REMARK  7 active torsions:
REMARK  status: ('A' for Active; 'I' for Inactive)
REMARK    1  A    between atoms: C_1  and  C_2
REMARK    2  A    between atoms: C_2  and  C_4
REMARK    3  A    between atoms: C_2  and  N_17
REMARK    4  A    between atoms: N_6  and  C_7
REMARK    5  A    between atoms: C_10  and  S_13
REMARK    6  A    between atoms: S_13  and  N_16
REMARK    7  A    between atoms: C_27  and  C_30
REMARK                            x       y       z     vdW  Elec       q    Type
REMARK                         _______ _______ _______ _____ _____    ______ ____
ROOT
ATOM      1  C   UNL     1      -0.138   1.403   0.587  0.00  0.00    -0.004 C 
ATOM      2  C   UNL     1      -0.101  -0.033   0.062  0.00  0.00    +0.016 C 
ENDROOT
BRANCH   2   3
ATOM      3  N   UNL     1       0.853  -0.820   0.855  0.00  0.00    +0.388 N 
ATOM      4  C   UNL     1       2.136  -0.122   0.859  0.00  0.00    -0.076 C 
ATOM      5  C   UNL     1       2.871  -0.436   2.143  0.00  0.00    +0.000 C 
ATOM      6  C   UNL     1       3.811  -1.634   1.915  0.00  0.00    +0.104 C 
ATOM      7  N   UNL     1       3.171  -2.657   1.064  0.00  0.00    -0.317 N 
ATOM      8  C   UNL     1       1.781  -3.035   1.219  0.00  0.00    +0.088 C 
ATOM      9  C   UNL     1       0.891  -2.132   0.333  0.00  0.00    -0.059 C 
ATOM     10  C   UNL     1       3.929  -3.279   0.079  0.00  0.00    +0.121 A 
ATOM     11  C   UNL     1       5.310  -3.109   0.062  0.00  0.00    +0.044 A 
ATOM     12  C   UNL     1       6.052  -3.734  -0.924  0.00  0.00    +0.017 A 
ATOM     13  C   UNL     1       5.386  -4.511  -1.863  0.00  0.00    +0.073 A 
ATOM     14  C   UNL     1       4.014  -4.636  -1.786  0.00  0.00    +0.125 A 
ATOM     15  N   UNL     1       3.332  -4.032  -0.831  0.00  0.00    -0.240 NA
ATOM     16  H   UNL     1       0.514  -0.865   1.804  0.00  0.00    -0.081 HD
BRANCH  13  17
ATOM     17  C   UNL     1       6.154  -5.210  -2.955  0.00  0.00    +0.419 C 
ATOM     18  F   UNL     1       6.532  -6.484  -2.517  0.00  0.00    -0.166 F 
ATOM     19  F   UNL     1       5.346  -5.328  -4.091  0.00  0.00    -0.166 F 
ATOM     20  F   UNL     1       7.297  -4.467  -3.270  0.00  0.00    -0.166 F 
ENDBRANCH  13  17
ENDBRANCH   2   3
BRANCH   2  21
ATOM     21  C   UNL     1      -1.474  -0.645   0.175  0.00  0.00    +0.203 C 
ATOM     22  O   UNL     1      -1.752  -1.339   1.129  0.00  0.00    -0.277 OA
ATOM     23  N   UNL     1      -2.393  -0.420  -0.785  0.00  0.00    -0.287 N 
ATOM     24  H   UNL     1      -2.192   0.185  -1.516  0.00  0.00    +0.155 HD
BRANCH  23  25
ATOM     25  C   UNL     1      -3.636  -1.060  -0.728  0.00  0.00    +0.033 A 
ATOM     26  C   UNL     1      -4.244  -1.290   0.500  0.00  0.00    +0.025 A 
ATOM     27  C   UNL     1      -5.471  -1.921   0.553  0.00  0.00    +0.030 A 
ATOM     28  C   UNL     1      -6.093  -2.326  -0.613  0.00  0.00    +0.105 A 
ATOM     29  C   UNL     1      -5.490  -2.100  -1.837  0.00  0.00    +0.030 A 
ATOM     30  C   UNL     1      -4.266  -1.462  -1.898  0.00  0.00    +0.025 A 
BRANCH  28  31
ATOM     31  S   UNL     1      -7.659  -3.132  -0.541  0.00  0.00    +0.056 S 
ATOM     32  O   UNL     1      -7.776  -3.898  -1.732  0.00  0.00    -0.153 OA
ATOM     33  O   UNL     1      -7.756  -3.714   0.752  0.00  0.00    -0.153 OA
BRANCH  31  34
ATOM     34  N   UNL     1      -8.820  -1.954  -0.619  0.00  0.00    -0.204 NA
ATOM     35  H   UNL     1      -8.561  -1.022  -0.690  0.00  0.00    +0.144 HD
ATOM     36  H   UNL     1      -9.759  -2.196  -0.593  0.00  0.00    +0.144 HD
ENDBRANCH  31  34
ENDBRANCH  28  31
ENDBRANCH  23  25
ENDBRANCH   2  21
TORSDOF 6
