REMARK  Name = ZINC66863164
REMARK  7 active torsions:
REMARK  status: ('A' for Active; 'I' for Inactive)
REMARK    1  A    between atoms: C_1  and  C_2
REMARK    2  A    between atoms: C_6  and  N_8
REMARK    3  A    between atoms: C_9  and  C_11
REMARK    4  A    between atoms: C_16  and  N_17
REMARK    5  A    between atoms: C_18  and  C_20
REMARK    6  A    between atoms: C_20  and  N_21
REMARK    7  A    between atoms: C_25  and  O_28
REMARK                            x       y       z     vdW  Elec       q    Type
REMARK                         _______ _______ _______ _____ _____    ______ ____
ROOT
ATOM      1  C   UNL     1      -0.127  -4.886   3.663  0.00  0.00    +0.058 A 
ATOM      2  C   UNL     1      -0.247  -4.198   4.873  0.00  0.00    +0.015 A 
ATOM      3  C   UNL     1      -0.347  -4.899   6.056  0.00  0.00    +0.001 A 
ATOM      4  C   UNL     1      -0.328  -6.284   6.051  0.00  0.00    +0.002 A 
ATOM      5  C   UNL     1      -0.209  -6.978   4.864  0.00  0.00    +0.024 A 
ATOM      6  C   UNL     1      -0.113  -6.289   3.662  0.00  0.00    +0.046 A 
ENDROOT
BRANCH   1   8
ATOM      7  N   UNL     1       0.067  -2.797   2.407  0.00  0.00    -0.281 N 
ATOM      8  C   UNL     1      -0.020  -4.142   2.394  0.00  0.00    +0.250 C 
ATOM      9  O   UNL     1      -0.011  -4.742   1.337  0.00  0.00    -0.270 OA
ATOM     10  H   UNL     1       0.145  -2.324   3.250  0.00  0.00    +0.155 HD
BRANCH   7  16
ATOM     11  C   UNL     1       1.280   1.221  -0.153  0.00  0.00    +0.044 C 
ATOM     12  C   UNL     1       0.625  -0.134  -0.065  0.00  0.00    -0.049 A 
ATOM     13  C   UNL     1       0.001  -0.672  -1.175  0.00  0.00    +0.003 A 
ATOM     14  C   UNL     1      -0.601  -1.915  -1.099  0.00  0.00    +0.002 A 
ATOM     15  C   UNL     1      -0.581  -2.622   0.087  0.00  0.00    +0.023 A 
ATOM     16  C   UNL     1       0.045  -2.084   1.204  0.00  0.00    +0.034 A 
ATOM     17  C   UNL     1       0.653  -0.838   1.123  0.00  0.00    +0.026 A 
ENDBRANCH   7  16
ENDBRANCH   1   8
BRANCH   6  18
ATOM     18  N   UNL     1       0.001  -6.987   2.462  0.00  0.00    -0.286 N 
ATOM     19  C   UNL     1       0.697  -8.140   2.417  0.00  0.00    +0.201 C 
ATOM     20  O   UNL     1       1.151  -8.614   3.437  0.00  0.00    -0.278 OA
ATOM     21  H   UNL     1      -0.420  -6.643   1.659  0.00  0.00    +0.155 HD
BRANCH  19  22
ATOM     22  C   UNL     1       0.909  -8.841   1.101  0.00  0.00    +0.019 C 
BRANCH  22  23
ATOM     23  N   UNL     1       1.691 -10.066   1.318  0.00  0.00    +0.387 N 
ATOM     24  C   UNL     1       3.031  -9.710   1.799  0.00  0.00    -0.078 C 
ATOM     25  C   UNL     1       3.823 -10.983   2.105  0.00  0.00    -0.016 C 
ATOM     26  C   UNL     1       3.942 -11.822   0.829  0.00  0.00    +0.027 C 
ATOM     27  C   UNL     1       2.539 -12.124   0.295  0.00  0.00    +0.098 C 
ATOM     28  C   UNL     1       1.796 -10.808   0.056  0.00  0.00    -0.047 C 
ATOM     29  H   UNL     1       1.230 -10.640   2.008  0.00  0.00    -0.081 HD
BRANCH  27  30
ATOM     30  O   UNL     1       2.642 -12.845  -0.935  0.00  0.00    -0.394 OA
ATOM     31  H   UNL     1       3.106 -13.690  -0.858  0.00  0.00    +0.210 HD
ENDBRANCH  27  30
ENDBRANCH  22  23
ENDBRANCH  19  22
ENDBRANCH   6  18
TORSDOF 6
