REMARK  Name = ZINC62535058
REMARK  2 active torsions:
REMARK  status: ('A' for Active; 'I' for Inactive)
REMARK    1  A    between atoms: C_8  and  C_13
REMARK    2  A    between atoms: C_13  and  N_14
REMARK                            x       y       z     vdW  Elec       q    Type
REMARK                         _______ _______ _______ _____ _____    ______ ____
ROOT
ATOM      1  C   UNL     1      -0.017   1.380   0.010  0.00  0.00    +0.067 A 
ATOM      2  C   UNL     1       1.173   2.087   0.002  0.00  0.00    +0.046 A 
ATOM      3  C   UNL     1       2.382   1.415  -0.011  0.00  0.00    +0.042 A 
ATOM      4  C   UNL     1       2.408   0.031  -0.024  0.00  0.00    +0.067 A 
ATOM      5  C   UNL     1       1.220  -0.682  -0.027  0.00  0.00    +0.094 A 
ATOM      6  C   UNL     1       0.002  -0.004   0.002  0.00  0.00    +0.145 A 
ATOM      7  O   UNL     1      -1.161  -0.709   0.042  0.00  0.00    -0.480 OA
ATOM      8  C   UNL     1      -1.175  -1.975  -0.622  0.00  0.00    +0.242 C 
ATOM      9  C   UNL     1       0.072  -2.746  -0.269  0.00  0.00    +0.256 C 
ATOM     10  O   UNL     1       0.037  -3.956  -0.187  0.00  0.00    -0.271 OA
ATOM     11  N   UNL     1       1.227  -2.084  -0.046  0.00  0.00    -0.278 N 
ATOM     12 CL   UNL     1       3.926  -0.811  -0.036  0.00  0.00    -0.081 Cl
ATOM     13 CL   UNL     1       1.149   3.823   0.008  0.00  0.00    -0.083 Cl
ATOM     14  H   UNL     1       2.052  -2.573   0.099  0.00  0.00    +0.155 HD
ENDROOT
BRANCH   8  15
ATOM     15  C   UNL     1      -1.227  -1.756  -2.135  0.00  0.00    -0.032 C 
BRANCH  15  16
ATOM     16  N   UNL     1      -2.443  -1.008  -2.480  0.00  0.00    +0.381 N 
ATOM     17  H   UNL     1      -3.255  -1.532  -2.188  0.00  0.00    -0.090 HD
ATOM     18  H   UNL     1      -2.433  -0.114  -2.011  0.00  0.00    -0.090 HD
ATOM     19  H   UNL     1      -2.477  -0.864  -3.478  0.00  0.00    -0.090 HD
ENDBRANCH  15  16
ENDBRANCH   8  15
TORSDOF 2
