REMARK  Name = ZINC27547842
REMARK  13 active torsions:
REMARK  status: ('A' for Active; 'I' for Inactive)
REMARK    1  A    between atoms: C_1  and  C_2
REMARK    2  A    between atoms: C_5  and  C_38
REMARK    3  A    between atoms: C_6  and  N_8
REMARK    4  A    between atoms: C_9  and  C_11
REMARK    5  A    between atoms: C_12  and  C_37
REMARK    6  A    between atoms: C_14  and  C_36
REMARK    7  A    between atoms: C_15  and  C_25
REMARK    8  A    between atoms: C_16  and  C_17
REMARK    9  A    between atoms: C_20  and  O_23
REMARK   10  A    between atoms: O_23  and  C_24
REMARK   11  A    between atoms: N_27  and  C_28
REMARK   12  A    between atoms: C_30  and  C_35
REMARK   13  A    between atoms: C_33  and  C_34
REMARK                            x       y       z     vdW  Elec       q    Type
REMARK                         _______ _______ _______ _____ _____    ______ ____
ROOT
ATOM      1  C   UNL     1      -0.942   1.672  -1.300  0.00  0.00    +0.043 C 
ATOM      2  C   UNL     1      -0.390   2.613  -2.084  0.00  0.00    +0.014 C 
ATOM      3  N   UNL     1       0.821   3.166  -1.768  0.00  0.00    -0.321 N 
ATOM      4  C   UNL     1       1.653   2.544  -0.876  0.00  0.00    +0.014 C 
ATOM      5  C   UNL     1       1.185   1.601  -0.041  0.00  0.00    +0.043 C 
ATOM      6  C   UNL     1      -0.263   1.199  -0.046  0.00  0.00    +0.092 C 
ATOM      7  C   UNL     1       3.111   2.921  -0.830  0.00  0.00    +0.061 C 
ATOM      8  C   UNL     1      -1.113   3.063  -3.327  0.00  0.00    +0.061 C 
ATOM      9  H   UNL     1       1.130   4.115  -2.231  0.00  0.00    +0.152 HD
ENDROOT
BRANCH   6  10
ATOM     10  C   UNL     1      -0.951   1.806   1.149  0.00  0.00    -0.035 A 
ATOM     11  C   UNL     1      -0.987   3.180   1.300  0.00  0.00    +0.008 A 
ATOM     12  C   UNL     1      -1.622   3.739   2.393  0.00  0.00    +0.046 A 
ATOM     13  C   UNL     1      -2.213   2.920   3.344  0.00  0.00    +0.120 A 
ATOM     14  C   UNL     1      -2.170   1.542   3.193  0.00  0.00    +0.046 A 
ATOM     15  C   UNL     1      -1.539   0.988   2.096  0.00  0.00    +0.008 A 
BRANCH  13  16
ATOM     16  O   UNL     1      -2.833   3.467   4.422  0.00  0.00    -0.495 OA
ATOM     17  C   UNL     1      -2.839   4.894   4.513  0.00  0.00    +0.277 C 
ENDBRANCH  13  16
ENDBRANCH   6  10
BRANCH   1  19
ATOM     18  N   UNL     1      -2.760   0.170  -0.887  0.00  0.00    -0.281 N 
ATOM     19  C   UNL     1      -2.193   1.115  -1.663  0.00  0.00    +0.247 C 
ATOM     20  O   UNL     1      -2.755   1.489  -2.676  0.00  0.00    -0.270 OA
ATOM     21  H   UNL     1      -2.284  -0.122   0.061  0.00  0.00    +0.155 HD
BRANCH  18  27
ATOM     22  C   UNL     1      -6.953   0.355  -3.446  0.00  0.00    +0.044 C 
ATOM     23  C   UNL     1      -6.006  -0.371  -2.526  0.00  0.00    -0.049 A 
ATOM     24  C   UNL     1      -6.317  -1.641  -2.076  0.00  0.00    +0.004 A 
ATOM     25  C   UNL     1      -5.451  -2.310  -1.231  0.00  0.00    +0.005 A 
ATOM     26  C   UNL     1      -4.268  -1.714  -0.839  0.00  0.00    -0.029 A 
ATOM     27  C   UNL     1      -3.954  -0.437  -1.286  0.00  0.00    +0.037 A 
ATOM     28  C   UNL     1      -4.827   0.233  -2.134  0.00  0.00    +0.027 A 
ATOM     29  C   UNL     1      -3.322  -2.447   0.076  0.00  0.00    +0.045 C 
ENDBRANCH  18  27
ENDBRANCH   1  19
BRANCH   5  30
ATOM     30  C   UNL     1       2.075   0.972   0.862  0.00  0.00    +0.247 C 
ATOM     31  O   UNL     1       2.456  -0.165   0.649  0.00  0.00    -0.270 OA
ATOM     32  N   UNL     1       2.501   1.631   1.958  0.00  0.00    -0.281 N 
ATOM     33  H   UNL     1       2.088   2.622   2.199  0.00  0.00    +0.155 HD
BRANCH  32  34
ATOM     34  C   UNL     1       3.467   1.056   2.789  0.00  0.00    +0.037 A 
ATOM     35  C   UNL     1       4.472   0.266   2.245  0.00  0.00    +0.027 A 
ATOM     36  C   UNL     1       5.425  -0.301   3.068  0.00  0.00    -0.049 A 
ATOM     37  C   UNL     1       5.380  -0.082   4.433  0.00  0.00    +0.004 A 
ATOM     38  C   UNL     1       4.381   0.704   4.978  0.00  0.00    +0.005 A 
ATOM     39  C   UNL     1       3.428   1.278   4.159  0.00  0.00    -0.029 A 
ATOM     40  C   UNL     1       2.344   2.139   4.753  0.00  0.00    +0.045 C 
ATOM     41  C   UNL     1       6.515  -1.158   2.479  0.00  0.00    +0.044 C 
ENDBRANCH  32  34
ENDBRANCH   5  30
TORSDOF 6
