REMARK  Name = ZINC62592022
REMARK  6 active torsions:
REMARK  status: ('A' for Active; 'I' for Inactive)
REMARK    1  A    between atoms: C_3  and  C_10
REMARK    2  A    between atoms: C_5  and  N_7
REMARK    3  A    between atoms: C_10  and  N_11
REMARK    4  A    between atoms: N_19  and  C_20
REMARK    5  A    between atoms: C_23  and  N_30
REMARK    6  A    between atoms: C_25  and  C_26
REMARK                            x       y       z     vdW  Elec       q    Type
REMARK                         _______ _______ _______ _____ _____    ______ ____
ROOT
ATOM      1  N   UNL     1       4.268   2.591   1.110  0.00  0.00    -0.295 NA
ATOM      2  C   UNL     1       3.370   3.641   1.609  0.00  0.00    +0.104 C 
ATOM      3  C   UNL     1       3.534   3.770   3.127  0.00  0.00    +0.124 C 
ATOM      4  N   UNL     1       4.959   3.975   3.428  0.00  0.00    -0.283 N 
ATOM      5  C   UNL     1       5.934   3.039   2.848  0.00  0.00    +0.124 C 
ATOM      6  C   UNL     1       5.676   2.940   1.341  0.00  0.00    +0.104 C 
ATOM      7  C   UNL     1       5.361   4.993   4.215  0.00  0.00    +0.307 C 
ATOM      8  O   UNL     1       4.553   5.811   4.610  0.00  0.00    -0.252 OA
ATOM      9  N   UNL     1       6.658   5.105   4.563  0.00  0.00    -0.269 N 
ATOM     10  H   UNL     1       7.313   4.491   4.195  0.00  0.00    +0.156 HD
ENDROOT
BRANCH   9  11
ATOM     11  C   UNL     1       7.060   6.106   5.455  0.00  0.00    +0.047 A 
ATOM     12  C   UNL     1       6.121   6.733   6.264  0.00  0.00    +0.026 A 
ATOM     13  C   UNL     1       6.517   7.720   7.144  0.00  0.00    +0.029 A 
ATOM     14  C   UNL     1       7.855   8.086   7.220  0.00  0.00    +0.068 A 
ATOM     15  C   UNL     1       8.793   7.461   6.410  0.00  0.00    +0.042 A 
ATOM     16  C   UNL     1       8.398   6.469   5.535  0.00  0.00    +0.078 A 
BRANCH  14  17
ATOM     17  N   UNL     1       8.257   9.090   8.114  0.00  0.00    -0.220 N 
ATOM     18  C   UNL     1       7.488   9.715   9.026  0.00  0.00    +0.225 A 
ATOM     19  N   UNL     1       8.236  10.582   9.660  0.00  0.00    -0.222 NA
ATOM     20  C   UNL     1       9.479  10.540   9.184  0.00  0.00    +0.245 A 
ATOM     21  N   UNL     1       9.544   9.639   8.239  0.00  0.00    -0.154 NA
ENDBRANCH  14  17
BRANCH  16  22
ATOM     22  C   UNL     1       9.418   5.785   4.661  0.00  0.00    +0.419 C 
ATOM     23  F   UNL     1      10.685   6.317   4.919  0.00  0.00    -0.166 F 
ATOM     24  F   UNL     1       9.422   4.414   4.936  0.00  0.00    -0.166 F 
ATOM     25  F   UNL     1       9.091   5.990   3.316  0.00  0.00    -0.166 F 
ENDBRANCH  16  22
ENDBRANCH   9  11
BRANCH   1  26
ATOM     26  C   UNL     1       4.019   2.317  -0.311  0.00  0.00    +0.119 C 
BRANCH  26  29
ATOM     27  C   UNL     1       0.292   2.021  -0.836  0.00  0.00    +0.003 A 
ATOM     28  C   UNL     1       1.556   2.560  -0.684  0.00  0.00    +0.005 A 
ATOM     29  C   UNL     1       2.641   1.730  -0.476  0.00  0.00    -0.031 A 
ATOM     30  C   UNL     1       2.462   0.360  -0.420  0.00  0.00    +0.037 A 
ATOM     31  C   UNL     1       1.198  -0.179  -0.571  0.00  0.00    +0.126 A 
ATOM     32  C   UNL     1       0.113   0.652  -0.780  0.00  0.00    +0.033 A 
BRANCH  31  33
ATOM     33  N   UNL     1       1.007  -1.645  -0.511  0.00  0.00    +0.056 N 
ATOM     34  O   UNL     1       1.956  -2.372  -0.331  0.00  0.00    -0.126 OA
ATOM     35  O   UNL     1      -0.098  -2.117  -0.643  0.00  0.00    -0.126 OA
ENDBRANCH  31  33
ENDBRANCH  26  29
ENDBRANCH   1  26
TORSDOF 6
