REMARK  Name = ZINC10065924
REMARK  13 active torsions:
REMARK  status: ('A' for Active; 'I' for Inactive)
REMARK    1  A    between atoms: C_1  and  C_2
REMARK    2  A    between atoms: C_2  and  C_3
REMARK    3  A    between atoms: C_3  and  C_4
REMARK    4  A    between atoms: C_4  and  N_5
REMARK    5  A    between atoms: N_5  and  C_6
REMARK    6  A    between atoms: N_5  and  S_7
REMARK    7  A    between atoms: S_7  and  C_10
REMARK    8  A    between atoms: C_13  and  C_16
REMARK    9  A    between atoms: N_18  and  C_19
REMARK   10  A    between atoms: C_19  and  C_20
REMARK   11  A    between atoms: C_20  and  N_62
REMARK   12  A    between atoms: C_21  and  N_62
REMARK   13  A    between atoms: C_22  and  N_62
REMARK                            x       y       z     vdW  Elec       q    Type
REMARK                         _______ _______ _______ _____ _____    ______ ____
ROOT
ATOM      1  C   UNL     1       3.935  -1.673  -0.240  0.00  0.00    +0.252 C 
ATOM      2  O   UNL     1       3.297  -2.235   0.629  0.00  0.00    -0.270 OA
ATOM      3  N   UNL     1       3.483  -0.519  -0.768  0.00  0.00    -0.248 N 
ATOM      4  C   UNL     1       2.233  -0.039  -0.416  0.00  0.00    +0.168 A 
ATOM      5  N   UNL     1       1.353  -0.560   0.406  0.00  0.00    -0.223 NA
ATOM      6  C   UNL     1       0.161   0.022   0.659  0.00  0.00    +0.099 A 
ATOM      7  C   UNL     1      -0.083   1.237  -0.022  0.00  0.00    +0.042 A 
ATOM      8  S   UNL     1       1.407   1.448  -0.966  0.00  0.00    -0.052 S 
ATOM      9  C   UNL     1      -1.245   1.952   0.132  0.00  0.00    +0.017 A 
ATOM     10  C   UNL     1      -2.232   1.478   0.976  0.00  0.00    +0.003 A 
ATOM     11  C   UNL     1      -2.028   0.289   1.660  0.00  0.00    +0.022 A 
ATOM     12  C   UNL     1      -0.869  -0.430   1.517  0.00  0.00    +0.067 A 
ATOM     13 CL   UNL     1      -0.664  -1.913   2.397  0.00  0.00    -0.081 Cl
ENDROOT
BRANCH   1  17
ATOM     14  C   UNL     1       7.591  -3.347  -1.608  0.00  0.00    +0.106 A 
ATOM     15  C   UNL     1       6.469  -4.148  -1.487  0.00  0.00    +0.029 A 
ATOM     16  C   UNL     1       5.279  -3.611  -1.043  0.00  0.00    +0.015 A 
ATOM     17  C   UNL     1       5.207  -2.256  -0.716  0.00  0.00    +0.037 A 
ATOM     18  C   UNL     1       6.341  -1.452  -0.846  0.00  0.00    +0.015 A 
ATOM     19  C   UNL     1       7.527  -2.003  -1.285  0.00  0.00    +0.029 A 
BRANCH  14  20
ATOM     20  S   UNL     1       9.108  -4.041  -2.176  0.00  0.00    +0.061 S 
ATOM     21  O   UNL     1      10.146  -3.206  -1.683  0.00  0.00    -0.153 OA
ATOM     22  O   UNL     1       9.049  -5.432  -1.892  0.00  0.00    -0.153 OA
BRANCH  20  23
ATOM     23  N   UNL     1       9.126  -3.895  -3.826  0.00  0.00    -0.180 NA
ATOM     24  C   UNL     1       9.693  -2.697  -4.449  0.00  0.00    +0.131 C 
BRANCH  23  25
ATOM     25  C   UNL     1       8.575  -4.965  -4.662  0.00  0.00    +0.109 C 
BRANCH  25  26
ATOM     26  C   UNL     1       7.122  -4.639  -5.014  0.00  0.00    +0.017 C 
BRANCH  26  28
ATOM     27  C   UNL     1       5.094  -5.431  -6.240  0.00  0.00    +0.004 C 
ATOM     28  C   UNL     1       6.547  -5.756  -5.887  0.00  0.00    -0.002 C 
ENDBRANCH  26  28
ENDBRANCH  25  26
ENDBRANCH  23  25
ENDBRANCH  20  23
ENDBRANCH  14  20
ENDBRANCH   1  17
BRANCH   3  29
ATOM     29  C   UNL     1       4.314   0.228  -1.716  0.00  0.00    +0.097 C 
BRANCH  29  30
ATOM     30  C   UNL     1       5.032   1.362  -0.981  0.00  0.00    -0.060 C 
BRANCH  30  33
ATOM     31  C   UNL     1       5.243   2.713  -2.979  0.00  0.00    -0.097 C 
ATOM     32  C   UNL     1       6.840   2.960  -1.176  0.00  0.00    -0.097 C 
ATOM     33  N   UNL     1       5.982   2.007  -1.911  0.00  0.00    +0.377 N 
ATOM     34  H   UNL     1       6.574   1.284  -2.337  0.00  0.00    -0.083 HD
ENDBRANCH  30  33
ENDBRANCH  29  30
ENDBRANCH   3  29
TORSDOF 9
