REMARK  Name = ZINC08607472
REMARK  10 active torsions:
REMARK  status: ('A' for Active; 'I' for Inactive)
REMARK    1  A    between atoms: C_1  and  C_2
REMARK    2  A    between atoms: C_5  and  C_36
REMARK    3  A    between atoms: C_6  and  C_8
REMARK    4  A    between atoms: C_8  and  S_9
REMARK    5  A    between atoms: S_9  and  C_10
REMARK    6  A    between atoms: C_15  and  C_31
REMARK    7  A    between atoms: C_17  and  C_21
REMARK    8  A    between atoms: C_18  and  C_20
REMARK    9  A    between atoms: N_23  and  C_24
REMARK   10  A    between atoms: C_29  and  C_30
REMARK                            x       y       z     vdW  Elec       q    Type
REMARK                         _______ _______ _______ _____ _____    ______ ____
ROOT
ATOM      1  C   UNL     1       1.652  -3.864   4.603  0.00  0.00    +0.211 A 
ATOM      2  N   UNL     1       0.507  -4.261   5.176  0.00  0.00    -0.187 NA
ATOM      3  C   UNL     1       0.773  -4.926   6.267  0.00  0.00    +0.219 A 
ATOM      4  N   UNL     1       2.120  -4.973   6.414  0.00  0.00    -0.219 N 
ATOM      5  N   UNL     1       2.664  -4.285   5.330  0.00  0.00    -0.141 NA
ATOM      6  C   UNL     1       2.789  -5.647   7.523  0.00  0.00    +0.184 C 
ATOM      7  C   UNL     1       1.777  -5.994   8.582  0.00  0.00    +0.061 C 
ATOM      8  C   UNL     1       0.453  -5.925   8.381  0.00  0.00    +0.018 C 
ATOM      9  N   UNL     1      -0.084  -5.518   7.184  0.00  0.00    -0.287 N 
ATOM     10  C   UNL     1      -0.476  -6.308   9.504  0.00  0.00    +0.061 C 
ATOM     11  H   UNL     1      -1.027  -5.638   6.988  0.00  0.00    +0.155 HD
ENDROOT
BRANCH   6  12
ATOM     12  C   UNL     1       3.445  -6.908   7.022  0.00  0.00    +0.019 A 
ATOM     13  C   UNL     1       4.754  -7.260   7.053  0.00  0.00    +0.013 A 
ATOM     14  C   UNL     1       5.132  -8.482   6.530  0.00  0.00    +0.008 A 
ATOM     15  C   UNL     1       4.183  -9.292   6.001  0.00  0.00    +0.045 A 
ATOM     16  S   UNL     1       2.699  -8.329   6.241  0.00  0.00    -0.099 S 
ENDBRANCH   6  12
BRANCH   7  17
ATOM     17  C   UNL     1       2.245  -6.414   9.850  0.00  0.00    +0.248 C 
ATOM     18  O   UNL     1       2.698  -5.598  10.633  0.00  0.00    -0.270 OA
ATOM     19  N   UNL     1       2.189  -7.716  10.192  0.00  0.00    -0.281 N 
ATOM     20  H   UNL     1       1.887  -8.374   9.547  0.00  0.00    +0.155 HD
BRANCH  19  21
ATOM     21  C   UNL     1       2.568  -8.119  11.476  0.00  0.00    +0.037 A 
ATOM     22  C   UNL     1       3.599  -7.463  12.136  0.00  0.00    +0.023 A 
ATOM     23  C   UNL     1       3.971  -7.863  13.404  0.00  0.00    +0.002 A 
ATOM     24  C   UNL     1       3.316  -8.916  14.018  0.00  0.00    +0.000 A 
ATOM     25  C   UNL     1       2.289  -9.571  13.364  0.00  0.00    +0.005 A 
ATOM     26  C   UNL     1       1.909  -9.172  12.098  0.00  0.00    -0.029 A 
ATOM     27  C   UNL     1       0.785  -9.882  11.389  0.00  0.00    +0.045 C 
ENDBRANCH  19  21
ENDBRANCH   7  17
BRANCH   1  28
ATOM     28  S   UNL     1       1.782  -2.935   3.111  0.00  0.00    -0.080 S 
BRANCH  28  29
ATOM     29  C   UNL     1       0.059  -2.674   2.606  0.00  0.00    +0.112 C 
BRANCH  29  35
ATOM     30  C   UNL     1      -0.104   1.734   0.241  0.00  0.00    +0.044 C 
ATOM     31  C   UNL     1      -0.053   0.228   0.194  0.00  0.00    -0.050 A 
ATOM     32  C   UNL     1      -0.036  -0.425  -1.025  0.00  0.00    +0.003 A 
ATOM     33  C   UNL     1       0.011  -1.806  -1.068  0.00  0.00    +0.004 A 
ATOM     34  C   UNL     1       0.042  -2.533   0.107  0.00  0.00    -0.046 A 
ATOM     35  C   UNL     1       0.026  -1.880   1.325  0.00  0.00    -0.034 A 
ATOM     36  C   UNL     1      -0.017  -0.499   1.368  0.00  0.00    +0.008 A 
ATOM     37  C   UNL     1       0.092  -4.039   0.060  0.00  0.00    +0.044 C 
ENDBRANCH  29  35
ENDBRANCH  28  29
ENDBRANCH   1  28
TORSDOF 6
