REMARK  Name = ZINC23297803
REMARK  12 active torsions:
REMARK  status: ('A' for Active; 'I' for Inactive)
REMARK    1  A    between atoms: C_1  and  C_2
REMARK    2  A    between atoms: C_2  and  O_3
REMARK    3  A    between atoms: O_3  and  C_4
REMARK    4  A    between atoms: C_4  and  C_6
REMARK    5  A    between atoms: C_7  and  C_19
REMARK    6  A    between atoms: C_12  and  C_14
REMARK    7  A    between atoms: C_19  and  N_20
REMARK    8  A    between atoms: N_23  and  C_26
REMARK    9  A    between atoms: C_26  and  C_27
REMARK   10  A    between atoms: N_29  and  C_30
REMARK   11  A    between atoms: C_34  and  C_37
REMARK   12  A    between atoms: C_35  and  C_36
REMARK                            x       y       z     vdW  Elec       q    Type
REMARK                         _______ _______ _______ _____ _____    ______ ____
ROOT
ATOM      1  C   UNL     1      -1.849  -4.721  -0.260  0.00  0.00    +0.135 C 
ENDROOT
BRANCH   1   3
ATOM      2  C   UNL     1      -2.862  -2.488   0.031  0.00  0.00    +0.082 C 
ATOM      3  C   UNL     1      -3.047  -3.815  -0.139  0.00  0.00    +0.038 C 
ATOM      4  N   UNL     1      -4.302  -4.349  -0.202  0.00  0.00    -0.271 N 
ATOM      5  C   UNL     1      -5.424  -3.624  -0.104  0.00  0.00    +0.304 C 
ATOM      6  O   UNL     1      -6.497  -4.190  -0.172  0.00  0.00    -0.252 OA
ATOM      7  N   UNL     1      -5.401  -2.288   0.067  0.00  0.00    -0.285 N 
ATOM      8  C   UNL     1      -4.094  -1.614   0.154  0.00  0.00    +0.179 C 
ATOM      9  H   UNL     1      -4.386  -5.308  -0.324  0.00  0.00    +0.156 HD
ATOM     10  H   UNL     1      -6.226  -1.782   0.135  0.00  0.00    +0.151 HD
BRANCH   8  11
ATOM     11  C   UNL     1      -4.038  -0.576  -0.937  0.00  0.00    +0.130 A 
ATOM     12  C   UNL     1      -3.633   0.698  -0.790  0.00  0.00    +0.047 A 
ATOM     13  C   UNL     1      -3.742   1.312  -2.059  0.00  0.00    +0.041 A 
ATOM     14  C   UNL     1      -4.206   0.375  -2.906  0.00  0.00    +0.195 A 
ATOM     15  O   UNL     1      -4.378  -0.767  -2.222  0.00  0.00    -0.466 OA
ENDBRANCH   8  11
BRANCH   2  16
ATOM     16  C   UNL     1      -1.563  -1.933   0.097  0.00  0.00    +0.339 C 
ATOM     17  O   UNL     1      -1.105  -1.581   1.168  0.00  0.00    -0.245 OA
BRANCH  16  18
ATOM     18  O   UNL     1      -0.830  -1.795  -1.028  0.00  0.00    -0.462 OA
BRANCH  18  20
ATOM     19  C   UNL     1       1.147  -1.151  -2.259  0.00  0.00    +0.048 C 
ATOM     20  C   UNL     1       0.474  -1.227  -0.887  0.00  0.00    +0.229 C 
ENDBRANCH  18  20
ENDBRANCH  16  18
ENDBRANCH   2  16
ENDBRANCH   1   3
BRANCH   1  21
ATOM     21  N   UNL     1      -1.818  -5.648   0.879  0.00  0.00    -0.300 NA
ATOM     22  C   UNL     1      -1.579  -4.927   2.138  0.00  0.00    +0.066 C 
ATOM     23  C   UNL     1      -1.613  -5.918   3.303  0.00  0.00    -0.063 C 
ATOM     24  N   UNL     1      -0.583  -6.946   3.104  0.00  0.00    +0.387 N 
ATOM     25  C   UNL     1      -0.849  -7.673   1.855  0.00  0.00    -0.063 C 
ATOM     26  C   UNL     1      -0.808  -6.696   0.678  0.00  0.00    +0.066 C 
ATOM     27  H   UNL     1       0.324  -6.506   3.050  0.00  0.00    -0.081 HD
BRANCH  24  28
ATOM     28  C   UNL     1      -0.604  -7.886   4.232  0.00  0.00    +0.019 C 
BRANCH  28  29
ATOM     29  C   UNL     1       0.531  -8.867   4.090  0.00  0.00    +0.201 C 
ATOM     30  O   UNL     1       1.284  -8.790   3.142  0.00  0.00    -0.278 OA
ATOM     31  N   UNL     1       0.710  -9.829   5.016  0.00  0.00    -0.287 N 
ATOM     32  H   UNL     1       0.069  -9.934   5.737  0.00  0.00    +0.155 HD
BRANCH  31  33
ATOM     33  C   UNL     1       1.820 -10.678   4.938  0.00  0.00    +0.036 A 
ATOM     34  C   UNL     1       2.322 -11.056   3.699  0.00  0.00    +0.023 A 
ATOM     35  C   UNL     1       3.417 -11.893   3.626  0.00  0.00    +0.002 A 
ATOM     36  C   UNL     1       4.015 -12.356   4.784  0.00  0.00    +0.004 A 
ATOM     37  C   UNL     1       3.517 -11.982   6.019  0.00  0.00    -0.046 A 
ATOM     38  C   UNL     1       2.426 -11.139   6.099  0.00  0.00    -0.026 A 
ATOM     39  C   UNL     1       1.889 -10.727   7.445  0.00  0.00    +0.046 C 
ATOM     40  C   UNL     1       4.171 -12.489   7.279  0.00  0.00    +0.044 C 
ENDBRANCH  31  33
ENDBRANCH  28  29
ENDBRANCH  24  28
ENDBRANCH   1  21
TORSDOF 9
