REMARK  Name = ZINC19219213
REMARK  10 active torsions:
REMARK  status: ('A' for Active; 'I' for Inactive)
REMARK    1  A    between atoms: C_1  and  C_2
REMARK    2  A    between atoms: C_8  and  O_34
REMARK    3  A    between atoms: N_15  and  C_18
REMARK    4  A    between atoms: C_18  and  C_19
REMARK    5  A    between atoms: C_19  and  C_21
REMARK    6  A    between atoms: C_19  and  O_33
REMARK    7  A    between atoms: C_24  and  O_31
REMARK    8  A    between atoms: C_25  and  N_27
REMARK    9  A    between atoms: C_28  and  C_30
REMARK   10  A    between atoms: O_31  and  C_32
REMARK                            x       y       z     vdW  Elec       q    Type
REMARK                         _______ _______ _______ _____ _____    ______ ____
ROOT
ATOM      1  C   UNL     1      -0.663   2.230   5.444  0.00  0.00    +0.044 C 
ATOM      2  C   UNL     1      -1.278   2.203   4.068  0.00  0.00    -0.050 A 
ATOM      3  C   UNL     1      -2.574   2.645   3.881  0.00  0.00    +0.007 A 
ATOM      4  C   UNL     1      -3.135   2.622   2.621  0.00  0.00    +0.046 A 
ATOM      5  C   UNL     1      -2.400   2.156   1.535  0.00  0.00    +0.127 A 
ATOM      6  C   UNL     1      -1.104   1.710   1.726  0.00  0.00    +0.023 A 
ATOM      7  C   UNL     1      -0.546   1.736   2.993  0.00  0.00    +0.013 A 
ATOM      8  C   UNL     1      -0.275   1.191   0.579  0.00  0.00    +0.152 C 
ATOM      9  C   UNL     1      -0.880   1.661  -0.747  0.00  0.00    +0.084 C 
ATOM     10  C   UNL     1      -2.384   1.373  -0.720  0.00  0.00    +0.110 C 
ATOM     11  O   UNL     1      -2.982   2.161   0.308  0.00  0.00    -0.485 OA
ATOM     12  C   UNL     1      -2.996   1.737  -2.075  0.00  0.00    +0.029 C 
ATOM     13  C   UNL     1      -4.487   1.388  -2.067  0.00  0.00    -0.075 C 
ATOM     14  N   UNL     1      -4.654  -0.046  -1.799  0.00  0.00    +0.382 N 
ATOM     15  C   UNL     1      -4.119  -0.406  -0.479  0.00  0.00    -0.075 C 
ATOM     16  C   UNL     1      -2.617  -0.112  -0.439  0.00  0.00    +0.029 C 
ATOM     17  H   UNL     1      -4.077  -0.598  -2.556  0.00  0.00    -0.082 HD
ENDROOT
BRANCH   8  18
ATOM     18  O   UNL     1       1.060   1.687   0.694  0.00  0.00    -0.387 OA
ATOM     19  H   UNL     1       1.816   1.413  -0.057  0.00  0.00    +0.210 HD
ENDBRANCH   8  18
BRANCH  14  20
ATOM     20  C   UNL     1      -6.062  -0.444  -1.923  0.00  0.00    -0.042 C 
BRANCH  20  21
ATOM     21  C   UNL     1      -6.148  -1.958  -2.132  0.00  0.00    +0.128 C 
BRANCH  21  22
ATOM     22  C   UNL     1      -7.593  -2.367  -2.249  0.00  0.00    -0.019 A 
ATOM     23  C   UNL     1      -8.235  -2.289  -3.472  0.00  0.00    +0.010 A 
ATOM     24  C   UNL     1      -9.559  -2.669  -3.587  0.00  0.00    +0.048 A 
ATOM     25  C   UNL     1     -10.250  -3.119  -2.473  0.00  0.00    +0.141 A 
ATOM     26  C   UNL     1      -9.606  -3.193  -1.240  0.00  0.00    +0.076 A 
ATOM     27  C   UNL     1      -8.275  -2.815  -1.134  0.00  0.00    +0.033 A 
BRANCH  26  28
ATOM     28  N   UNL     1     -10.300  -3.647  -0.111  0.00  0.00    -0.283 N 
ATOM     29  C   UNL     1     -10.019  -3.135   1.103  0.00  0.00    +0.214 C 
ATOM     30  O   UNL     1      -9.108  -2.345   1.233  0.00  0.00    -0.276 OA
ATOM     31  C   UNL     1     -10.837  -3.544   2.301  0.00  0.00    +0.109 C 
ATOM     32  H   UNL     1     -11.073  -4.422  -0.216  0.00  0.00    +0.155 HD
ENDBRANCH  26  28
BRANCH  25  33
ATOM     33  O   UNL     1     -11.554  -3.488  -2.584  0.00  0.00    -0.493 OA
ATOM     34  C   UNL     1     -12.150  -3.387  -3.879  0.00  0.00    +0.277 C 
ENDBRANCH  25  33
ENDBRANCH  21  22
BRANCH  21  35
ATOM     35  O   UNL     1      -5.453  -2.313  -3.329  0.00  0.00    -0.389 OA
ATOM     36  H   UNL     1      -5.406  -3.365  -3.647  0.00  0.00    +0.210 HD
ENDBRANCH  21  35
ENDBRANCH  20  21
ENDBRANCH  14  20
TORSDOF 7
