REMARK  Name = ZINC66244099
REMARK  5 active torsions:
REMARK  status: ('A' for Active; 'I' for Inactive)
REMARK    1  A    between atoms: C_2  and  C_9
REMARK    2  A    between atoms: C_9  and  C_10
REMARK    3  A    between atoms: C_10  and  N_11
REMARK    4  A    between atoms: N_13  and  C_14
REMARK    5  A    between atoms: C_14  and  C_15
REMARK                            x       y       z     vdW  Elec       q    Type
REMARK                         _______ _______ _______ _____ _____    ______ ____
ROOT
ATOM      1  N   UNL     1       1.135   5.561   1.463  0.00  0.00    -0.357 N 
ATOM      2  C   UNL     1       1.137   6.243   2.657  0.00  0.00    +0.169 C 
ATOM      3  N   UNL     1       1.119   7.546   2.663  0.00  0.00    -0.355 N 
ATOM      4  N   UNL     1       1.158   5.549   3.844  0.00  0.00    -0.371 N 
ATOM      5  H   UNL     1       1.121   6.051   0.625  0.00  0.00    +0.162 HD
ATOM      6  H   UNL     1       1.171   4.579   3.839  0.00  0.00    +0.159 HD
ATOM      7  H   UNL     1       1.159   6.030   4.686  0.00  0.00    +0.159 HD
ATOM      8  H   UNL     1       1.104   8.035   1.826  0.00  0.00    +0.162 HD
ENDROOT
BRANCH   1   9
ATOM      9  C   UNL     1       1.156   4.096   1.455  0.00  0.00    +0.120 C 
BRANCH   9  10
ATOM     10  C   UNL     1       1.149   3.594   0.010  0.00  0.00    +0.056 C 
BRANCH  10  12
ATOM     11  C   UNL     1      -0.017   1.379   0.010  0.00  0.00    +0.023 A 
ATOM     12  C   UNL     1       1.171   2.087   0.002  0.00  0.00    -0.043 A 
ATOM     13  C   UNL     1       2.377   1.413  -0.013  0.00  0.00    +0.023 A 
ATOM     14  C   UNL     1       2.397   0.030  -0.021  0.00  0.00    +0.043 A 
ATOM     15  C   UNL     1       1.209  -0.679  -0.013  0.00  0.00    +0.040 A 
ATOM     16  C   UNL     1       0.002  -0.004   0.002  0.00  0.00    +0.043 A 
ATOM     17 CL   UNL     1      -1.489  -0.893   0.012  0.00  0.00    -0.083 Cl
ATOM     18 CL   UNL     1       3.913  -0.817  -0.040  0.00  0.00    -0.083 Cl
ENDBRANCH  10  12
ENDBRANCH   9  10
ENDBRANCH   1   9
BRANCH   3  19
ATOM     19  C   UNL     1       1.120   8.272   3.936  0.00  0.00    +0.147 C 
BRANCH  19  20
ATOM     20  C   UNL     1       1.096   9.777   3.664  0.00  0.00    +0.137 C 
ATOM     21  C   UNL     1       1.133  10.565   4.998  0.00  0.00    +0.035 C 
ATOM     22  C   UNL     1       1.740  11.915   4.527  0.00  0.00    +0.031 C 
ATOM     23  C   UNL     1       2.711  11.466   3.413  0.00  0.00    +0.160 C 
ATOM     24  O   UNL     1       2.283  10.175   2.958  0.00  0.00    -0.375 OA
ENDBRANCH  19  20
ENDBRANCH   3  19
TORSDOF 5
