REMARK  Name = ZINC48290765
REMARK  10 active torsions:
REMARK  status: ('A' for Active; 'I' for Inactive)
REMARK    1  A    between atoms: C_1  and  C_2
REMARK    2  A    between atoms: C_5  and  C_8
REMARK    3  A    between atoms: C_8  and  N_9
REMARK    4  A    between atoms: N_9  and  C_10
REMARK    5  A    between atoms: N_9  and  C_25
REMARK    6  A    between atoms: C_10  and  C_11
REMARK    7  A    between atoms: N_13  and  C_14
REMARK    8  A    between atoms: C_14  and  C_15
REMARK    9  A    between atoms: C_18  and  S_21
REMARK   10  A    between atoms: S_21  and  N_24
REMARK                            x       y       z     vdW  Elec       q    Type
REMARK                         _______ _______ _______ _____ _____    ______ ____
ROOT
ATOM      1  N   UNL     1       1.456  -4.751  -0.242  0.00  0.00    +0.393 N 
ATOM      2  H   UNL     1       2.140  -4.384   0.403  0.00  0.00    -0.080 HD
ENDROOT
BRANCH   1   3
ATOM      3  C   UNL     1       1.827  -4.381  -1.614  0.00  0.00    -0.036 C 
ATOM      4  C   UNL     1       0.964  -5.158  -2.630  0.00  0.00    -0.006 C 
ATOM      5  C   UNL     1       1.832  -6.400  -2.922  0.00  0.00    +0.034 C 
ATOM      6  C   UNL     1       3.256  -5.960  -2.655  0.00  0.00    -0.046 A 
ATOM      7  C   UNL     1       3.253  -4.797  -1.903  0.00  0.00    -0.058 A 
ATOM      8  C   UNL     1       4.452  -4.207  -1.538  0.00  0.00    +0.002 A 
ATOM      9  C   UNL     1       5.651  -4.775  -1.921  0.00  0.00    +0.000 A 
ATOM     10  C   UNL     1       5.657  -5.935  -2.672  0.00  0.00    +0.000 A 
ATOM     11  C   UNL     1       4.458  -6.529  -3.040  0.00  0.00    +0.004 A 
ENDBRANCH   1   3
BRANCH   1  12
ATOM     12  C   UNL     1       0.135  -4.193   0.076  0.00  0.00    -0.041 C 
BRANCH  12  17
ATOM     13  C   UNL     1       0.461   1.575   0.218  0.00  0.00    +0.044 C 
ATOM     14  C   UNL     1       0.376   0.070   0.181  0.00  0.00    -0.050 A 
ATOM     15  C   UNL     1       0.087  -0.577  -1.006  0.00  0.00    +0.003 A 
ATOM     16  C   UNL     1       0.009  -1.956  -1.040  0.00  0.00    +0.002 A 
ATOM     17  C   UNL     1       0.221  -2.689   0.113  0.00  0.00    -0.064 A 
ATOM     18  C   UNL     1       0.510  -2.042   1.300  0.00  0.00    +0.002 A 
ATOM     19  C   UNL     1       0.592  -0.663   1.333  0.00  0.00    +0.003 A 
ENDBRANCH  12  17
ENDBRANCH   1  12
BRANCH   1  20
ATOM     20  C   UNL     1       1.410  -6.215  -0.125  0.00  0.00    +0.020 C 
BRANCH  20  21
ATOM     21  C   UNL     1       2.813  -6.754  -0.007  0.00  0.00    +0.197 C 
ATOM     22  O   UNL     1       3.745  -5.992   0.140  0.00  0.00    -0.278 OA
ATOM     23  N   UNL     1       3.031  -8.082  -0.065  0.00  0.00    -0.313 N 
ATOM     24  H   UNL     1       2.286  -8.692  -0.182  0.00  0.00    +0.149 HD
BRANCH  23  25
ATOM     25  C   UNL     1       4.395  -8.606   0.050  0.00  0.00    +0.139 C 
BRANCH  25  26
ATOM     26  C   UNL     1       4.365 -10.110  -0.045  0.00  0.00    -0.030 A 
ATOM     27  C   UNL     1       4.218 -10.872   1.098  0.00  0.00    +0.007 A 
ATOM     28  C   UNL     1       4.191 -12.251   1.011  0.00  0.00    +0.029 A 
ATOM     29  C   UNL     1       4.310 -12.868  -0.220  0.00  0.00    +0.105 A 
ATOM     30  C   UNL     1       4.456 -12.106  -1.364  0.00  0.00    +0.029 A 
ATOM     31  C   UNL     1       4.479 -10.727  -1.277  0.00  0.00    +0.007 A 
BRANCH  29  32
ATOM     32  S   UNL     1       4.277 -14.627  -0.331  0.00  0.00    +0.056 S 
ATOM     33  O   UNL     1       4.954 -14.970  -1.532  0.00  0.00    -0.153 OA
ATOM     34  O   UNL     1       4.678 -15.121   0.939  0.00  0.00    -0.153 OA
BRANCH  32  35
ATOM     35  N   UNL     1       2.695 -15.074  -0.535  0.00  0.00    -0.204 NA
ATOM     36  H   UNL     1       2.001 -14.398  -0.571  0.00  0.00    +0.144 HD
ATOM     37  H   UNL     1       2.464 -16.012  -0.618  0.00  0.00    +0.144 HD
ENDBRANCH  32  35
ENDBRANCH  29  32
ENDBRANCH  25  26
ENDBRANCH  23  25
ENDBRANCH  20  21
ENDBRANCH   1  20
TORSDOF 9
