REMARK  Name = ZINC12632078
REMARK  12 active torsions:
REMARK  status: ('A' for Active; 'I' for Inactive)
REMARK    1  A    between atoms: C_1  and  C_2
REMARK    2  A    between atoms: C_2  and  O_3
REMARK    3  A    between atoms: O_3  and  C_4
REMARK    4  A    between atoms: C_7  and  N_16
REMARK    5  A    between atoms: C_9  and  S_10
REMARK    6  A    between atoms: S_10  and  N_13
REMARK    7  A    between atoms: N_13  and  C_14
REMARK    8  A    between atoms: N_13  and  C_15
REMARK    9  A    between atoms: N_16  and  C_17
REMARK   10  A    between atoms: C_17  and  C_19
REMARK   11  A    between atoms: C_17  and  C_20
REMARK   12  A    between atoms: N_25  and  C_26
REMARK                            x       y       z     vdW  Elec       q    Type
REMARK                         _______ _______ _______ _____ _____    ______ ____
ROOT
ATOM      1  C   UNL     1       3.660   1.854  -0.022  0.00  0.00    +0.154 C 
ATOM      2  C   UNL     1       4.047   2.217   1.413  0.00  0.00    +0.038 C 
ENDROOT
BRANCH   1   3
ATOM      3  C   UNL     1       4.745   1.008  -0.636  0.00  0.00    +0.240 C 
ATOM      4  O   UNL     1       4.493  -0.111  -1.029  0.00  0.00    -0.273 OA
ATOM      5  N   UNL     1       5.997   1.496  -0.750  0.00  0.00    -0.239 N 
ATOM      6  C   UNL     1       6.968   0.739  -1.299  0.00  0.00    +0.306 C 
ATOM      7  O   UNL     1       6.714  -0.382  -1.692  0.00  0.00    -0.252 OA
ATOM      8  N   UNL     1       8.219   1.227  -1.412  0.00  0.00    -0.294 N 
ATOM      9  H   UNL     1       6.199   2.391  -0.436  0.00  0.00    +0.159 HD
ATOM     10  H   UNL     1       8.421   2.122  -1.098  0.00  0.00    +0.151 HD
BRANCH   8  11
ATOM     11  C   UNL     1       9.274   0.405  -2.010  0.00  0.00    +0.037 C 
ATOM     12  C   UNL     1       9.449  -0.875  -1.190  0.00  0.00    +0.029 C 
ATOM     13  C   UNL     1      10.551  -1.734  -1.814  0.00  0.00    -0.008 C 
ATOM     14  C   UNL     1      11.865  -0.951  -1.822  0.00  0.00    +0.007 C 
ATOM     15  C   UNL     1      11.690   0.329  -2.642  0.00  0.00    -0.008 C 
ATOM     16  C   UNL     1      10.588   1.188  -2.018  0.00  0.00    +0.029 C 
ATOM     17  C   UNL     1      11.303  -0.033  -4.077  0.00  0.00    +0.007 C 
ATOM     18  C   UNL     1       9.989  -0.817  -4.069  0.00  0.00    -0.008 C 
ATOM     19  C   UNL     1      10.164  -2.097  -3.249  0.00  0.00    +0.007 C 
ATOM     20  C   UNL     1       8.887   0.042  -3.445  0.00  0.00    +0.029 C 
ENDBRANCH   8  11
ENDBRANCH   1   3
BRANCH   1  21
ATOM     21  N   UNL     1       2.402   1.104  -0.014  0.00  0.00    -0.333 N 
ATOM     22  H   UNL     1       2.415   0.134  -0.019  0.00  0.00    +0.147 HD
BRANCH  21  26
ATOM     23  C   UNL     1      -1.237   3.137   0.030  0.00  0.00    +0.147 A 
ATOM     24  C   UNL     1      -0.046   3.848   0.022  0.00  0.00    +0.049 A 
ATOM     25  C   UNL     1       1.160   3.175   0.008  0.00  0.00    +0.026 A 
ATOM     26  C   UNL     1       1.180   1.786   0.000  0.00  0.00    +0.030 A 
ATOM     27  C   UNL     1      -0.013   1.076   0.008  0.00  0.00    +0.055 A 
ATOM     28  C   UNL     1      -1.218   1.750   0.017  0.00  0.00    +0.149 A 
BRANCH  28  29
ATOM     29  S   UNL     1      -2.732   0.849   0.020  0.00  0.00    +0.064 S 
ATOM     30  O   UNL     1      -3.544   1.416  -0.999  0.00  0.00    -0.153 OA
ATOM     31  O   UNL     1      -2.384  -0.529   0.038  0.00  0.00    -0.153 OA
BRANCH  29  32
ATOM     32  N   UNL     1      -3.487   1.165   1.459  0.00  0.00    -0.183 NA
ATOM     33  C   UNL     1      -4.413   2.296   1.568  0.00  0.00    +0.131 C 
ATOM     34  C   UNL     1      -3.231   0.315   2.624  0.00  0.00    +0.131 C 
ENDBRANCH  29  32
ENDBRANCH  28  29
BRANCH  23  35
ATOM     35  O   UNL     1      -2.424   3.800   0.044  0.00  0.00    -0.490 OA
BRANCH  35  37
ATOM     36  C   UNL     1      -3.791   5.793   0.067  0.00  0.00    +0.048 C 
ATOM     37  C   UNL     1      -2.369   5.228   0.051  0.00  0.00    +0.226 C 
ENDBRANCH  35  37
ENDBRANCH  23  35
ENDBRANCH  21  26
ENDBRANCH   1  21
TORSDOF 8
