REMARK  Name = ZINC49574752
REMARK  11 active torsions:
REMARK  status: ('A' for Active; 'I' for Inactive)
REMARK    1  A    between atoms: C_1  and  C_2
REMARK    2  A    between atoms: C_2  and  C_4
REMARK    3  A    between atoms: C_2  and  N_14
REMARK    4  A    between atoms: C_7  and  S_10
REMARK    5  A    between atoms: S_10  and  N_13
REMARK    6  A    between atoms: N_14  and  C_15
REMARK    7  A    between atoms: C_15  and  C_17
REMARK    8  A    between atoms: C_15  and  C_18
REMARK    9  A    between atoms: N_20  and  C_21
REMARK   10  A    between atoms: C_21  and  C_22
REMARK   11  A    between atoms: C_22  and  C_23
REMARK                            x       y       z     vdW  Elec       q    Type
REMARK                         _______ _______ _______ _____ _____    ______ ____
ROOT
ATOM      1  N   UNL     1       0.690  -0.478  -1.207  0.00  0.00    +0.391 N 
ATOM      2  H   UNL     1       1.608  -0.063  -1.256  0.00  0.00    -0.084 HD
ATOM      3  H   UNL     1       0.776  -1.482  -1.172  0.00  0.00    -0.084 HD
ENDROOT
BRANCH   1   5
ATOM      4  C   UNL     1      -0.019   1.526   0.010  0.00  0.00    -0.009 C 
ATOM      5  C   UNL     1       0.002  -0.004   0.002  0.00  0.00    -0.043 C 
BRANCH   5   6
ATOM      6  C   UNL     1       0.731  -0.503   1.223  0.00  0.00    -0.062 A 
ATOM      7  C   UNL     1       2.113  -0.514   1.247  0.00  0.00    +0.004 A 
ATOM      8  C   UNL     1       2.782  -0.972   2.366  0.00  0.00    +0.029 A 
ATOM      9  C   UNL     1       2.068  -1.419   3.463  0.00  0.00    +0.105 A 
ATOM     10  C   UNL     1       0.686  -1.407   3.439  0.00  0.00    +0.029 A 
ATOM     11  C   UNL     1       0.017  -0.945   2.321  0.00  0.00    +0.004 A 
BRANCH   9  12
ATOM     12  S   UNL     1       2.920  -2.003   4.890  0.00  0.00    +0.056 S 
ATOM     13  O   UNL     1       2.026  -2.874   5.569  0.00  0.00    -0.153 OA
ATOM     14  O   UNL     1       4.206  -2.422   4.452  0.00  0.00    -0.153 OA
BRANCH  12  15
ATOM     15  N   UNL     1       3.159  -0.702   5.885  0.00  0.00    -0.204 NA
ATOM     16  H   UNL     1       3.198  -0.827   6.846  0.00  0.00    +0.144 HD
ATOM     17  H   UNL     1       3.261   0.186   5.507  0.00  0.00    +0.144 HD
ENDBRANCH  12  15
ENDBRANCH   9  12
ENDBRANCH   5   6
ENDBRANCH   1   5
BRANCH   1  18
ATOM     18  C   UNL     1      -0.086  -0.093  -2.394  0.00  0.00    +0.014 C 
ATOM     19  C   UNL     1      -1.431  -0.821  -2.382  0.00  0.00    -0.004 C 
BRANCH  18  20
ATOM     20  C   UNL     1       0.679  -0.470  -3.637  0.00  0.00    +0.199 C 
ATOM     21  O   UNL     1       1.762  -1.006  -3.543  0.00  0.00    -0.278 OA
ATOM     22  N   UNL     1       0.158  -0.211  -4.852  0.00  0.00    -0.316 N 
ATOM     23  H   UNL     1      -0.709   0.218  -4.927  0.00  0.00    +0.149 HD
BRANCH  22  24
ATOM     24  C   UNL     1       0.901  -0.578  -6.061  0.00  0.00    +0.109 C 
BRANCH  24  25
ATOM     25  C   UNL     1       0.093  -0.177  -7.297  0.00  0.00    +0.054 C 
BRANCH  25  26
ATOM     26  C   UNL     1       0.857  -0.554  -8.540  0.00  0.00    -0.046 A 
ATOM     27  C   UNL     1       1.743   0.344  -9.105  0.00  0.00    +0.006 A 
ATOM     28  C   UNL     1       2.445  -0.000 -10.245  0.00  0.00    +0.038 A 
ATOM     29  C   UNL     1       2.260  -1.246 -10.820  0.00  0.00    +0.123 A 
ATOM     30  C   UNL     1       1.373  -2.145 -10.253  0.00  0.00    +0.038 A 
ATOM     31  C   UNL     1       0.677  -1.800  -9.111  0.00  0.00    +0.006 A 
ATOM     32  F   UNL     1       2.946  -1.584 -11.935  0.00  0.00    -0.205 F 
ENDBRANCH  25  26
ENDBRANCH  24  25
ENDBRANCH  22  24
ENDBRANCH  18  20
ENDBRANCH   1  18
TORSDOF 9
