REMARK  Name = ZINC54101713
REMARK  7 active torsions:
REMARK  status: ('A' for Active; 'I' for Inactive)
REMARK    1  A    between atoms: C_1  and  N_2
REMARK    2  A    between atoms: N_2  and  C_3
REMARK    3  A    between atoms: N_2  and  C_4
REMARK    4  A    between atoms: C_4  and  C_10
REMARK    5  A    between atoms: C_10  and  N_11
REMARK    6  A    between atoms: N_14  and  N_15
REMARK    7  A    between atoms: C_16  and  C_18
REMARK                            x       y       z     vdW  Elec       q    Type
REMARK                         _______ _______ _______ _____ _____    ______ ____
ROOT
ATOM      1  N   UNL     1      -1.430  -0.478  -2.432  0.00  0.00    -0.300 N 
ATOM      2  C   UNL     1      -1.907  -0.152  -3.650  0.00  0.00    +0.316 C 
ATOM      3  O   UNL     1      -2.906   0.534  -3.749  0.00  0.00    -0.251 OA
ATOM      4  N   UNL     1      -1.276  -0.587  -4.759  0.00  0.00    -0.218 N 
ATOM      5  H   UNL     1      -0.633  -1.026  -2.354  0.00  0.00    +0.150 HD
ATOM      6  H   UNL     1      -1.619  -0.352  -5.636  0.00  0.00    +0.174 HD
ENDROOT
BRANCH   4   7
ATOM      7  N   UNL     1      -0.125  -1.377  -4.646  0.00  0.00    -0.233 N 
ATOM      8  C   UNL     1       0.506  -1.812  -5.755  0.00  0.00    +0.234 C 
ATOM      9  O   UNL     1       0.077  -1.519  -6.851  0.00  0.00    -0.274 OA
ATOM     10  H   UNL     1       0.218  -1.612  -3.769  0.00  0.00    +0.173 HD
BRANCH   8  11
ATOM     11  C   UNL     1       1.744  -2.663  -5.633  0.00  0.00    +0.099 C 
ATOM     12  C   UNL     1       1.401  -3.958  -4.878  0.00  0.00    +0.037 C 
ATOM     13  C   UNL     1       2.595  -4.942  -5.039  0.00  0.00    +0.166 C 
ATOM     14  S   UNL     1       3.026  -4.663  -6.809  0.00  0.00    -0.030 S 
ATOM     15  O   UNL     1       2.325  -5.604  -7.610  0.00  0.00    -0.174 OA
ATOM     16  O   UNL     1       4.438  -4.556  -6.930  0.00  0.00    -0.174 OA
ATOM     17  C   UNL     1       2.276  -3.002  -7.046  0.00  0.00    +0.178 C 
ENDBRANCH   8  11
ENDBRANCH   4   7
BRANCH   1  18
ATOM     18  C   UNL     1      -2.116  -0.006  -1.227  0.00  0.00    +0.094 C 
BRANCH  18  19
ATOM     19  C   UNL     1      -1.376  -0.512   0.012  0.00  0.00    -0.050 C 
ATOM     20  C   UNL     1      -2.092  -0.019   1.271  0.00  0.00    -0.010 C 
ATOM     21  C   UNL     1      -3.528  -0.549   1.282  0.00  0.00    -0.001 C 
ATOM     22  C   UNL     1      -3.507  -2.079   1.274  0.00  0.00    -0.000 C 
ATOM     23  C   UNL     1      -2.791  -2.572   0.015  0.00  0.00    -0.001 C 
ATOM     24  C   UNL     1      -1.355  -2.042   0.004  0.00  0.00    -0.010 C 
BRANCH  19  26
ATOM     25  C   UNL     1      -0.018   1.465   0.010  0.00  0.00    -0.096 C 
ATOM     26  N   UNL     1       0.002  -0.004   0.002  0.00  0.00    +0.381 N 
ATOM     27  C   UNL     1       0.713  -0.491   1.192  0.00  0.00    -0.096 C 
ATOM     28  H   UNL     1       0.474  -0.330  -0.828  0.00  0.00    -0.082 HD
ENDBRANCH  19  26
ENDBRANCH  18  19
ENDBRANCH   1  18
TORSDOF 5
