REMARK  Name = ZINC39575975
REMARK  6 active torsions:
REMARK  status: ('A' for Active; 'I' for Inactive)
REMARK    1  A    between atoms: C_1  and  C_2
REMARK    2  A    between atoms: C_5  and  C_29
REMARK    3  A    between atoms: C_8  and  C_10
REMARK    4  A    between atoms: C_12  and  C_23
REMARK    5  A    between atoms: C_32  and  O_35
REMARK    6  A    between atoms: O_35  and  C_36
REMARK                            x       y       z     vdW  Elec       q    Type
REMARK                         _______ _______ _______ _____ _____    ______ ____
ROOT
ATOM      1  C   UNL     1      -0.109  -0.525  -4.718  0.00  0.00    +0.152 C 
ATOM      2  C   UNL     1       0.180   0.943  -4.965  0.00  0.00    -0.014 C 
ATOM      3  C   UNL     1      -0.738   1.647  -5.750  0.00  0.00    +0.002 A 
ATOM      4  C   UNL     1      -0.546   3.016  -6.030  0.00  0.00    +0.025 A 
ATOM      5  C   UNL     1      -1.455   3.678  -6.797  0.00  0.00    +0.019 A 
ATOM      6  C   UNL     1      -2.575   3.029  -7.314  0.00  0.00    +0.017 A 
ATOM      7  C   UNL     1      -2.813   1.709  -7.079  0.00  0.00    +0.025 A 
ATOM      8  C   UNL     1      -1.916   0.963  -6.294  0.00  0.00    +0.041 A 
ATOM      9  N   UNL     1      -2.152  -0.333  -6.063  0.00  0.00    -0.284 N 
ATOM     10  C   UNL     1      -1.361  -1.100  -5.340  0.00  0.00    +0.230 C 
ATOM     11  O   UNL     1      -1.639  -2.273  -5.173  0.00  0.00    -0.274 OA
ATOM     12 BR   UNL     1      -1.193   5.513  -7.168  0.00  0.00    -0.050 Br
ATOM     13  H   UNL     1      -2.949  -0.730  -6.449  0.00  0.00    +0.155 HD
ENDROOT
BRANCH   1  20
ATOM     14  C   UNL     1      -0.258   2.029  -0.093  0.00  0.00    +0.111 C 
ATOM     15  C   UNL     1      -0.315   0.530   0.053  0.00  0.00    +0.232 C 
ATOM     16  O   UNL     1      -0.385   0.031   1.157  0.00  0.00    -0.274 OA
ATOM     17  N   UNL     1      -0.288  -0.256  -1.041  0.00  0.00    -0.186 N 
ATOM     18  C   UNL     1      -0.343  -1.727  -1.044  0.00  0.00    +0.136 C 
ATOM     19  C   UNL     1      -0.279  -2.081  -2.543  0.00  0.00    +0.083 C 
ATOM     20  C   UNL     1      -0.194  -0.736  -3.228  0.00  0.00    +0.055 C 
ATOM     21  N   UNL     1      -0.210   0.190  -2.359  0.00  0.00    -0.185 NA
BRANCH  18  22
ATOM     22  C   UNL     1      -1.633  -2.212  -0.433  0.00  0.00    -0.024 A 
ATOM     23  C   UNL     1      -2.813  -1.537  -0.687  0.00  0.00    +0.009 A 
ATOM     24  C   UNL     1      -3.997  -1.980  -0.129  0.00  0.00    +0.046 A 
ATOM     25  C   UNL     1      -4.001  -3.102   0.687  0.00  0.00    +0.120 A 
ATOM     26  C   UNL     1      -2.815  -3.777   0.939  0.00  0.00    +0.046 A 
ATOM     27  C   UNL     1      -1.635  -3.334   0.374  0.00  0.00    +0.009 A 
BRANCH  25  28
ATOM     28  O   UNL     1      -5.164  -3.539   1.238  0.00  0.00    -0.495 OA
ATOM     29  C   UNL     1      -5.093  -4.701   2.067  0.00  0.00    +0.277 C 
ENDBRANCH  25  28
ENDBRANCH  18  22
ENDBRANCH   1  20
BRANCH   2  30
ATOM     30  C   UNL     1       1.328   1.573  -4.423  0.00  0.00    -0.020 A 
ATOM     31  C   UNL     1       1.190   2.628  -3.506  0.00  0.00    +0.008 A 
ATOM     32  C   UNL     1       2.312   3.233  -2.986  0.00  0.00    +0.001 A 
ATOM     33  C   UNL     1       3.574   2.806  -3.364  0.00  0.00    +0.000 A 
ATOM     34  C   UNL     1       3.722   1.766  -4.268  0.00  0.00    +0.001 A 
ATOM     35  C   UNL     1       2.613   1.144  -4.796  0.00  0.00    +0.008 A 
ENDBRANCH   2  30
TORSDOF 4
