REMARK  Name = ZINC16557673
REMARK  11 active torsions:
REMARK  status: ('A' for Active; 'I' for Inactive)
REMARK    1  A    between atoms: C_1  and  C_2
REMARK    2  A    between atoms: C_2  and  N_57
REMARK    3  A    between atoms: C_3  and  C_4
REMARK    4  A    between atoms: C_3  and  N_57
REMARK    5  A    between atoms: N_6  and  C_7
REMARK    6  A    between atoms: C_12  and  C_13
REMARK    7  A    between atoms: C_15  and  C_16
REMARK    8  A    between atoms: C_15  and  N_57
REMARK    9  A    between atoms: N_21  and  C_22
REMARK   10  A    between atoms: C_25  and  C_29
REMARK   11  A    between atoms: C_27  and  C_28
REMARK                            x       y       z     vdW  Elec       q    Type
REMARK                         _______ _______ _______ _____ _____    ______ ____
ROOT
ATOM      1  C   UNL     1       3.951   2.487  -0.383  0.00  0.00    +0.020 C 
ENDROOT
BRANCH   1   2
ATOM      2  C   UNL     1       4.348   2.934  -1.766  0.00  0.00    +0.204 C 
ATOM      3  O   UNL     1       5.109   2.260  -2.427  0.00  0.00    -0.277 OA
ATOM      4  N   UNL     1       3.858   4.085  -2.269  0.00  0.00    -0.241 N 
ATOM      5  C   UNL     1       4.213   4.485  -3.506  0.00  0.00    +0.310 C 
ATOM      6  O   UNL     1       4.975   3.809  -4.168  0.00  0.00    -0.252 OA
ATOM      7  N   UNL     1       3.727   5.639  -4.006  0.00  0.00    -0.269 N 
ATOM      8  H   UNL     1       3.250   4.625  -1.740  0.00  0.00    +0.159 HD
ATOM      9  H   UNL     1       3.054   6.135  -3.515  0.00  0.00    +0.156 HD
BRANCH   7  10
ATOM     10  C   UNL     1       4.194   6.121  -5.234  0.00  0.00    +0.038 A 
ATOM     11  C   UNL     1       5.453   5.754  -5.692  0.00  0.00    +0.024 A 
ATOM     12  C   UNL     1       5.911   6.231  -6.904  0.00  0.00    +0.005 A 
ATOM     13  C   UNL     1       5.118   7.072  -7.662  0.00  0.00    -0.050 A 
ATOM     14  C   UNL     1       3.864   7.439  -7.209  0.00  0.00    +0.008 A 
ATOM     15  C   UNL     1       3.398   6.962  -6.000  0.00  0.00    -0.029 A 
ATOM     16  C   UNL     1       2.029   7.357  -5.509  0.00  0.00    +0.045 C 
ATOM     17  C   UNL     1       5.620   7.590  -8.985  0.00  0.00    +0.044 C 
ENDBRANCH   7  10
ENDBRANCH   1   2
BRANCH   1  18
ATOM     18  N   UNL     1       4.708   1.262  -0.046  0.00  0.00    +0.391 N 
ATOM     19  H   UNL     1       4.721   0.643  -0.865  0.00  0.00    -0.080 HD
BRANCH  18  21
ATOM     20  C   UNL     1       2.703   0.021   0.605  0.00  0.00    -0.017 C 
ATOM     21  C   UNL     1       4.055   0.558   1.078  0.00  0.00    -0.081 C 
ENDBRANCH  18  21
BRANCH  18  22
ATOM     22  C   UNL     1       6.098   1.611   0.315  0.00  0.00    +0.020 C 
BRANCH  22  23
ATOM     23  C   UNL     1       6.901   0.341   0.438  0.00  0.00    +0.201 C 
ATOM     24  O   UNL     1       6.367  -0.734   0.261  0.00  0.00    -0.278 OA
ATOM     25  N   UNL     1       8.212   0.400   0.744  0.00  0.00    -0.287 N 
ATOM     26  H   UNL     1       8.626   1.254   0.944  0.00  0.00    +0.155 HD
BRANCH  25  27
ATOM     27  C   UNL     1       8.977  -0.771   0.774  0.00  0.00    +0.038 A 
ATOM     28  C   UNL     1       8.367  -1.995   1.018  0.00  0.00    +0.043 A 
ATOM     29  C   UNL     1       9.124  -3.150   1.041  0.00  0.00    +0.043 A 
ATOM     30  C   UNL     1      10.491  -3.087   0.833  0.00  0.00    +0.020 A 
ATOM     31  C   UNL     1      11.101  -1.870   0.595  0.00  0.00    +0.006 A 
ATOM     32  C   UNL     1      10.348  -0.712   0.565  0.00  0.00    -0.029 A 
ATOM     33  C   UNL     1      11.015   0.614   0.306  0.00  0.00    +0.045 C 
ATOM     34 CL   UNL     1       8.361  -4.681   1.338  0.00  0.00    -0.083 Cl
ENDBRANCH  25  27
ENDBRANCH  22  23
ENDBRANCH  18  22
ENDBRANCH   1  18
TORSDOF 7
