REMARK  Name = ZINC29787618
REMARK  11 active torsions:
REMARK  status: ('A' for Active; 'I' for Inactive)
REMARK    1  A    between atoms: C_1  and  C_2
REMARK    2  A    between atoms: C_2  and  C_3
REMARK    3  A    between atoms: C_2  and  C_4
REMARK    4  A    between atoms: C_4  and  C_6
REMARK    5  A    between atoms: C_4  and  N_19
REMARK    6  A    between atoms: N_8  and  C_9
REMARK    7  A    between atoms: C_11  and  C_17
REMARK    8  A    between atoms: C_11  and  C_18
REMARK    9  A    between atoms: C_13  and  C_15
REMARK   10  A    between atoms: C_13  and  C_16
REMARK   11  A    between atoms: C_20  and  C_22
REMARK                            x       y       z     vdW  Elec       q    Type
REMARK                         _______ _______ _______ _____ _____    ______ ____
ROOT
ATOM      1  C   UNL     1       0.944  -2.029  -1.211  0.00  0.00    +0.234 C 
ATOM      2  O   UNL     1       0.687  -2.604  -2.247  0.00  0.00    -0.274 OA
ATOM      3  N   UNL     1       1.169  -2.736  -0.086  0.00  0.00    -0.311 N 
ATOM      4  H   UNL     1       1.481  -2.221   0.835  0.00  0.00    +0.149 HD
ENDROOT
BRANCH   3   5
ATOM      5  C   UNL     1       0.998  -4.195  -0.089  0.00  0.00    +0.070 C 
ATOM      6  C   UNL     1      -0.465  -4.530   0.201  0.00  0.00    +0.009 C 
ATOM      7  C   UNL     1      -0.669  -6.043   0.224  0.00  0.00    -0.072 C 
ATOM      8  N   UNL     1       0.298  -6.730   1.054  0.00  0.00    +0.386 N 
ATOM      9  C   UNL     1       1.687  -6.322   1.048  0.00  0.00    -0.072 C 
ATOM     10  C   UNL     1       1.863  -4.806   1.012  0.00  0.00    +0.009 C 
ATOM     11  C   UNL     1       2.444  -6.953  -0.127  0.00  0.00    -0.010 C 
ATOM     12  C   UNL     1       2.348  -6.837   2.346  0.00  0.00    -0.010 C 
ATOM     13  C   UNL     1      -0.651  -6.585  -1.210  0.00  0.00    -0.010 C 
ATOM     14  C   UNL     1      -2.077  -6.314   0.798  0.00  0.00    -0.010 C 
ATOM     15  H   UNL     1       0.003  -6.642   2.111  0.00  0.00    -0.084 HD
ATOM     16  H   UNL     1       0.335  -7.793   0.772  0.00  0.00    -0.084 HD
ENDBRANCH   3   5
BRANCH   1  17
ATOM     17  C   UNL     1       1.012  -0.524  -1.180  0.00  0.00    +0.162 C 
BRANCH  17  18
ATOM     18  N   UNL     1       1.192  -0.016  -2.543  0.00  0.00    -0.300 N 
ATOM     19  C   UNL     1       1.768   1.186  -2.743  0.00  0.00    +0.246 C 
ATOM     20  O   UNL     1       2.140   1.848  -1.793  0.00  0.00    -0.270 OA
ATOM     21  H   UNL     1       0.856  -0.615  -3.402  0.00  0.00    +0.150 HD
BRANCH  19  22
ATOM     22  C   UNL     1       1.950   1.699  -4.117  0.00  0.00    +0.055 A 
ATOM     23  C   UNL     1       1.530   0.939  -5.210  0.00  0.00    +0.014 A 
ATOM     24  C   UNL     1       1.696   1.425  -6.490  0.00  0.00    +0.001 A 
ATOM     25  C   UNL     1       2.289   2.660  -6.693  0.00  0.00    +0.001 A 
ATOM     26  C   UNL     1       2.713   3.416  -5.616  0.00  0.00    +0.021 A 
ATOM     27  C   UNL     1       2.547   2.943  -4.328  0.00  0.00    +0.053 A 
ATOM     28 CL   UNL     1       3.080   3.894  -2.977  0.00  0.00    -0.083 Cl
ENDBRANCH  19  22
ENDBRANCH  17  18
BRANCH  17  30
ATOM     29  C   UNL     1      -1.460  -0.348  -1.501  0.00  0.00    +0.009 C 
ATOM     30  C   UNL     1      -0.287   0.034  -0.595  0.00  0.00    +0.012 C 
ATOM     31  C   UNL     1      -0.191   1.558  -0.500  0.00  0.00    +0.009 C 
ENDBRANCH  17  30
ENDBRANCH   1  17
TORSDOF 5
