REMARK  Name = ZINC39631252
REMARK  13 active torsions:
REMARK  status: ('A' for Active; 'I' for Inactive)
REMARK    1  A    between atoms: C_1  and  C_2
REMARK    2  A    between atoms: C_2  and  C_4
REMARK    3  A    between atoms: C_2  and  N_11
REMARK    4  A    between atoms: C_4  and  C_5
REMARK    5  A    between atoms: C_5  and  C_6
REMARK    6  A    between atoms: C_6  and  C_7
REMARK    7  A    between atoms: C_7  and  C_8
REMARK    8  A    between atoms: C_7  and  C_9
REMARK    9  A    between atoms: C_7  and  O_10
REMARK   10  A    between atoms: C_12  and  C_14
REMARK   11  A    between atoms: C_25  and  C_27
REMARK   12  A    between atoms: C_31  and  O_33
REMARK   13  A    between atoms: O_33  and  C_34
REMARK                            x       y       z     vdW  Elec       q    Type
REMARK                         _______ _______ _______ _____ _____    ______ ____
ROOT
ATOM      1  C   UNL     1       0.557  -0.466  -3.539  0.00  0.00    +0.100 C 
ATOM      2  C   UNL     1       1.778   0.307  -4.088  0.00  0.00    +0.121 C 
ATOM      3  N   UNL     1       1.670   0.180  -5.561  0.00  0.00    -0.296 N 
ATOM      4  C   UNL     1       0.219   0.311  -5.837  0.00  0.00    +0.115 C 
ATOM      5  C   UNL     1      -0.464  -0.460  -4.690  0.00  0.00    -0.004 C 
ATOM      6  C   UNL     1      -1.740   0.257  -4.260  0.00  0.00    -0.010 C 
ATOM      7  C   UNL     1      -2.761   0.199  -5.399  0.00  0.00    -0.082 C 
ATOM      8  N   UNL     1      -3.050  -1.202  -5.729  0.00  0.00    +0.379 N 
ATOM      9  C   UNL     1      -1.837  -1.858  -6.230  0.00  0.00    -0.082 C 
ATOM     10  C   UNL     1      -0.776  -1.888  -5.126  0.00  0.00    -0.010 C 
ATOM     11  C   UNL     1       2.666  -0.012  -6.449  0.00  0.00    +0.247 C 
ATOM     12  O   UNL     1       3.799  -0.212  -6.057  0.00  0.00    -0.270 OA
ATOM     13  H   UNL     1      -3.373  -1.681  -4.902  0.00  0.00    -0.086 HD
ATOM     14  H   UNL     1      -3.768  -1.238  -6.437  0.00  0.00    -0.086 HD
ENDROOT
BRANCH  11  15
ATOM     15  C   UNL     1       2.380   0.020  -7.899  0.00  0.00    +0.040 A 
ATOM     16  C   UNL     1       1.239   0.670  -8.374  0.00  0.00    +0.013 A 
ATOM     17  C   UNL     1       0.975   0.698  -9.728  0.00  0.00    +0.004 A 
ATOM     18  C   UNL     1       1.837   0.083 -10.617  0.00  0.00    +0.045 A 
ATOM     19  C   UNL     1       2.973  -0.567 -10.155  0.00  0.00    +0.121 A 
ATOM     20  C   UNL     1       3.251  -0.595  -8.798  0.00  0.00    +0.058 A 
BRANCH  19  21
ATOM     21  O   UNL     1       3.816  -1.170 -11.034  0.00  0.00    -0.495 OA
ATOM     22  C   UNL     1       3.470  -1.097 -12.418  0.00  0.00    +0.277 C 
ENDBRANCH  19  21
ENDBRANCH  11  15
BRANCH   1  24
ATOM     23  N   UNL     1      -0.635  -0.472  -1.373  0.00  0.00    -0.312 N 
ATOM     24  C   UNL     1      -0.008   0.237  -2.332  0.00  0.00    +0.218 C 
ATOM     25  O   UNL     1       0.101   1.440  -2.224  0.00  0.00    -0.275 OA
ATOM     26  H   UNL     1      -0.723  -1.434  -1.459  0.00  0.00    +0.149 HD
BRANCH  23  28
ATOM     27  C   UNL     1      -0.087   0.383   0.852  0.00  0.00    +0.028 C 
ATOM     28  C   UNL     1      -1.185   0.211  -0.199  0.00  0.00    +0.070 C 
BRANCH  28  29
ATOM     29  C   UNL     1      -2.326  -0.623   0.388  0.00  0.00    +0.022 C 
BRANCH  29  30
ATOM     30  C   UNL     1      -3.478  -0.690  -0.617  0.00  0.00    +0.005 C 
BRANCH  30  31
ATOM     31  C   UNL     1      -4.619  -1.524  -0.030  0.00  0.00    +0.034 C 
BRANCH  31  32
ATOM     32  C   UNL     1      -5.770  -1.591  -1.035  0.00  0.00    +0.061 C 
ATOM     33  C   UNL     1      -6.958  -2.318  -0.402  0.00  0.00    +0.041 C 
ATOM     34  C   UNL     1      -6.189  -0.173  -1.427  0.00  0.00    +0.041 C 
BRANCH  32  35
ATOM     35  O   UNL     1      -5.344  -2.301  -2.200  0.00  0.00    -0.389 OA
ATOM     36  H   UNL     1      -5.063  -3.210  -2.027  0.00  0.00    +0.210 HD
ENDBRANCH  32  35
ENDBRANCH  31  32
ENDBRANCH  30  31
ENDBRANCH  29  30
ENDBRANCH  28  29
ENDBRANCH  23  28
ENDBRANCH   1  24
TORSDOF 9
