REMARK  Name = ZINC43261306
REMARK  8 active torsions:
REMARK  status: ('A' for Active; 'I' for Inactive)
REMARK    1  A    between atoms: C_1  and  C_2
REMARK    2  A    between atoms: C_2  and  C_3
REMARK    3  A    between atoms: C_3  and  C_5
REMARK    4  A    between atoms: C_3  and  N_22
REMARK    5  A    between atoms: C_5  and  C_7
REMARK    6  A    between atoms: C_5  and  N_13
REMARK    7  A    between atoms: C_18  and  C_20
REMARK    8  A    between atoms: C_20  and  O_21
REMARK                            x       y       z     vdW  Elec       q    Type
REMARK                         _______ _______ _______ _____ _____    ______ ____
ROOT
ATOM      1  C   UNL     1       0.820  -2.325  -1.183  0.00  0.00    +0.079 C 
ENDROOT
BRANCH   1   2
ATOM      2  C   UNL     1      -0.416  -3.130  -1.491  0.00  0.00    +0.006 A 
ATOM      3  C   UNL     1      -1.319  -3.667  -0.635  0.00  0.00    +0.014 A 
ATOM      4  C   UNL     1      -2.390  -4.376  -1.148  0.00  0.00    +0.023 A 
ATOM      5  C   UNL     1      -2.504  -4.512  -2.492  0.00  0.00    +0.055 A 
ATOM      6  S   UNL     1      -1.075  -3.617  -3.077  0.00  0.00    -0.085 S 
ATOM      7 BR   UNL     1      -3.836  -5.412  -3.489  0.00  0.00    -0.043 Br
ENDBRANCH   1   2
BRANCH   1   8
ATOM      8  N   UNL     1       1.894  -2.702  -2.112  0.00  0.00    -0.291 NA
ATOM      9  C   UNL     1       1.699  -2.072  -3.425  0.00  0.00    +0.085 C 
ATOM     10  C   UNL     1       2.749  -2.599  -4.406  0.00  0.00    +0.015 C 
ATOM     11  C   UNL     1       4.147  -2.282  -3.869  0.00  0.00    +0.003 C 
ATOM     12  C   UNL     1       4.307  -2.908  -2.481  0.00  0.00    +0.021 C 
ATOM     13  C   UNL     1       3.212  -2.372  -1.556  0.00  0.00    +0.083 C 
BRANCH  13  14
ATOM     14  C   UNL     1       3.355  -3.010  -0.172  0.00  0.00    +0.174 C 
BRANCH  14  15
ATOM     15  O   UNL     1       3.282  -4.432  -0.294  0.00  0.00    -0.393 OA
ATOM     16  H   UNL     1       3.289  -4.901   0.552  0.00  0.00    +0.209 HD
ENDBRANCH  14  15
ENDBRANCH  13  14
ENDBRANCH   1   8
BRANCH   1  17
ATOM     17  C   UNL     1       0.511  -0.835  -1.340  0.00  0.00    -0.053 C 
BRANCH  17  18
ATOM     18  N   UNL     1       1.725  -0.051  -1.074  0.00  0.00    +0.381 N 
ATOM     19  H   UNL     1       2.183  -0.411  -0.251  0.00  0.00    -0.090 HD
ATOM     20  H   UNL     1       2.349  -0.120  -1.864  0.00  0.00    -0.090 HD
ATOM     21  H   UNL     1       1.476   0.915  -0.925  0.00  0.00    -0.090 HD
ENDBRANCH  17  18
BRANCH  17  23
ATOM     22  C   UNL     1      -0.980   1.024  -0.587  0.00  0.00    +0.002 C 
ATOM     23  C   UNL     1      -0.582  -0.434  -0.347  0.00  0.00    -0.018 C 
ENDBRANCH  17  23
ENDBRANCH   1  17
TORSDOF 7
