REMARK  Name = ZINC40649916
REMARK  13 active torsions:
REMARK  status: ('A' for Active; 'I' for Inactive)
REMARK    1  A    between atoms: C_1  and  C_2
REMARK    2  A    between atoms: C_2  and  C_3
REMARK    3  A    between atoms: C_2  and  C_4
REMARK    4  A    between atoms: C_4  and  O_5
REMARK    5  A    between atoms: O_5  and  C_6
REMARK    6  A    between atoms: C_6  and  C_8
REMARK    7  A    between atoms: C_11  and  N_14
REMARK    8  A    between atoms: C_16  and  N_35
REMARK    9  A    between atoms: C_17  and  N_21
REMARK   10  A    between atoms: N_21  and  N_22
REMARK   11  A    between atoms: C_23  and  C_25
REMARK   12  A    between atoms: C_25  and  C_26
REMARK   13  A    between atoms: C_29  and  N_32
REMARK                            x       y       z     vdW  Elec       q    Type
REMARK                         _______ _______ _______ _____ _____    ______ ____
ROOT
ATOM      1  N   UNL     1      -6.198   0.796  -6.037  0.00  0.00    -0.297 N 
ATOM      2  C   UNL     1      -7.483   0.310  -6.235  0.00  0.00    +0.159 A 
ATOM      3  C   UNL     1      -8.149   0.545  -7.435  0.00  0.00    +0.207 A 
ATOM      4  C   UNL     1      -9.435   0.036  -7.584  0.00  0.00    +0.171 A 
ATOM      5  N   UNL     1      -9.979  -0.651  -6.582  0.00  0.00    -0.217 NA
ATOM      6  C   UNL     1      -9.316  -0.851  -5.461  0.00  0.00    +0.225 A 
ATOM      7  N   UNL     1      -8.095  -0.391  -5.283  0.00  0.00    -0.218 NA
ATOM      8  H   UNL     1      -5.788   1.370  -6.703  0.00  0.00    +0.154 HD
ENDROOT
BRANCH   1  12
ATOM      9  C   UNL     1      -4.102  -0.213  -2.584  0.00  0.00    +0.059 A 
ATOM     10  C   UNL     1      -4.996  -1.126  -3.154  0.00  0.00    +0.017 A 
ATOM     11  C   UNL     1      -5.687  -0.789  -4.295  0.00  0.00    +0.024 A 
ATOM     12  C   UNL     1      -5.497   0.459  -4.883  0.00  0.00    +0.032 A 
ATOM     13  C   UNL     1      -4.608   1.369  -4.319  0.00  0.00    +0.024 A 
ATOM     14  C   UNL     1      -3.918   1.042  -3.174  0.00  0.00    +0.017 A 
BRANCH   9  15
ATOM     15  C   UNL     1      -3.360  -0.570  -1.362  0.00  0.00    +0.339 C 
ATOM     16  O   UNL     1      -2.587   0.226  -0.866  0.00  0.00    -0.245 OA
BRANCH  15  17
ATOM     17  O   UNL     1      -3.538  -1.780  -0.794  0.00  0.00    -0.461 OA
BRANCH  17  18
ATOM     18  C   UNL     1      -2.786  -2.058   0.388  0.00  0.00    +0.235 C 
BRANCH  18  20
ATOM     19  C   UNL     1      -2.647  -4.495  -0.147  0.00  0.00    +0.010 C 
ATOM     20  C   UNL     1      -3.119  -3.467   0.884  0.00  0.00    +0.020 C 
ATOM     21  C   UNL     1      -2.411  -3.720   2.216  0.00  0.00    +0.010 C 
ENDBRANCH  18  20
ENDBRANCH  17  18
ENDBRANCH  15  17
ENDBRANCH   9  15
ENDBRANCH   1  12
BRANCH   3  22
ATOM     22  N   UNL     1      -7.505   1.315  -8.523  0.00  0.00    +0.063 N 
ATOM     23  O   UNL     1      -6.846   0.743  -9.360  0.00  0.00    -0.126 OA
ATOM     24  O   UNL     1      -7.638   2.515  -8.574  0.00  0.00    -0.126 OA
ENDBRANCH   3  22
BRANCH   4  25
ATOM     25  N   UNL     1     -10.141   0.243  -8.760  0.00  0.00    -0.246 N 
ATOM     26  H   UNL     1      -9.738   0.745  -9.485  0.00  0.00    +0.172 HD
BRANCH  25  27
ATOM     27  N   UNL     1     -11.436  -0.273  -8.899  0.00  0.00    -0.235 N 
ATOM     28  C   UNL     1     -12.121  -0.072 -10.042  0.00  0.00    +0.233 C 
ATOM     29  O   UNL     1     -11.618   0.555 -10.949  0.00  0.00    -0.274 OA
ATOM     30  H   UNL     1     -11.839  -0.775  -8.174  0.00  0.00    +0.173 HD
BRANCH  28  31
ATOM     31  C   UNL     1     -13.514  -0.628 -10.192  0.00  0.00    +0.132 C 
BRANCH  31  32
ATOM     32  C   UNL     1     -14.055  -0.266 -11.552  0.00  0.00    -0.038 A 
ATOM     33  C   UNL     1     -14.751   0.915 -11.727  0.00  0.00    +0.006 A 
ATOM     34  C   UNL     1     -15.247   1.247 -12.974  0.00  0.00    +0.033 A 
ATOM     35  C   UNL     1     -15.047   0.397 -14.046  0.00  0.00    +0.126 A 
ATOM     36  C   UNL     1     -14.351  -0.784 -13.871  0.00  0.00    +0.033 A 
ATOM     37  C   UNL     1     -13.851  -1.113 -12.625  0.00  0.00    +0.006 A 
BRANCH  35  38
ATOM     38  N   UNL     1     -15.580   0.752 -15.380  0.00  0.00    +0.056 N 
ATOM     39  O   UNL     1     -16.189   1.785 -15.533  0.00  0.00    -0.126 OA
ATOM     40  O   UNL     1     -15.405   0.009 -16.318  0.00  0.00    -0.126 OA
ENDBRANCH  35  38
ENDBRANCH  31  32
ENDBRANCH  28  31
ENDBRANCH  25  27
ENDBRANCH   4  25
TORSDOF 11
