REMARK  Name = ZINC09382879
REMARK  10 active torsions:
REMARK  status: ('A' for Active; 'I' for Inactive)
REMARK    1  A    between atoms: C_1  and  O_2
REMARK    2  A    between atoms: O_2  and  C_3
REMARK    3  A    between atoms: C_6  and  N_9
REMARK    4  A    between atoms: C_10  and  C_26
REMARK    5  A    between atoms: C_13  and  S_14
REMARK    6  A    between atoms: S_14  and  C_15
REMARK    7  A    between atoms: C_15  and  C_16
REMARK    8  A    between atoms: N_18  and  C_19
REMARK    9  A    between atoms: C_19  and  C_20
REMARK   10  A    between atoms: C_26  and  N_27
REMARK                            x       y       z     vdW  Elec       q    Type
REMARK                         _______ _______ _______ _____ _____    ______ ____
ROOT
ATOM      1  N   UNL     1      -0.006  -5.337   5.583  0.00  0.00    -0.273 N 
ATOM      2  C   UNL     1       0.096  -5.253   6.946  0.00  0.00    +0.159 A 
ATOM      3  N   UNL     1       0.248  -3.994   7.246  0.00  0.00    -0.131 NA
ATOM      4  N   UNL     1       0.255  -3.282   6.176  0.00  0.00    -0.122 NA
ATOM      5  C   UNL     1       0.106  -4.053   5.125  0.00  0.00    +0.197 A 
ENDROOT
BRANCH   1   9
ATOM      6  C   UNL     1      -0.538  -8.790   3.303  0.00  0.00    +0.120 A 
ATOM      7  C   UNL     1       0.653  -8.083   3.222  0.00  0.00    +0.047 A 
ATOM      8  C   UNL     1       0.829  -6.940   3.976  0.00  0.00    +0.030 A 
ATOM      9  C   UNL     1      -0.185  -6.499   4.815  0.00  0.00    +0.050 A 
ATOM     10  C   UNL     1      -1.374  -7.210   4.900  0.00  0.00    +0.030 A 
ATOM     11  C   UNL     1      -1.551  -8.350   4.141  0.00  0.00    +0.047 A 
BRANCH   6  13
ATOM     12  C   UNL     1      -1.962 -10.594   2.692  0.00  0.00    +0.277 C 
ATOM     13  O   UNL     1      -0.711  -9.916   2.559  0.00  0.00    -0.495 OA
ENDBRANCH   6  13
ENDBRANCH   1   9
BRANCH   5  14
ATOM     14  S   UNL     1       0.052  -3.532   3.442  0.00  0.00    -0.076 S 
BRANCH  14  15
ATOM     15  C   UNL     1       0.255  -1.747   3.659  0.00  0.00    +0.173 C 
BRANCH  15  16
ATOM     16  C   UNL     1       0.239  -1.072   2.312  0.00  0.00    +0.224 C 
ATOM     17  O   UNL     1       0.104  -1.733   1.304  0.00  0.00    -0.275 OA
ATOM     18  N   UNL     1       0.375   0.266   2.227  0.00  0.00    -0.311 N 
ATOM     19  H   UNL     1       0.483   0.795   3.033  0.00  0.00    +0.149 HD
BRANCH  18  20
ATOM     20  C   UNL     1       0.360   0.922   0.917  0.00  0.00    +0.139 C 
BRANCH  20  21
ATOM     21  C   UNL     1       0.528   2.409   1.097  0.00  0.00    -0.030 A 
ATOM     22  C   UNL     1      -0.582   3.217   1.251  0.00  0.00    +0.005 A 
ATOM     23  C   UNL     1      -0.427   4.580   1.422  0.00  0.00    +0.000 A 
ATOM     24  C   UNL     1       0.838   5.136   1.429  0.00  0.00    +0.000 A 
ATOM     25  C   UNL     1       1.949   4.329   1.269  0.00  0.00    +0.000 A 
ATOM     26  C   UNL     1       1.794   2.965   1.104  0.00  0.00    +0.005 A 
ENDBRANCH  20  21
ENDBRANCH  18  20
ENDBRANCH  15  16
ENDBRANCH  14  15
ENDBRANCH   5  14
BRANCH   2  27
ATOM     27  C   UNL     1       0.037  -6.403   7.918  0.00  0.00    +0.202 C 
BRANCH  27  28
ATOM     28  N   UNL     1       1.398  -6.826   8.257  0.00  0.00    -0.294 N 
ATOM     29  C   UNL     1       1.982  -7.875   7.567  0.00  0.00    +0.060 A 
ATOM     30  C   UNL     1       1.426  -8.629   6.520  0.00  0.00    +0.027 A 
ATOM     31  C   UNL     1       2.138  -9.644   5.927  0.00  0.00    +0.002 A 
ATOM     32  C   UNL     1       3.424  -9.954   6.335  0.00  0.00    +0.001 A 
ATOM     33  C   UNL     1       3.999  -9.224   7.361  0.00  0.00    +0.017 A 
ATOM     34  C   UNL     1       3.288  -8.210   7.954  0.00  0.00    +0.041 A 
ATOM     35  S   UNL     1       3.629  -7.058   9.263  0.00  0.00    -0.027 S 
ATOM     36  C   UNL     1       2.067  -6.193   9.242  0.00  0.00    +0.292 A 
ATOM     37  O   UNL     1       1.700  -5.267   9.940  0.00  0.00    -0.259 OA
ENDBRANCH  27  28
ENDBRANCH   2  27
TORSDOF 9
