REMARK  Name = ZINC44867987
REMARK  6 active torsions:
REMARK  status: ('A' for Active; 'I' for Inactive)
REMARK    1  A    between atoms: C_1  and  C_2
REMARK    2  A    between atoms: C_2  and  N_3
REMARK    3  A    between atoms: N_3  and  C_4
REMARK    4  A    between atoms: C_4  and  C_5
REMARK    5  A    between atoms: C_11  and  C_13
REMARK    6  A    between atoms: C_16  and  C_19
REMARK                            x       y       z     vdW  Elec       q    Type
REMARK                         _______ _______ _______ _____ _____    ______ ____
ROOT
ATOM      1  N   UNL     1       0.805  -0.695   1.041  0.00  0.00    -0.293 N 
ATOM      2  C   UNL     1       2.148  -0.598   0.991  0.00  0.00    +0.247 C 
ATOM      3  O   UNL     1       2.816  -0.896   1.962  0.00  0.00    -0.270 OA
ENDROOT
BRANCH   2   4
ATOM      4  C   UNL     1       2.811  -0.126  -0.246  0.00  0.00    +0.037 A 
ATOM      5  C   UNL     1       2.214   0.867  -1.023  0.00  0.00    +0.014 A 
ATOM      6  C   UNL     1       2.830   1.306  -2.174  0.00  0.00    +0.014 A 
ATOM      7  C   UNL     1       4.053   0.756  -2.564  0.00  0.00    +0.037 A 
ATOM      8  C   UNL     1       4.651  -0.237  -1.787  0.00  0.00    +0.014 A 
ATOM      9  C   UNL     1       4.036  -0.671  -0.632  0.00  0.00    +0.014 A 
BRANCH   7  10
ATOM     10  C   UNL     1       4.715   1.227  -3.801  0.00  0.00    +0.242 C 
ATOM     11  O   UNL     1       4.194   2.092  -4.478  0.00  0.00    -0.270 OA
ATOM     12  N   UNL     1       5.896   0.697  -4.177  0.00  0.00    -0.325 N 
ATOM     13  H   UNL     1       6.311   0.006  -3.637  0.00  0.00    +0.145 HD
ATOM     14  H   UNL     1       6.330   1.005  -4.988  0.00  0.00    +0.145 HD
ENDBRANCH   7  10
ENDBRANCH   2   4
BRANCH   1  16
ATOM     15  C   UNL     1      -0.638   0.957  -0.042  0.00  0.00    +0.024 C 
ATOM     16  C   UNL     1       0.006  -0.426  -0.158  0.00  0.00    +0.105 C 
ENDBRANCH   1  16
BRANCH   1  17
ATOM     17  C   UNL     1       0.143  -1.070   2.293  0.00  0.00    +0.150 C 
BRANCH  17  18
ATOM     18  C   UNL     1       0.003  -2.569   2.358  0.00  0.00    +0.009 A 
ATOM     19  C   UNL     1       0.858  -3.484   2.874  0.00  0.00    +0.014 A 
ATOM     20  C   UNL     1       0.517  -4.823   2.824  0.00  0.00    +0.028 A 
ATOM     21  C   UNL     1      -0.663  -5.180   2.258  0.00  0.00    +0.078 A 
ATOM     22  S   UNL     1      -1.337  -3.598   1.781  0.00  0.00    -0.080 S 
ATOM     23 CL   UNL     1      -1.344  -6.764   2.057  0.00  0.00    -0.076 Cl
ENDBRANCH  17  18
ENDBRANCH   1  17
TORSDOF 5
