REMARK  Name = ZINC39534450
REMARK  10 active torsions:
REMARK  status: ('A' for Active; 'I' for Inactive)
REMARK    1  A    between atoms: C_1  and  C_2
REMARK    2  A    between atoms: C_2  and  C_3
REMARK    3  A    between atoms: C_2  and  S_4
REMARK    4  A    between atoms: S_4  and  C_7
REMARK    5  A    between atoms: C_10  and  C_13
REMARK    6  A    between atoms: C_13  and  C_15
REMARK    7  A    between atoms: C_13  and  N_18
REMARK    8  A    between atoms: C_15  and  N_16
REMARK    9  A    between atoms: C_22  and  C_25
REMARK   10  A    between atoms: C_30  and  O_31
REMARK                            x       y       z     vdW  Elec       q    Type
REMARK                         _______ _______ _______ _____ _____    ______ ____
ROOT
ATOM      1  C   UNL     1      -4.212   1.593  -4.999  0.00  0.00    +0.101 C 
ENDROOT
BRANCH   1   2
ATOM      2  N   UNL     1      -3.301   1.227  -6.091  0.00  0.00    -0.297 NA
ATOM      3  C   UNL     1      -3.294   2.257  -7.140  0.00  0.00    +0.066 C 
ATOM      4  C   UNL     1      -2.290   1.867  -8.227  0.00  0.00    -0.066 C 
ATOM      5  N   UNL     1      -2.667   0.566  -8.797  0.00  0.00    +0.385 N 
ATOM      6  C   UNL     1      -2.646  -0.457  -7.744  0.00  0.00    -0.023 C 
ATOM      7  C   UNL     1      -3.652  -0.086  -6.652  0.00  0.00    +0.074 C 
ATOM      8  H   UNL     1      -3.595   0.627  -9.188  0.00  0.00    -0.085 HD
ATOM      9  H   UNL     1      -2.012   0.315  -9.523  0.00  0.00    -0.085 HD
BRANCH   6  10
ATOM     10  C   UNL     1      -3.015  -1.793  -8.334  0.00  0.00    -0.019 A 
ATOM     11  C   UNL     1      -3.688  -1.855  -9.539  0.00  0.00    +0.005 A 
ATOM     12  C   UNL     1      -4.027  -3.081 -10.080  0.00  0.00    +0.000 A 
ATOM     13  C   UNL     1      -3.693  -4.248  -9.418  0.00  0.00    +0.004 A 
ATOM     14  C   UNL     1      -3.020  -4.192  -8.214  0.00  0.00    +0.045 A 
ATOM     15  C   UNL     1      -2.674  -2.963  -7.671  0.00  0.00    +0.118 A 
BRANCH  15  16
ATOM     16  O   UNL     1      -2.006  -2.905  -6.488  0.00  0.00    -0.507 OA
ATOM     17  H   UNL     1      -2.582  -2.867  -5.713  0.00  0.00    +0.292 HD
ENDBRANCH  15  16
ENDBRANCH   6  10
ENDBRANCH   1   2
BRANCH   1  21
ATOM     18  C   UNL     1      -2.607   0.226  -1.284  0.00  0.00    +0.088 A 
ATOM     19  C   UNL     1      -3.133   1.501  -1.383  0.00  0.00    +0.027 A 
ATOM     20  C   UNL     1      -3.652   1.943  -2.585  0.00  0.00    +0.007 A 
ATOM     21  C   UNL     1      -3.645   1.111  -3.689  0.00  0.00    -0.029 A 
ATOM     22  C   UNL     1      -3.118  -0.163  -3.591  0.00  0.00    +0.007 A 
ATOM     23  C   UNL     1      -2.595  -0.604  -2.389  0.00  0.00    +0.027 A 
BRANCH  18  24
ATOM     24  S   UNL     1      -1.945  -0.338   0.248  0.00  0.00    -0.001 S 
ATOM     25  O   UNL     1      -2.070  -1.752   0.199  0.00  0.00    -0.169 OA
ATOM     26  O   UNL     1      -2.631   0.416   1.239  0.00  0.00    -0.169 OA
BRANCH  24  28
ATOM     27  C   UNL     1      -0.081   1.655   0.062  0.00  0.00    +0.032 C 
ATOM     28  C   UNL     1      -0.195   0.136   0.203  0.00  0.00    +0.130 C 
ATOM     29  C   UNL     1       0.488  -0.309   1.498  0.00  0.00    +0.032 C 
ENDBRANCH  24  28
ENDBRANCH  18  24
ENDBRANCH   1  21
BRANCH   1  30
ATOM     30  C   UNL     1      -5.577   0.944  -5.234  0.00  0.00    +0.117 C 
BRANCH  30  31
ATOM     31  N   UNL     1      -6.103   1.366  -6.539  0.00  0.00    -0.254 NA
ATOM     32 BR   UNL     1      -7.756   0.603  -6.867  0.00  0.00    +0.010 Br
ATOM     33  H   UNL     1      -6.150   2.372  -6.602  0.00  0.00    +0.135 HD
ENDBRANCH  30  31
ENDBRANCH   1  30
TORSDOF 8
