REMARK  Name = ZINC27825724
REMARK  8 active torsions:
REMARK  status: ('A' for Active; 'I' for Inactive)
REMARK    1  A    between atoms: N_13  and  C_16
REMARK    2  A    between atoms: C_16  and  C_17
REMARK    3  A    between atoms: C_17  and  C_18
REMARK    4  A    between atoms: C_18  and  N_19
REMARK    5  A    between atoms: N_19  and  C_20
REMARK    6  A    between atoms: C_20  and  C_21
REMARK    7  A    between atoms: C_21  and  C_22
REMARK    8  A    between atoms: C_22  and  N_23
REMARK                            x       y       z     vdW  Elec       q    Type
REMARK                         _______ _______ _______ _____ _____    ______ ____
ROOT
ATOM      1  N   UNL     1       5.814   7.329  -2.841  0.00  0.00    +0.379 N 
ATOM      2  H   UNL     1       5.950   6.372  -3.366  0.00  0.00    -0.086 HD
ATOM      3  H   UNL     1       5.037   7.919  -3.349  0.00  0.00    -0.086 HD
ENDROOT
BRANCH   1   4
ATOM      4  C   UNL     1       5.406   7.073  -1.454  0.00  0.00    -0.081 C 
BRANCH   4   5
ATOM      5  C   UNL     1       4.088   6.295  -1.445  0.00  0.00    +0.000 C 
BRANCH   5   6
ATOM      6  C   UNL     1       3.662   6.029   0.000  0.00  0.00    +0.115 C 
BRANCH   6  19
ATOM      7  C   UNL     1      -0.013   1.076   0.008  0.00  0.00    +0.001 A 
ATOM      8  C   UNL     1      -1.213   1.726   0.017  0.00  0.00    +0.008 A 
ATOM      9  C   UNL     1      -1.253   3.131   0.031  0.00  0.00    -0.016 A 
ATOM     10  C   UNL     1      -2.463   3.846   0.046  0.00  0.00    +0.008 A 
ATOM     11  C   UNL     1      -2.450   5.211   0.052  0.00  0.00    +0.001 A 
ATOM     12  C   UNL     1      -1.260   5.928   0.045  0.00  0.00    +0.014 A 
ATOM     13  C   UNL     1      -0.044   5.261   0.031  0.00  0.00    +0.046 A 
ATOM     14  C   UNL     1      -0.038   3.847   0.024  0.00  0.00    +0.006 A 
ATOM     15  C   UNL     1       1.196   3.157   0.008  0.00  0.00    +0.046 A 
ATOM     16  C   UNL     1       1.191   1.770   0.000  0.00  0.00    +0.014 A 
ATOM     17  C   UNL     1       2.441   3.939   0.000  0.00  0.00    +0.254 C 
ATOM     18  O   UNL     1       3.514   3.366  -0.013  0.00  0.00    -0.270 OA
ATOM     19  N   UNL     1       2.400   5.285   0.008  0.00  0.00    -0.234 N 
ATOM     20  C   UNL     1       1.242   5.972   0.022  0.00  0.00    +0.254 C 
ATOM     21  O   UNL     1       1.261   7.188   0.029  0.00  0.00    -0.270 OA
ENDBRANCH   6  19
ENDBRANCH   5   6
ENDBRANCH   4   5
ENDBRANCH   1   4
BRANCH   1  22
ATOM     22  C   UNL     1       7.079   8.075  -2.888  0.00  0.00    -0.081 C 
BRANCH  22  23
ATOM     23  C   UNL     1       7.471   8.322  -4.346  0.00  0.00    +0.000 C 
BRANCH  23  24
ATOM     24  C   UNL     1       8.788   9.099  -4.396  0.00  0.00    +0.115 C 
BRANCH  24  25
ATOM     25  N   UNL     1       9.164   9.336  -5.792  0.00  0.00    -0.234 N 
ATOM     26  C   UNL     1       9.934   8.427  -6.419  0.00  0.00    +0.254 C 
ATOM     27  O   UNL     1      10.302   7.432  -5.824  0.00  0.00    -0.270 OA
ATOM     28  C   UNL     1      10.327   8.627  -7.822  0.00  0.00    +0.046 A 
ATOM     29  C   UNL     1      11.116   7.715  -8.507  0.00  0.00    +0.014 A 
ATOM     30  C   UNL     1      11.466   7.951  -9.832  0.00  0.00    +0.001 A 
ATOM     31  C   UNL     1      11.052   9.072 -10.492  0.00  0.00    +0.008 A 
ATOM     32  C   UNL     1      10.252  10.021  -9.833  0.00  0.00    -0.016 A 
ATOM     33  C   UNL     1       9.890   9.793  -8.489  0.00  0.00    +0.006 A 
ATOM     34  C   UNL     1       9.087  10.729  -7.799  0.00  0.00    +0.046 A 
ATOM     35  C   UNL     1       8.662  11.871  -8.462  0.00  0.00    +0.014 A 
ATOM     36  C   UNL     1       9.025  12.085  -9.787  0.00  0.00    +0.001 A 
ATOM     37  C   UNL     1       9.800  11.191 -10.469  0.00  0.00    +0.008 A 
ATOM     38  C   UNL     1       8.730  10.457  -6.399  0.00  0.00    +0.254 C 
ATOM     39  O   UNL     1       8.041  11.249  -5.785  0.00  0.00    -0.270 OA
ENDBRANCH  24  25
ENDBRANCH  23  24
ENDBRANCH  22  23
ENDBRANCH   1  22
TORSDOF 8
