REMARK  Name = ZINC66876642
REMARK  10 active torsions:
REMARK  status: ('A' for Active; 'I' for Inactive)
REMARK    1  A    between atoms: C_1  and  C_2
REMARK    2  A    between atoms: C_2  and  C_3
REMARK    3  A    between atoms: C_3  and  C_5
REMARK    4  A    between atoms: C_3  and  N_6
REMARK    5  A    between atoms: C_7  and  C_9
REMARK    6  A    between atoms: C_9  and  C_11
REMARK    7  A    between atoms: C_9  and  N_12
REMARK    8  A    between atoms: C_15  and  N_18
REMARK    9  A    between atoms: C_19  and  C_21
REMARK   10  A    between atoms: C_21  and  C_22
REMARK                            x       y       z     vdW  Elec       q    Type
REMARK                         _______ _______ _______ _____ _____    ______ ____
ROOT
ATOM      1  N   UNL     1       4.839   0.630   3.591  0.00  0.00    +0.387 N 
ATOM      2  C   UNL     1       6.212   1.144   3.518  0.00  0.00    -0.076 C 
ATOM      3  C   UNL     1       6.792   1.261   4.929  0.00  0.00    +0.004 C 
ATOM      4  C   UNL     1       5.928   2.222   5.752  0.00  0.00    +0.069 C 
ATOM      5  C   UNL     1       4.483   1.716   5.758  0.00  0.00    +0.004 C 
ATOM      6  C   UNL     1       3.989   1.581   4.316  0.00  0.00    -0.076 C 
ATOM      7  H   UNL     1       4.839  -0.256   4.073  0.00  0.00    -0.081 HD
ENDROOT
BRANCH   4   8
ATOM      8  N   UNL     1       6.433   2.281   7.126  0.00  0.00    -0.313 N 
ATOM      9  C   UNL     1       6.200   3.371   7.884  0.00  0.00    +0.213 C 
ATOM     10  O   UNL     1       5.572   4.303   7.428  0.00  0.00    -0.276 OA
ATOM     11  H   UNL     1       6.935   1.535   7.490  0.00  0.00    +0.149 HD
BRANCH   9  12
ATOM     12  C   UNL     1       6.719   3.431   9.297  0.00  0.00    +0.099 C 
BRANCH  12  13
ATOM     13  C   UNL     1       6.319   4.765   9.931  0.00  0.00    -0.002 C 
ATOM     14  C   UNL     1       7.072   5.923   9.243  0.00  0.00    +0.004 C 
ATOM     15  C   UNL     1       7.385   6.909  10.395  0.00  0.00    +0.000 C 
ATOM     16  C   UNL     1       7.724   5.962  11.573  0.00  0.00    +0.000 C 
ATOM     17  C   UNL     1       6.734   4.790  11.412  0.00  0.00    +0.004 C 
ENDBRANCH  12  13
ENDBRANCH   9  12
ENDBRANCH   4   8
BRANCH   1  18
ATOM     18  C   UNL     1       4.314   0.445   2.231  0.00  0.00    +0.016 C 
ATOM     19  C   UNL     1       5.194  -0.553   1.476  0.00  0.00    -0.004 C 
BRANCH  18  21
ATOM     20  N   UNL     1       2.030   0.195   1.317  0.00  0.00    -0.314 N 
ATOM     21  C   UNL     1       2.905  -0.082   2.304  0.00  0.00    +0.199 C 
ATOM     22  O   UNL     1       2.557  -0.756   3.251  0.00  0.00    -0.278 OA
ATOM     23  H   UNL     1       2.307   0.734   0.560  0.00  0.00    +0.149 HD
BRANCH  20  24
ATOM     24  C   UNL     1       0.659  -0.318   1.387  0.00  0.00    +0.070 C 
ATOM     25  C   UNL     1       0.617  -1.740   0.826  0.00  0.00    +0.028 C 
BRANCH  24  27
ATOM     26  C   UNL     1      -0.320   1.973   1.201  0.00  0.00    +0.005 C 
ATOM     27  C   UNL     1      -0.265   0.583   0.566  0.00  0.00    +0.018 C 
ENDBRANCH  24  27
ENDBRANCH  20  24
ENDBRANCH  18  21
ENDBRANCH   1  18
TORSDOF 7
