REMARK  Name = ZINC35427293
REMARK  5 active torsions:
REMARK  status: ('A' for Active; 'I' for Inactive)
REMARK    1  A    between atoms: C_1  and  N_2
REMARK    2  A    between atoms: C_16  and  C_30
REMARK    3  A    between atoms: N_22  and  C_23
REMARK    4  A    between atoms: C_34  and  O_36
REMARK    5  A    between atoms: O_36  and  C_37
REMARK                            x       y       z     vdW  Elec       q    Type
REMARK                         _______ _______ _______ _____ _____    ______ ____
ROOT
ATOM      1  C   UNL     1      -0.327   1.347  -1.314  0.00  0.00    -0.096 C 
ATOM      2  N   UNL     1      -0.285  -0.099  -1.057  0.00  0.00    +0.381 N 
ATOM      3  C   UNL     1      -1.653  -0.603  -0.873  0.00  0.00    -0.074 C 
ATOM      4  C   UNL     1      -1.667  -2.133  -0.920  0.00  0.00    +0.018 C 
ATOM      5  C   UNL     1      -0.634  -2.645   0.082  0.00  0.00    -0.034 A 
ATOM      6  C   UNL     1      -0.620  -3.968   0.560  0.00  0.00    +0.004 A 
ATOM      7  C   UNL     1       0.350  -4.281   1.463  0.00  0.00    +0.090 A 
ATOM      8  S   UNL     1       1.275  -2.788   1.657  0.00  0.00    -0.077 S 
ATOM      9  C   UNL     1       0.323  -1.793   0.539  0.00  0.00    -0.021 A 
ATOM     10  C   UNL     1       0.502  -0.359   0.163  0.00  0.00    -0.036 C 
ATOM     11  N   UNL     1       0.485  -5.528   2.059  0.00  0.00    -0.312 N 
ATOM     12  C   UNL     1       1.571  -6.309   2.267  0.00  0.00    +0.092 A 
ATOM     13  C   UNL     1       1.153  -7.466   2.828  0.00  0.00    +0.020 A 
ATOM     14  C   UNL     1      -0.247  -7.380   2.987  0.00  0.00    +0.025 A 
ATOM     15  C   UNL     1      -0.631  -6.178   2.533  0.00  0.00    +0.049 A 
ATOM     16  C   UNL     1      -1.991  -5.547   2.539  0.00  0.00    +0.155 C 
ATOM     17  N   UNL     1      -2.545  -5.418   1.170  0.00  0.00    -0.268 N 
ATOM     18  C   UNL     1      -1.605  -5.022   0.106  0.00  0.00    +0.148 C 
ATOM     19  C   UNL     1      -3.847  -5.652   0.910  0.00  0.00    +0.308 C 
ATOM     20  O   UNL     1      -4.598  -5.977   1.810  0.00  0.00    -0.252 OA
ATOM     21  N   UNL     1      -4.317  -5.525  -0.347  0.00  0.00    -0.269 N 
ATOM     22  H   UNL     1      -3.706  -5.332  -1.076  0.00  0.00    +0.156 HD
ATOM     23  H   UNL     1       0.143  -0.568  -1.841  0.00  0.00    -0.082 HD
ENDROOT
BRANCH  21  24
ATOM     24  C   UNL     1      -5.685  -5.673  -0.601  0.00  0.00    +0.036 A 
ATOM     25  C   UNL     1      -6.300  -4.895  -1.574  0.00  0.00    +0.023 A 
ATOM     26  C   UNL     1      -7.650  -5.043  -1.823  0.00  0.00    +0.003 A 
ATOM     27  C   UNL     1      -8.391  -5.963  -1.105  0.00  0.00    +0.020 A 
ATOM     28  C   UNL     1      -7.782  -6.739  -0.134  0.00  0.00    +0.043 A 
ATOM     29  C   UNL     1      -6.429  -6.600   0.116  0.00  0.00    +0.043 A 
ATOM     30 CL   UNL     1      -8.716  -7.893   0.766  0.00  0.00    -0.083 Cl
ENDBRANCH  21  24
BRANCH  16  31
ATOM     31  C   UNL     1      -1.893  -4.177   3.158  0.00  0.00    -0.018 A 
ATOM     32  C   UNL     1      -2.695  -3.150   2.694  0.00  0.00    +0.006 A 
ATOM     33  C   UNL     1      -2.607  -1.892   3.260  0.00  0.00    +0.004 A 
ATOM     34  C   UNL     1      -1.718  -1.657   4.291  0.00  0.00    +0.045 A 
ATOM     35  C   UNL     1      -0.913  -2.685   4.759  0.00  0.00    +0.120 A 
ATOM     36  C   UNL     1      -1.007  -3.949   4.193  0.00  0.00    +0.051 A 
BRANCH  35  37
ATOM     37  O   UNL     1      -0.038  -2.457   5.773  0.00  0.00    -0.495 OA
ATOM     38  C   UNL     1       0.000  -1.134   6.311  0.00  0.00    +0.277 C 
ENDBRANCH  35  37
ENDBRANCH  16  31
TORSDOF 3
