REMARK  Name = ZINC09873400
REMARK  7 active torsions:
REMARK  status: ('A' for Active; 'I' for Inactive)
REMARK    1  A    between atoms: C_3  and  C_6
REMARK    2  A    between atoms: C_6  and  N_49
REMARK    3  A    between atoms: C_7  and  C_8
REMARK    4  A    between atoms: C_7  and  N_49
REMARK    5  A    between atoms: C_14  and  C_15
REMARK    6  A    between atoms: C_14  and  N_49
REMARK    7  A    between atoms: N_17  and  C_18
REMARK                            x       y       z     vdW  Elec       q    Type
REMARK                         _______ _______ _______ _____ _____    ______ ____
ROOT
ATOM      1  C   UNL     1       2.855   6.744   0.132  0.00  0.00    +0.201 C 
ATOM      2  O   UNL     1       3.584   5.775   0.152  0.00  0.00    -0.278 OA
ATOM      3  N   UNL     1       1.521   6.580   0.026  0.00  0.00    -0.286 N 
ATOM      4  H   UNL     1       0.944   7.354  -0.069  0.00  0.00    +0.155 HD
ENDROOT
BRANCH   3   5
ATOM      5  C   UNL     1       0.969   5.293   0.053  0.00  0.00    +0.049 A 
ATOM      6  C   UNL     1       1.653   4.258   0.673  0.00  0.00    +0.052 A 
ATOM      7  C   UNL     1       1.105   2.986   0.698  0.00  0.00    +0.069 A 
ATOM      8  C   UNL     1      -0.135   2.750   0.098  0.00  0.00    +0.068 A 
ATOM      9  C   UNL     1      -0.815   3.787  -0.520  0.00  0.00    +0.045 A 
ATOM     10  C   UNL     1      -0.265   5.054  -0.543  0.00  0.00    +0.041 A 
ATOM     11 BR   UNL     1      -1.194   6.469  -1.387  0.00  0.00    -0.048 Br
ATOM     12  N   UNL     1      -0.416   1.395   0.278  0.00  0.00    -0.306 N 
ATOM     13  H   UNL     1      -1.210   0.934  -0.036  0.00  0.00    +0.170 HD
ATOM     14  C   UNL     1       0.601   0.838   0.962  0.00  0.00    +0.325 A 
ATOM     15  O   UNL     1       0.668  -0.332   1.287  0.00  0.00    -0.247 OA
ATOM     16  N   UNL     1       1.535   1.771   1.227  0.00  0.00    -0.306 N 
ATOM     17  H   UNL     1       2.366   1.622   1.704  0.00  0.00    +0.170 HD
ENDBRANCH   3   5
BRANCH   1  18
ATOM     18  C   UNL     1       3.439   8.130   0.224  0.00  0.00    +0.019 C 
BRANCH  18  19
ATOM     19  N   UNL     1       4.907   8.020   0.351  0.00  0.00    +0.390 N 
ATOM     20  H   UNL     1       5.128   7.374   1.118  0.00  0.00    -0.081 HD
BRANCH  19  21
ATOM     21  C   UNL     1       5.486   7.494  -0.903  0.00  0.00    -0.035 C 
BRANCH  21  24
ATOM     22  C   UNL     1       8.731   5.662  -0.110  0.00  0.00    +0.008 A 
ATOM     23  C   UNL     1       7.373   5.830  -0.308  0.00  0.00    +0.009 A 
ATOM     24  C   UNL     1       6.904   7.059  -0.637  0.00  0.00    -0.027 A 
ATOM     25  S   UNL     1       8.403   8.027  -0.680  0.00  0.00    -0.103 S 
ATOM     26  C   UNL     1       9.553   6.731  -0.248  0.00  0.00    +0.045 A 
ENDBRANCH  21  24
ENDBRANCH  19  21
BRANCH  19  27
ATOM     27  C   UNL     1       5.488   9.345   0.658  0.00  0.00    -0.046 C 
BRANCH  27  28
ATOM     28  C   UNL     1       5.046   9.764   2.062  0.00  0.00    +0.102 C 
ATOM     29  C   UNL     1       5.544  11.191   2.378  0.00  0.00    +0.032 C 
ATOM     30  C   UNL     1       5.919  11.135   3.876  0.00  0.00    +0.030 C 
ATOM     31  C   UNL     1       5.604   9.679   4.287  0.00  0.00    +0.160 C 
ATOM     32  O   UNL     1       5.673   8.925   3.057  0.00  0.00    -0.378 OA
ENDBRANCH  27  28
ENDBRANCH  19  27
ENDBRANCH  18  19
ENDBRANCH   1  18
TORSDOF 7
