REMARK  Name = ZINC64103180
REMARK  10 active torsions:
REMARK  status: ('A' for Active; 'I' for Inactive)
REMARK    1  A    between atoms: C_1  and  C_2
REMARK    2  A    between atoms: C_4  and  C_8
REMARK    3  A    between atoms: C_5  and  C_7
REMARK    4  A    between atoms: C_9  and  C_20
REMARK    5  A    between atoms: N_11  and  C_13
REMARK    6  A    between atoms: C_20  and  N_21
REMARK    7  A    between atoms: N_21  and  C_22
REMARK    8  A    between atoms: N_21  and  C_23
REMARK    9  A    between atoms: C_23  and  C_24
REMARK   10  A    between atoms: C_28  and  C_30
REMARK                            x       y       z     vdW  Elec       q    Type
REMARK                         _______ _______ _______ _____ _____    ______ ____
ROOT
ATOM      1  C   UNL     1      -1.408  -2.689   0.365  0.00  0.00    +0.054 C 
ATOM      2  C   UNL     1      -1.474  -3.976   0.032  0.00  0.00    -0.014 C 
ATOM      3  C   UNL     1      -2.936  -4.330  -0.118  0.00  0.00    +0.161 C 
ATOM      4  N   UNL     1      -3.656  -3.079   0.173  0.00  0.00    -0.246 N 
ATOM      5  N   UNL     1      -2.672  -2.125   0.465  0.00  0.00    -0.263 N 
ATOM      6  H   UNL     1      -2.849  -1.201   0.700  0.00  0.00    +0.170 HD
ENDROOT
BRANCH   1  10
ATOM      7  C   UNL     1       3.034  -1.970   2.713  0.00  0.00    +0.051 C 
ATOM      8  C   UNL     1       1.907  -1.696   1.751  0.00  0.00    -0.012 A 
ATOM      9  C   UNL     1       0.766  -2.395   1.561  0.00  0.00    +0.021 A 
ATOM     10  C   UNL     1      -0.146  -1.953   0.606  0.00  0.00    +0.008 A 
ATOM     11  C   UNL     1       0.152  -0.823  -0.106  0.00  0.00    -0.004 A 
ATOM     12  S   UNL     1       1.736  -0.363   0.577  0.00  0.00    -0.098 S 
ATOM     13  C   UNL     1      -0.650  -0.141  -1.184  0.00  0.00    +0.052 C 
ENDBRANCH   1  10
BRANCH   4  14
ATOM     14  C   UNL     1      -5.041  -2.885   0.166  0.00  0.00    +0.083 A 
ATOM     15  C   UNL     1      -5.860  -3.689   0.946  0.00  0.00    +0.027 A 
ATOM     16  C   UNL     1      -7.228  -3.494   0.937  0.00  0.00    +0.002 A 
ATOM     17  C   UNL     1      -7.782  -2.499   0.153  0.00  0.00    +0.003 A 
ATOM     18  C   UNL     1      -6.970  -1.696  -0.626  0.00  0.00    +0.040 A 
ATOM     19  C   UNL     1      -5.599  -1.881  -0.617  0.00  0.00    +0.146 A 
ATOM     20  F   UNL     1      -4.805  -1.091  -1.373  0.00  0.00    -0.203 F 
ENDBRANCH   4  14
BRANCH   2  21
ATOM     21  C   UNL     1      -0.305  -4.908  -0.160  0.00  0.00    +0.119 C 
BRANCH  21  22
ATOM     22  N   UNL     1      -0.081  -5.674   1.074  0.00  0.00    -0.294 NA
ATOM     23  C   UNL     1      -1.154  -6.654   1.287  0.00  0.00    +0.105 C 
BRANCH  22  24
ATOM     24  C   UNL     1       1.234  -6.328   1.056  0.00  0.00    +0.156 C 
BRANCH  24  25
ATOM     25  C   UNL     1       1.598  -6.761   2.453  0.00  0.00    +0.099 A 
ATOM     26  H   UNL     1       3.052  -8.214   2.149  0.00  0.00    +0.167 HD
ATOM     27  N   UNL     1       1.077  -6.293   3.554  0.00  0.00    -0.349 N 
ATOM     28  C   UNL     1       1.640  -6.908   4.605  0.00  0.00    +0.105 A 
ATOM     29  C   UNL     1       2.544  -7.790   4.137  0.00  0.00    +0.030 A 
ATOM     30  N   UNL     1       2.514  -7.700   2.772  0.00  0.00    -0.346 N 
ATOM     31  C   UNL     1       3.416  -8.704   4.959  0.00  0.00    +0.065 C 
ATOM     32  H   UNL     1       0.391  -5.610   3.605  0.00  0.00    +0.166 HD
ENDBRANCH  24  25
ENDBRANCH  22  24
ENDBRANCH  21  22
ENDBRANCH   2  21
TORSDOF 6
