REMARK  Name = ZINC21263891
REMARK  12 active torsions:
REMARK  status: ('A' for Active; 'I' for Inactive)
REMARK    1  A    between atoms: C_1  and  C_2
REMARK    2  A    between atoms: C_2  and  C_30
REMARK    3  A    between atoms: C_4  and  N_10
REMARK    4  A    between atoms: C_6  and  C_8
REMARK    5  A    between atoms: C_6  and  C_9
REMARK    6  A    between atoms: N_10  and  C_11
REMARK    7  A    between atoms: C_11  and  N_13
REMARK    8  A    between atoms: N_13  and  C_14
REMARK    9  A    between atoms: N_13  and  C_22
REMARK   10  A    between atoms: C_14  and  C_15
REMARK   11  A    between atoms: C_15  and  N_16
REMARK   12  A    between atoms: C_22  and  C_23
REMARK                            x       y       z     vdW  Elec       q    Type
REMARK                         _______ _______ _______ _____ _____    ______ ____
ROOT
ATOM      1  C   UNL     1       0.002  -0.004   0.002  0.00  0.00    +0.133 C 
ATOM      2  S   UNL     1      -1.469  -0.880   0.011  0.00  0.00    -0.019 S 
ENDROOT
BRANCH   1   3
ATOM      3  N   UNL     1       1.178  -0.662  -0.013  0.00  0.00    -0.324 N 
ATOM      4  H   UNL     1       2.123  -0.099  -0.019  0.00  0.00    +0.148 HD
BRANCH   3   8
ATOM      5  C   UNL     1       1.647  -4.686  -1.745  0.00  0.00    -0.010 C 
ATOM      6  C   UNL     1       2.566  -4.138  -0.647  0.00  0.00    -0.072 C 
ATOM      7  C   UNL     1       2.507  -2.612  -0.646  0.00  0.00    +0.009 C 
ATOM      8  C   UNL     1       1.198  -2.130  -0.021  0.00  0.00    +0.069 C 
ATOM      9  C   UNL     1       1.129  -2.642   1.418  0.00  0.00    +0.009 C 
ATOM     10  C   UNL     1       1.169  -4.168   1.440  0.00  0.00    -0.072 C 
ATOM     11  N   UNL     1       2.245  -4.717   0.641  0.00  0.00    +0.386 N 
ATOM     12  C   UNL     1      -0.190  -4.723   0.997  0.00  0.00    -0.010 C 
ATOM     13  C   UNL     1       1.386  -4.606   2.906  0.00  0.00    -0.010 C 
ATOM     14  C   UNL     1       4.010  -4.548  -1.013  0.00  0.00    -0.010 C 
ATOM     15  H   UNL     1       1.962  -5.772   0.508  0.00  0.00    -0.084 HD
ATOM     16  H   UNL     1       3.122  -4.653   1.301  0.00  0.00    -0.084 HD
ENDBRANCH   3   8
ENDBRANCH   1   3
BRANCH   1  17
ATOM     17  N   UNL     1      -0.016   1.344   0.009  0.00  0.00    -0.311 N 
BRANCH  17  18
ATOM     18  C   UNL     1      -1.295   2.059   0.019  0.00  0.00    +0.122 C 
BRANCH  18  19
ATOM     19  C   UNL     1      -1.733   2.300   1.465  0.00  0.00    +0.103 C 
BRANCH  19  20
ATOM     20  N   UNL     1      -3.015   3.017   1.475  0.00  0.00    -0.297 NA
ATOM     21  C   UNL     1      -2.864   4.375   0.932  0.00  0.00    +0.112 C 
ATOM     22  C   UNL     1      -4.231   5.063   0.905  0.00  0.00    +0.175 C 
ATOM     23  O   UNL     1      -4.783   5.067   2.224  0.00  0.00    -0.377 OA
ATOM     24  C   UNL     1      -4.945   3.761   2.784  0.00  0.00    +0.175 C 
ATOM     25  C   UNL     1      -3.585   3.059   2.830  0.00  0.00    +0.112 C 
ENDBRANCH  19  20
ENDBRANCH  18  19
ENDBRANCH  17  18
BRANCH  17  26
ATOM     26  C   UNL     1       1.242   2.093   0.001  0.00  0.00    +0.110 C 
BRANCH  26  27
ATOM     27  C   UNL     1       1.667   2.362  -1.444  0.00  0.00    +0.010 C 
ATOM     28  C   UNL     1       2.931   3.231  -1.457  0.00  0.00    +0.009 C 
ATOM     29  C   UNL     1       3.228   3.631  -2.904  0.00  0.00    +0.027 C 
ATOM     30  C   UNL     1       3.194   2.421  -3.792  0.00  0.00    -0.031 C 
ATOM     31  C   UNL     1       2.648   1.295  -3.462  0.00  0.00    -0.031 C 
ATOM     32  C   UNL     1       1.982   1.037  -2.142  0.00  0.00    +0.032 C 
ENDBRANCH  26  27
ENDBRANCH  17  26
ENDBRANCH   1  17
TORSDOF 8
