REMARK  Name = ZINC54423383
REMARK  5 active torsions:
REMARK  status: ('A' for Active; 'I' for Inactive)
REMARK    1  A    between atoms: N_4  and  C_7
REMARK    2  A    between atoms: C_7  and  C_8
REMARK    3  A    between atoms: C_8  and  C_9
REMARK    4  A    between atoms: N_11  and  C_12
REMARK    5  A    between atoms: C_13  and  C_21
REMARK                            x       y       z     vdW  Elec       q    Type
REMARK                         _______ _______ _______ _____ _____    ______ ____
ROOT
ATOM      1  C   UNL     1       4.791  -4.411  -4.480  0.00  0.00    +0.084 A 
ATOM      2  C   UNL     1       5.117  -5.733  -4.741  0.00  0.00    +0.068 A 
ATOM      3  C   UNL     1       5.894  -6.001  -5.939  0.00  0.00    -0.023 A 
ATOM      4  C   UNL     1       6.202  -4.899  -6.655  0.00  0.00    -0.004 A 
ATOM      5  S   UNL     1       5.470  -3.561  -5.759  0.00  0.00    -0.077 S 
ATOM      6  C   UNL     1       6.989  -4.844  -7.929  0.00  0.00    +0.043 C 
ATOM      7  C   UNL     1       7.716  -6.186  -8.104  0.00  0.00    +0.005 C 
ATOM      8  C   UNL     1       6.720  -7.324  -7.866  0.00  0.00    +0.005 C 
ATOM      9  C   UNL     1       6.342  -7.385  -6.385  0.00  0.00    +0.037 C 
ENDROOT
BRANCH   2  10
ATOM     10  C   UNL     1       4.696  -6.815  -3.845  0.00  0.00    +0.244 C 
ATOM     11  O   UNL     1       3.631  -7.375  -4.027  0.00  0.00    -0.270 OA
ATOM     12  N   UNL     1       5.489  -7.189  -2.822  0.00  0.00    -0.325 N 
ATOM     13  H   UNL     1       6.338  -6.742  -2.677  0.00  0.00    +0.145 HD
ATOM     14  H   UNL     1       5.210  -7.905  -2.229  0.00  0.00    +0.145 HD
ENDBRANCH   2  10
BRANCH   1  17
ATOM     15  C   UNL     1       3.834  -2.583  -3.318  0.00  0.00    +0.216 C 
ATOM     16  O   UNL     1       4.262  -1.832  -4.168  0.00  0.00    -0.276 OA
ATOM     17  N   UNL     1       4.064  -3.908  -3.411  0.00  0.00    -0.279 N 
ATOM     18  H   UNL     1       3.722  -4.509  -2.731  0.00  0.00    +0.155 HD
BRANCH  15  19
ATOM     19  C   UNL     1       3.045  -2.036  -2.156  0.00  0.00    +0.077 C 
BRANCH  19  20
ATOM     20  C   UNL     1       2.930  -0.516  -2.289  0.00  0.00    -0.070 C 
BRANCH  20  24
ATOM     21  C   UNL     1      -0.019   1.527   0.010  0.00  0.00    -0.004 C 
ATOM     22  C   UNL     1       1.422   2.047  -0.001  0.00  0.00    -0.019 C 
ATOM     23  C   UNL     1       2.152   1.484  -1.221  0.00  0.00    -0.079 C 
ATOM     24  N   UNL     1       2.161   0.018  -1.157  0.00  0.00    +0.380 N 
ATOM     25  C   UNL     1       0.785  -0.491  -1.219  0.00  0.00    -0.079 C 
ATOM     26  C   UNL     1       0.002  -0.004   0.002  0.00  0.00    -0.019 C 
ATOM     27  H   UNL     1       2.589  -0.278  -0.293  0.00  0.00    -0.082 HD
ENDBRANCH  20  24
ENDBRANCH  19  20
ENDBRANCH  15  19
ENDBRANCH   1  17
TORSDOF 5
