REMARK  Name = ZINC05271791
REMARK  6 active torsions:
REMARK  status: ('A' for Active; 'I' for Inactive)
REMARK    1  A    between atoms: C_1  and  C_2
REMARK    2  A    between atoms: C_2  and  C_3
REMARK    3  A    between atoms: C_2  and  C_4
REMARK    4  A    between atoms: C_7  and  N_10
REMARK    5  A    between atoms: N_22  and  C_23
REMARK    6  A    between atoms: C_23  and  C_25
REMARK                            x       y       z     vdW  Elec       q    Type
REMARK                         _______ _______ _______ _____ _____    ______ ____
ROOT
ATOM      1  N   UNL     1       2.402   1.107  -0.015  0.00  0.00    -0.276 N 
ATOM      2  C   UNL     1       3.703   1.747  -0.128  0.00  0.00    +0.116 C 
ATOM      3  C   UNL     1       3.817   3.277  -0.005  0.00  0.00    +0.190 C 
ATOM      4  S   UNL     1       5.638   3.385   0.339  0.00  0.00    -0.028 S 
ATOM      5  O   UNL     1       6.338   3.493  -0.893  0.00  0.00    -0.174 OA
ATOM      6  O   UNL     1       5.862   4.348   1.360  0.00  0.00    -0.174 OA
ATOM      7  C   UNL     1       5.902   1.687   1.039  0.00  0.00    +0.182 C 
ATOM      8  C   UNL     1       4.483   1.216   1.132  0.00  0.00    +0.097 C 
ATOM      9  S   UNL     1       4.032  -0.521   0.960  0.00  0.00    -0.086 S 
ATOM     10  C   UNL     1       2.540  -0.283   0.084  0.00  0.00    +0.154 C 
ATOM     11  N   UNL     1       1.719  -1.215  -0.386  0.00  0.00    -0.159 NA
ENDROOT
BRANCH   1  15
ATOM     12  C   UNL     1      -1.236   3.135   0.030  0.00  0.00    -0.045 A 
ATOM     13  C   UNL     1      -0.809   2.460   1.159  0.00  0.00    +0.006 A 
ATOM     14  C   UNL     1       0.400   1.792   1.149  0.00  0.00    +0.024 A 
ATOM     15  C   UNL     1       1.180   1.787   0.000  0.00  0.00    +0.036 A 
ATOM     16  C   UNL     1       0.745   2.461  -1.134  0.00  0.00    +0.024 A 
ATOM     17  C   UNL     1      -0.462   3.132  -1.115  0.00  0.00    +0.006 A 
BRANCH  12  19
ATOM     18  C   UNL     1      -3.683   2.882   0.347  0.00  0.00    +0.012 C 
ATOM     19  C   UNL     1      -2.552   3.869   0.047  0.00  0.00    +0.013 C 
ATOM     20  C   UNL     1      -2.519   4.951   1.128  0.00  0.00    +0.012 C 
ENDBRANCH  12  19
ENDBRANCH   1  15
BRANCH  11  21
ATOM     21  C   UNL     1       2.001  -2.503  -0.204  0.00  0.00    +0.235 C 
ATOM     22  O   UNL     1       3.011  -2.825   0.392  0.00  0.00    -0.274 OA
ATOM     23  C   UNL     1       1.070  -3.561  -0.736  0.00  0.00    +0.111 C 
ENDBRANCH  11  21
TORSDOF 3
