REMARK  Name = ZINC20166177
REMARK  8 active torsions:
REMARK  status: ('A' for Active; 'I' for Inactive)
REMARK    1  A    between atoms: C_1  and  C_2
REMARK    2  A    between atoms: C_2  and  N_3
REMARK    3  A    between atoms: C_6  and  C_8
REMARK    4  A    between atoms: N_14  and  C_17
REMARK    5  A    between atoms: C_19  and  N_23
REMARK    6  A    between atoms: N_23  and  C_24
REMARK    7  A    between atoms: C_24  and  C_25
REMARK    8  A    between atoms: C_25  and  O_31
REMARK                            x       y       z     vdW  Elec       q    Type
REMARK                         _______ _______ _______ _____ _____    ______ ____
ROOT
ATOM      1  N   UNL     1       2.462   4.011  -0.102  0.00  0.00    -0.268 N 
ATOM      2  C   UNL     1       2.421   4.961   0.847  0.00  0.00    +0.043 A 
ATOM      3  C   UNL     1       1.395   4.655   1.678  0.00  0.00    +0.004 A 
ATOM      4  C   UNL     1       0.832   3.469   1.176  0.00  0.00    +0.151 A 
ATOM      5  N   UNL     1       1.529   3.145   0.100  0.00  0.00    -0.166 NA
ATOM      6  C   UNL     1       0.998   5.466   2.881  0.00  0.00    +0.023 C 
ATOM      7  C   UNL     1       2.155   6.413   3.225  0.00  0.00    -0.067 C 
ATOM      8  C   UNL     1       2.604   7.153   1.962  0.00  0.00    -0.009 C 
ATOM      9  C   UNL     1       3.307   6.168   1.015  0.00  0.00    +0.054 C 
ENDROOT
BRANCH   4  10
ATOM     10  C   UNL     1      -0.318   2.732   1.738  0.00  0.00    +0.267 C 
ATOM     11  O   UNL     1      -0.944   3.199   2.669  0.00  0.00    -0.268 OA
ATOM     12  N   UNL     1      -0.673   1.540   1.218  0.00  0.00    -0.298 N 
ATOM     13  C   UNL     1      -1.779   0.793   1.848  0.00  0.00    +0.106 C 
ATOM     14  C   UNL     1      -2.701   0.164   0.790  0.00  0.00    +0.000 C 
ATOM     15  C   UNL     1      -2.898   1.133  -0.354  0.00  0.00    -0.078 C 
ATOM     16  N   UNL     1      -1.895   0.868  -1.384  0.00  0.00    +0.379 N 
ATOM     17  C   UNL     1      -0.650   1.522  -1.232  0.00  0.00    -0.060 C 
ATOM     18  C   UNL     1       0.046   1.041   0.064  0.00  0.00    +0.089 C 
ATOM     19  C   UNL     1      -2.447   1.091  -2.727  0.00  0.00    -0.096 C 
ATOM     20  H   UNL     1      -1.609  -0.184  -1.236  0.00  0.00    -0.082 HD
ENDBRANCH   4  10
BRANCH   7  21
ATOM     21  N   UNL     1       1.708   7.387   4.230  0.00  0.00    +0.383 N 
ATOM     22  H   UNL     1       1.215   8.232   3.728  0.00  0.00    -0.085 HD
ATOM     23  H   UNL     1       0.998   6.904   4.918  0.00  0.00    -0.085 HD
BRANCH  21  24
ATOM     24  C   UNL     1       2.844   7.899   5.008  0.00  0.00    -0.047 C 
BRANCH  24  25
ATOM     25  C   UNL     1       2.340   8.909   6.042  0.00  0.00    +0.051 C 
ATOM     26  C   UNL     1       1.539  10.005   5.336  0.00  0.00    +0.033 C 
ATOM     27  C   UNL     1       1.035  11.014   6.370  0.00  0.00    +0.003 C 
ATOM     28  C   UNL     1       2.228  11.640   7.095  0.00  0.00    +0.000 C 
ATOM     29  C   UNL     1       3.028  10.544   7.801  0.00  0.00    +0.003 C 
ATOM     30  C   UNL     1       3.532   9.535   6.767  0.00  0.00    +0.033 C 
BRANCH  25  31
ATOM     31  O   UNL     1       1.502   8.242   6.989  0.00  0.00    -0.390 OA
ATOM     32  H   UNL     1       1.044   8.809   7.813  0.00  0.00    +0.210 HD
ENDBRANCH  25  31
ENDBRANCH  24  25
ENDBRANCH  21  24
ENDBRANCH   7  21
BRANCH   1  34
ATOM     33  C   UNL     1       2.863   4.727  -2.405  0.00  0.00    +0.029 C 
ATOM     34  C   UNL     1       3.426   3.965  -1.204  0.00  0.00    +0.140 C 
ENDBRANCH   1  34
TORSDOF 6
