REMARK  Name = ZINC40150068
REMARK  6 active torsions:
REMARK  status: ('A' for Active; 'I' for Inactive)
REMARK    1  A    between atoms: C_6  and  N_7
REMARK    2  A    between atoms: N_10  and  C_11
REMARK    3  A    between atoms: C_11  and  C_12
REMARK    4  A    between atoms: C_23  and  C_25
REMARK    5  A    between atoms: C_25  and  C_26
REMARK    6  A    between atoms: C_26  and  O_27
REMARK                            x       y       z     vdW  Elec       q    Type
REMARK                         _______ _______ _______ _____ _____    ______ ____
ROOT
ATOM      1  C   UNL     1      -3.792  -4.665  -0.029  0.00  0.00    -0.014 A 
ATOM      2  C   UNL     1      -4.578  -4.940   1.083  0.00  0.00    +0.010 A 
ATOM      3  C   UNL     1      -5.859  -5.422   0.882  0.00  0.00    +0.042 A 
ATOM      4  C   UNL     1      -6.314  -5.613  -0.419  0.00  0.00    +0.099 A 
ATOM      5  N   UNL     1      -5.534  -5.338  -1.453  0.00  0.00    -0.349 N 
ATOM      6  C   UNL     1      -4.310  -4.872  -1.291  0.00  0.00    +0.089 A 
ATOM      7  N   UNL     1      -7.599  -6.097  -0.635  0.00  0.00    -0.314 N 
ATOM      8  C   UNL     1      -7.866  -7.542  -0.629  0.00  0.00    +0.107 C 
ATOM      9  C   UNL     1      -8.578  -7.917  -1.932  0.00  0.00    +0.019 C 
ATOM     10  C   UNL     1      -9.828  -7.048  -2.094  0.00  0.00    +0.003 C 
ATOM     11  C   UNL     1      -9.420  -5.575  -2.174  0.00  0.00    +0.022 C 
ATOM     12  C   UNL     1      -8.718  -5.173  -0.868  0.00  0.00    +0.077 C 
ATOM     13  H   UNL     1      -5.872  -5.479  -2.351  0.00  0.00    +0.167 HD
ENDROOT
BRANCH   1  14
ATOM     14  C   UNL     1      -2.390  -4.138   0.142  0.00  0.00    +0.142 C 
BRANCH  14  18
ATOM     15  N   UNL     1      -1.301  -0.634   0.368  0.00  0.00    -0.269 N 
ATOM     16  C   UNL     1      -1.274  -1.981   0.331  0.00  0.00    +0.304 C 
ATOM     17  O   UNL     1      -0.215  -2.570   0.430  0.00  0.00    -0.252 OA
ATOM     18  N   UNL     1      -2.420  -2.674   0.183  0.00  0.00    -0.295 N 
ATOM     19  H   UNL     1      -2.151  -0.166   0.362  0.00  0.00    +0.156 HD
ATOM     20  H   UNL     1      -3.265  -2.204   0.104  0.00  0.00    +0.151 HD
BRANCH  15  26
ATOM     21  C   UNL     1       1.030  -0.397  -0.222  0.00  0.00    +0.026 A 
ATOM     22  C   UNL     1       2.210   0.318  -0.173  0.00  0.00    +0.040 A 
ATOM     23  C   UNL     1       2.264   1.520   0.511  0.00  0.00    +0.124 A 
ATOM     24  C   UNL     1       1.136   2.008   1.149  0.00  0.00    +0.040 A 
ATOM     25  C   UNL     1      -0.046   1.295   1.103  0.00  0.00    +0.026 A 
ATOM     26  C   UNL     1      -0.103   0.090   0.417  0.00  0.00    +0.035 A 
ATOM     27  F   UNL     1       3.420   2.219   0.558  0.00  0.00    -0.205 F 
ENDBRANCH  15  26
ENDBRANCH  14  18
ENDBRANCH   1  14
BRANCH  12  28
ATOM     28  C   UNL     1      -8.186  -3.743  -0.988  0.00  0.00    +0.050 C 
BRANCH  28  29
ATOM     29  C   UNL     1      -9.361  -2.770  -1.101  0.00  0.00    +0.157 C 
BRANCH  29  30
ATOM     30  O   UNL     1      -8.864  -1.446  -1.310  0.00  0.00    -0.395 OA
ATOM     31  H   UNL     1      -9.555  -0.775  -1.391  0.00  0.00    +0.209 HD
ENDBRANCH  29  30
ENDBRANCH  28  29
ENDBRANCH  12  28
TORSDOF 6
