REMARK  Name = ZINC67216435
REMARK  10 active torsions:
REMARK  status: ('A' for Active; 'I' for Inactive)
REMARK    1  A    between atoms: C_1  and  C_2
REMARK    2  A    between atoms: C_5  and  C_7
REMARK    3  A    between atoms: C_8  and  C_13
REMARK    4  A    between atoms: C_13  and  N_14
REMARK    5  A    between atoms: N_14  and  C_15
REMARK    6  A    between atoms: C_15  and  C_16
REMARK    7  A    between atoms: C_19  and  C_22
REMARK    8  A    between atoms: C_22  and  S_23
REMARK    9  A    between atoms: S_23  and  N_26
REMARK   10  A    between atoms: N_26  and  C_27
REMARK                            x       y       z     vdW  Elec       q    Type
REMARK                         _______ _______ _______ _____ _____    ______ ____
ROOT
ATOM      1  N   UNL     1       4.170  -1.207  -0.595  0.00  0.00    +0.384 N 
ATOM      2  H   UNL     1       3.469  -0.815   0.016  0.00  0.00    -0.085 HD
ATOM      3  H   UNL     1       4.880  -1.664  -0.042  0.00  0.00    -0.085 HD
ENDROOT
BRANCH   1   4
ATOM      4  C   UNL     1       3.543  -2.186  -1.494  0.00  0.00    -0.042 C 
BRANCH   4   6
ATOM      5  C   UNL     1       1.667  -3.226  -0.023  0.00  0.00    +0.129 A 
ATOM      6  C   UNL     1       2.915  -3.287  -0.678  0.00  0.00    -0.016 A 
ATOM      7  C   UNL     1       3.445  -4.506  -0.446  0.00  0.00    +0.107 A 
ATOM      8  N   UNL     1       2.578  -5.199   0.324  0.00  0.00    -0.284 N 
ATOM      9  H   UNL     1       2.702  -6.107   0.644  0.00  0.00    +0.188 HD
ATOM     10  N   UNL     1       1.472  -4.380   0.583  0.00  0.00    -0.171 NA
BRANCH   5  15
ATOM     11  C   UNL     1      -0.018   1.503   0.010  0.00  0.00    +0.086 C 
ATOM     12  C   UNL     1       0.002  -0.004   0.002  0.00  0.00    +0.103 A 
ATOM     13  C   UNL     1      -1.081  -0.804   0.003  0.00  0.00    +0.045 A 
ATOM     14  C   UNL     1      -0.613  -2.134  -0.007  0.00  0.00    +0.052 A 
ATOM     15  C   UNL     1       0.745  -2.070  -0.013  0.00  0.00    +0.155 A 
ATOM     16  O   UNL     1       1.104  -0.772  -0.013  0.00  0.00    -0.458 OA
ENDBRANCH   5  15
ENDBRANCH   4   6
ENDBRANCH   1   4
BRANCH   1  17
ATOM     17  C   UNL     1       4.782  -0.135  -1.389  0.00  0.00    -0.046 C 
BRANCH  17  18
ATOM     18  C   UNL     1       5.425   0.869  -0.467  0.00  0.00    -0.064 A 
ATOM     19  C   UNL     1       4.693   1.944   0.003  0.00  0.00    +0.002 A 
ATOM     20  C   UNL     1       5.282   2.865   0.849  0.00  0.00    +0.005 A 
ATOM     21  C   UNL     1       6.603   2.711   1.225  0.00  0.00    -0.025 A 
ATOM     22  C   UNL     1       7.335   1.636   0.756  0.00  0.00    +0.005 A 
ATOM     23  C   UNL     1       6.745   0.713  -0.086  0.00  0.00    +0.002 A 
BRANCH  21  24
ATOM     24  C   UNL     1       7.246   3.715   2.147  0.00  0.00    +0.220 C 
BRANCH  24  25
ATOM     25  S   UNL     1       7.011   3.193   3.868  0.00  0.00    +0.033 S 
ATOM     26  O   UNL     1       5.638   3.278   4.222  0.00  0.00    -0.158 OA
ATOM     27  O   UNL     1       7.755   2.010   4.127  0.00  0.00    -0.158 OA
BRANCH  25  28
ATOM     28  N   UNL     1       7.753   4.365   4.773  0.00  0.00    -0.197 NA
ATOM     29  C   UNL     1       7.231   5.734   4.769  0.00  0.00    +0.127 C 
ATOM     30  H   UNL     1       8.534   4.145   5.306  0.00  0.00    +0.147 HD
ENDBRANCH  25  28
ENDBRANCH  24  25
ENDBRANCH  21  24
ENDBRANCH  17  18
ENDBRANCH   1  17
TORSDOF 8
