REMARK  Name = ZINC42954922
REMARK  8 active torsions:
REMARK  status: ('A' for Active; 'I' for Inactive)
REMARK    1  A    between atoms: C_1  and  C_2
REMARK    2  A    between atoms: C_2  and  C_4
REMARK    3  A    between atoms: C_2  and  N_22
REMARK    4  A    between atoms: C_4  and  C_6
REMARK    5  A    between atoms: C_4  and  N_13
REMARK    6  A    between atoms: N_13  and  C_14
REMARK    7  A    between atoms: N_13  and  C_15
REMARK    8  A    between atoms: C_15  and  C_16
REMARK                            x       y       z     vdW  Elec       q    Type
REMARK                         _______ _______ _______ _____ _____    ______ ____
ROOT
ATOM      1  C   UNL     1       1.140  -0.705   1.300  0.00  0.00    +0.072 C 
ENDROOT
BRANCH   1   2
ATOM      2  C   UNL     1       1.576  -2.141   1.160  0.00  0.00    -0.032 A 
ATOM      3  C   UNL     1       2.531  -2.485   0.222  0.00  0.00    +0.006 A 
ATOM      4  C   UNL     1       2.931  -3.802   0.094  0.00  0.00    +0.015 A 
ATOM      5  C   UNL     1       2.376  -4.775   0.904  0.00  0.00    +0.018 A 
ATOM      6  C   UNL     1       1.420  -4.431   1.843  0.00  0.00    +0.015 A 
ATOM      7  C   UNL     1       1.024  -3.113   1.974  0.00  0.00    +0.006 A 
ATOM      8 BR   UNL     1       2.922  -6.577   0.729  0.00  0.00    -0.050 Br
ENDBRANCH   1   2
BRANCH   1  10
ATOM      9  C   UNL     1      -0.643   0.943   0.711  0.00  0.00    -0.012 C 
ATOM     10  C   UNL     1      -0.106  -0.465   0.445  0.00  0.00    -0.056 C 
BRANCH  10  11
ATOM     11  N   UNL     1      -1.135  -1.455   0.789  0.00  0.00    +0.381 N 
ATOM     12  H   UNL     1      -1.956  -1.296   0.226  0.00  0.00    -0.090 HD
ATOM     13  H   UNL     1      -0.781  -2.383   0.614  0.00  0.00    -0.090 HD
ATOM     14  H   UNL     1      -1.374  -1.365   1.766  0.00  0.00    -0.090 HD
ENDBRANCH  10  11
ENDBRANCH   1  10
BRANCH   1  15
ATOM     15  N   UNL     1       2.222   0.181   0.849  0.00  0.00    -0.295 NA
ATOM     16  C   UNL     1       2.150   0.403  -0.601  0.00  0.00    +0.105 C 
BRANCH  15  17
ATOM     17  C   UNL     1       2.196   1.456   1.579  0.00  0.00    +0.127 C 
BRANCH  17  18
ATOM     18  C   UNL     1       3.513   2.166   1.394  0.00  0.00    +0.005 A 
ATOM     19  C   UNL     1       3.876   3.055   0.437  0.00  0.00    +0.027 A 
ATOM     20  C   UNL     1       5.152   3.586   0.465  0.00  0.00    +0.025 A 
ATOM     21  C   UNL     1       6.002   3.201   1.448  0.00  0.00    +0.060 A 
ATOM     22  S   UNL     1       4.995   2.062   2.383  0.00  0.00    -0.099 S 
ATOM     23 BR   UNL     1       5.704   4.829  -0.850  0.00  0.00    -0.050 Br
ENDBRANCH  17  18
ENDBRANCH  15  17
ENDBRANCH   1  15
TORSDOF 6
