REMARK  Name = ZINC39404033
REMARK  1 active torsions:
REMARK  status: ('A' for Active; 'I' for Inactive)
REMARK    1  A    between atoms: C_10  and  C_16
REMARK                            x       y       z     vdW  Elec       q    Type
REMARK                         _______ _______ _______ _____ _____    ______ ____
ROOT
ATOM      1  C   UNL     1       0.209   1.840  -0.211  0.00  0.00    +0.002 A 
ATOM      2  C   UNL     1       1.460   2.439  -0.202  0.00  0.00    +0.002 A 
ATOM      3  C   UNL     1       2.604   1.670  -0.157  0.00  0.00    +0.028 A 
ATOM      4  C   UNL     1       2.507   0.286  -0.120  0.00  0.00    +0.072 A 
ATOM      5  C   UNL     1       1.240  -0.326  -0.132  0.00  0.00    +0.091 A 
ATOM      6  C   UNL     1       0.093   0.469  -0.177  0.00  0.00    +0.030 A 
ATOM      7  N   UNL     1       1.442  -1.671  -0.096  0.00  0.00    -0.214 NA
ATOM      8  C   UNL     1       2.718  -1.920  -0.064  0.00  0.00    +0.205 A 
ATOM      9  N   UNL     1       3.423  -0.741  -0.069  0.00  0.00    -0.288 N 
ATOM     10  C   UNL     1       4.887  -0.668  -0.018  0.00  0.00    +0.211 C 
ATOM     11  N   UNL     1       5.413  -2.015  -0.311  0.00  0.00    -0.294 N 
ATOM     12  C   UNL     1       4.732  -3.105   0.211  0.00  0.00    +0.159 C 
ATOM     13  N   UNL     1       3.359  -3.156  -0.032  0.00  0.00    -0.259 N 
ATOM     14  N   UNL     1       5.343  -4.032   0.893  0.00  0.00    -0.375 N 
ATOM     15  H   UNL     1       2.885  -3.992  -0.168  0.00  0.00    +0.158 HD
ATOM     16  H   UNL     1       6.298  -3.971   1.047  0.00  0.00    +0.158 HD
ATOM     17  H   UNL     1       6.209  -2.134  -0.852  0.00  0.00    +0.151 HD
ATOM     18  H   UNL     1       4.841  -4.783   1.247  0.00  0.00    +0.158 HD
ENDROOT
BRANCH  10  19
ATOM     19  C   UNL     1       5.329  -0.234   1.355  0.00  0.00    +0.031 A 
ATOM     20  C   UNL     1       4.445  -0.294   2.417  0.00  0.00    +0.013 A 
ATOM     21  C   UNL     1       4.848   0.104   3.678  0.00  0.00    +0.042 A 
ATOM     22  C   UNL     1       6.138   0.564   3.880  0.00  0.00    +0.161 A 
ATOM     23  C   UNL     1       7.026   0.625   2.817  0.00  0.00    +0.194 A 
ATOM     24  C   UNL     1       6.621   0.220   1.555  0.00  0.00    +0.168 A 
ATOM     25  F   UNL     1       7.486   0.274   0.518  0.00  0.00    -0.202 F 
ATOM     26  F   UNL     1       8.285   1.075   3.012  0.00  0.00    -0.199 F 
ATOM     27  F   UNL     1       6.532   0.954   5.112  0.00  0.00    -0.202 F 
ENDBRANCH  10  19
TORSDOF 1
