REMARK  Name = ZINC15978774
REMARK  8 active torsions:
REMARK  status: ('A' for Active; 'I' for Inactive)
REMARK    1  A    between atoms: C_1  and  C_2
REMARK    2  A    between atoms: C_5  and  N_11
REMARK    3  A    between atoms: C_6  and  N_8
REMARK    4  A    between atoms: C_12  and  C_14
REMARK    5  A    between atoms: C_14  and  C_16
REMARK    6  A    between atoms: C_14  and  O_22
REMARK    7  A    between atoms: O_22  and  C_23
REMARK    8  A    between atoms: C_23  and  C_25
REMARK                            x       y       z     vdW  Elec       q    Type
REMARK                         _______ _______ _______ _____ _____    ______ ____
ROOT
ATOM      1  C   UNL     1      -0.518   2.221  -5.630  0.00  0.00    +0.292 C 
ENDROOT
BRANCH   1   2
ATOM      2  C   UNL     1      -0.888   3.204  -6.711  0.00  0.00    +0.002 A 
ATOM      3  C   UNL     1      -0.278   4.443  -6.756  0.00  0.00    +0.008 A 
ATOM      4  C   UNL     1      -0.614   5.343  -7.750  0.00  0.00    +0.000 A 
ATOM      5  C   UNL     1      -1.567   5.008  -8.693  0.00  0.00    +0.000 A 
ATOM      6  C   UNL     1      -2.181   3.770  -8.645  0.00  0.00    +0.000 A 
ATOM      7  C   UNL     1      -1.842   2.868  -7.654  0.00  0.00    +0.008 A 
ENDBRANCH   1   2
BRANCH   1   9
ATOM      8  N   UNL     1       0.839   0.804  -7.137  0.00  0.00    -0.280 N 
ATOM      9  C   UNL     1       0.767   1.526  -6.001  0.00  0.00    +0.263 C 
ATOM     10  O   UNL     1       1.736   1.617  -5.277  0.00  0.00    -0.271 OA
ATOM     11  H   UNL     1       0.044   0.665  -7.674  0.00  0.00    +0.155 HD
BRANCH   8  16
ATOM     12  C   UNL     1       5.796  -1.418  -8.773  0.00  0.00    +0.044 C 
ATOM     13  C   UNL     1       4.479  -0.827  -8.339  0.00  0.00    -0.048 A 
ATOM     14  C   UNL     1       4.459   0.294  -7.530  0.00  0.00    +0.005 A 
ATOM     15  C   UNL     1       3.254   0.838  -7.130  0.00  0.00    +0.026 A 
ATOM     16  C   UNL     1       2.062   0.257  -7.541  0.00  0.00    +0.064 A 
ATOM     17  C   UNL     1       2.085  -0.873  -8.349  0.00  0.00    +0.148 A 
ATOM     18  C   UNL     1       3.294  -1.408  -8.749  0.00  0.00    +0.038 A 
BRANCH  17  19
ATOM     19  N   UNL     1       0.816  -1.498  -8.784  0.00  0.00    +0.058 N 
ATOM     20  O   UNL     1       0.836  -2.539  -9.417  0.00  0.00    -0.126 OA
ATOM     21  O   UNL     1      -0.248  -0.973  -8.509  0.00  0.00    -0.126 OA
ENDBRANCH  17  19
ENDBRANCH   8  16
ENDBRANCH   1   9
BRANCH   1  22
ATOM     22  O   UNL     1      -0.342   2.926  -4.374  0.00  0.00    -0.444 OA
BRANCH  22  23
ATOM     23  C   UNL     1      -1.431   3.064  -3.591  0.00  0.00    +0.341 C 
ATOM     24  O   UNL     1      -2.497   2.607  -3.950  0.00  0.00    -0.245 OA
BRANCH  23  25
ATOM     25  C   UNL     1      -1.326   3.771  -2.298  0.00  0.00    +0.073 A 
ATOM     26  C   UNL     1      -1.540   5.168  -2.215  0.00  0.00    +0.015 A 
ATOM     27  C   UNL     1      -1.855   5.932  -3.345  0.00  0.00    +0.011 A 
ATOM     28  C   UNL     1      -2.056   7.274  -3.217  0.00  0.00    +0.001 A 
ATOM     29  C   UNL     1      -1.949   7.897  -1.975  0.00  0.00    +0.002 A 
ATOM     30  C   UNL     1      -1.642   7.185  -0.857  0.00  0.00    +0.028 A 
ATOM     31  C   UNL     1      -1.429   5.797  -0.950  0.00  0.00    +0.072 A 
ATOM     32  N   UNL     1      -1.126   5.072   0.126  0.00  0.00    -0.251 NA
ATOM     33  C   UNL     1      -0.920   3.770   0.073  0.00  0.00    +0.046 A 
ATOM     34  C   UNL     1      -1.016   3.079  -1.128  0.00  0.00    -0.012 A 
ATOM     35  C   UNL     1      -0.798   1.593  -1.232  0.00  0.00    +0.038 C 
ATOM     36  C   UNL     1      -0.062   1.070   0.001  0.00  0.00    +0.005 C 
ATOM     37  C   UNL     1      -0.795   1.573   1.250  0.00  0.00    +0.006 C 
ATOM     38  C   UNL     1      -0.572   3.078   1.368  0.00  0.00    +0.056 C 
ENDBRANCH  23  25
ENDBRANCH  22  23
ENDBRANCH   1  22
TORSDOF 7
