REMARK  Name = ZINC39639050
REMARK  14 active torsions:
REMARK  status: ('A' for Active; 'I' for Inactive)
REMARK    1  A    between atoms: C_1  and  C_2
REMARK    2  A    between atoms: C_2  and  C_3
REMARK    3  A    between atoms: C_3  and  C_4
REMARK    4  A    between atoms: C_4  and  C_6
REMARK    5  A    between atoms: C_4  and  C_7
REMARK    6  A    between atoms: C_11  and  C_20
REMARK    7  A    between atoms: N_22  and  C_23
REMARK    8  A    between atoms: C_23  and  C_24
REMARK    9  A    between atoms: C_25  and  O_34
REMARK   10  A    between atoms: C_27  and  O_32
REMARK   11  A    between atoms: C_29  and  O_30
REMARK   12  A    between atoms: O_30  and  C_31
REMARK   13  A    between atoms: O_32  and  C_33
REMARK   14  A    between atoms: O_34  and  C_35
REMARK                            x       y       z     vdW  Elec       q    Type
REMARK                         _______ _______ _______ _____ _____    ______ ____
ROOT
ATOM      1  C   UNL     1       1.333  -2.575   2.213  0.00  0.00    +0.218 C 
ATOM      2  O   UNL     1       1.790  -1.712   2.933  0.00  0.00    -0.275 OA
ATOM      3  N   UNL     1       1.589  -3.873   2.470  0.00  0.00    -0.300 N 
ATOM      4  C   UNL     1       1.130  -5.058   1.708  0.00  0.00    +0.121 C 
ATOM      5  C   UNL     1       2.342  -6.016   1.709  0.00  0.00    +0.100 C 
ATOM      6  C   UNL     1       3.166  -5.606   2.941  0.00  0.00    -0.004 C 
ATOM      7  C   UNL     1       2.399  -4.437   3.576  0.00  0.00    +0.115 C 
ATOM      8  C   UNL     1       4.558  -5.146   2.516  0.00  0.00    -0.010 C 
ATOM      9  C   UNL     1       5.377  -4.797   3.761  0.00  0.00    -0.082 C 
ATOM     10  N   UNL     1       5.473  -5.975   4.632  0.00  0.00    +0.379 N 
ATOM     11  C   UNL     1       4.139  -6.355   5.111  0.00  0.00    -0.082 C 
ATOM     12  C   UNL     1       3.267  -6.769   3.922  0.00  0.00    -0.010 C 
ATOM     13  H   UNL     1       5.874  -6.743   4.114  0.00  0.00    -0.086 HD
ATOM     14  H   UNL     1       6.064  -5.761   5.421  0.00  0.00    -0.086 HD
ENDROOT
BRANCH   5  15
ATOM     15  C   UNL     1       3.151  -5.840   0.450  0.00  0.00    +0.218 C 
ATOM     16  O   UNL     1       3.189  -4.760  -0.100  0.00  0.00    -0.275 OA
ATOM     17  N   UNL     1       3.834  -6.882  -0.064  0.00  0.00    -0.311 N 
ATOM     18  H   UNL     1       3.804  -7.746   0.376  0.00  0.00    +0.149 HD
BRANCH  17  19
ATOM     19  C   UNL     1       4.621  -6.711  -1.288  0.00  0.00    +0.147 C 
BRANCH  19  20
ATOM     20  C   UNL     1       5.280  -8.017  -1.648  0.00  0.00    +0.053 A 
ATOM     21  C   UNL     1       6.539  -8.318  -1.151  0.00  0.00    +0.132 A 
ATOM     22  C   UNL     1       7.147  -9.520  -1.482  0.00  0.00    +0.091 A 
ATOM     23  C   UNL     1       6.495 -10.421  -2.310  0.00  0.00    +0.127 A 
ATOM     24  C   UNL     1       5.235 -10.120  -2.807  0.00  0.00    +0.091 A 
ATOM     25  C   UNL     1       4.626  -8.920  -2.472  0.00  0.00    +0.132 A 
BRANCH  25  26
ATOM     26  O   UNL     1       3.390  -8.627  -2.955  0.00  0.00    -0.495 OA
ATOM     27  C   UNL     1       2.775  -9.604  -3.798  0.00  0.00    +0.277 C 
ENDBRANCH  25  26
BRANCH  23  28
ATOM     28  O   UNL     1       7.090 -11.598  -2.636  0.00  0.00    -0.495 OA
ATOM     29  C   UNL     1       6.361 -12.479  -3.493  0.00  0.00    +0.277 C 
ENDBRANCH  23  28
BRANCH  21  30
ATOM     30  O   UNL     1       7.178  -7.435  -0.339  0.00  0.00    -0.495 OA
ATOM     31  C   UNL     1       8.473  -7.810   0.137  0.00  0.00    +0.277 C 
ENDBRANCH  21  30
ENDBRANCH  19  20
ENDBRANCH  17  19
ENDBRANCH   5  15
BRANCH   1  32
ATOM     32  C   UNL     1       0.480  -2.196   1.030  0.00  0.00    +0.072 C 
ATOM     33  C   UNL     1      -0.907  -2.823   1.179  0.00  0.00    +0.017 C 
BRANCH  32  34
ATOM     34  C   UNL     1       0.347  -0.673   0.965  0.00  0.00    +0.012 C 
BRANCH  34  36
ATOM     35  C   UNL     1      -0.547   1.242  -0.369  0.00  0.00    +0.004 C 
ATOM     36  C   UNL     1      -0.414  -0.281  -0.304  0.00  0.00    -0.003 C 
ENDBRANCH  34  36
ENDBRANCH  32  34
ENDBRANCH   1  32
TORSDOF 9
