REMARK  Name = ZINC32682392
REMARK  11 active torsions:
REMARK  status: ('A' for Active; 'I' for Inactive)
REMARK    1  A    between atoms: C_10  and  O_12
REMARK    2  A    between atoms: O_12  and  C_13
REMARK    3  A    between atoms: C_13  and  C_14
REMARK    4  A    between atoms: C_14  and  C_16
REMARK    5  A    between atoms: C_14  and  O_30
REMARK    6  A    between atoms: C_16  and  N_17
REMARK    7  A    between atoms: N_17  and  C_18
REMARK    8  A    between atoms: C_18  and  C_19
REMARK    9  A    between atoms: C_19  and  C_20
REMARK   10  A    between atoms: C_23  and  S_26
REMARK   11  A    between atoms: S_26  and  N_29
REMARK                            x       y       z     vdW  Elec       q    Type
REMARK                         _______ _______ _______ _____ _____    ______ ____
ROOT
ATOM      1  N   UNL     1      -1.395  -1.987   0.404  0.00  0.00    +0.381 N 
ATOM      2  H   UNL     1      -0.978  -2.420  -0.517  0.00  0.00    -0.086 HD
ATOM      3  H   UNL     1      -0.768  -2.274   1.261  0.00  0.00    -0.086 HD
ENDROOT
BRANCH   1   4
ATOM      4  C   UNL     1      -1.425  -0.523   0.288  0.00  0.00    -0.049 C 
BRANCH   4   5
ATOM      5  C   UNL     1      -0.004   0.001   0.077  0.00  0.00    +0.123 C 
BRANCH   5   6
ATOM      6  O   UNL     1       0.496  -0.468  -1.177  0.00  0.00    -0.391 OA
ATOM      7  H   UNL     1       0.580  -1.548  -1.367  0.00  0.00    +0.210 HD
ENDBRANCH   5   6
BRANCH   5   8
ATOM      8  C   UNL     1      -0.018   1.531   0.080  0.00  0.00    +0.190 C 
BRANCH   8   9
ATOM      9  O   UNL     1       1.322   2.020   0.000  0.00  0.00    -0.369 OA
BRANCH   9  19
ATOM     10  C   UNL     1       5.065   4.671   1.755  0.00  0.00    +0.000 A 
ATOM     11  C   UNL     1       4.270   3.698   2.330  0.00  0.00    +0.000 A 
ATOM     12  C   UNL     1       3.098   3.317   1.710  0.00  0.00    +0.006 A 
ATOM     13  C   UNL     1       2.710   3.902   0.512  0.00  0.00    -0.016 A 
ATOM     14  C   UNL     1       3.504   4.869  -0.063  0.00  0.00    -0.042 A 
ATOM     15  C   UNL     1       4.683   5.253   0.564  0.00  0.00    +0.004 A 
ATOM     16  C   UNL     1       3.150   5.540  -1.364  0.00  0.00    +0.035 C 
ATOM     17  C   UNL     1       1.672   5.338  -1.688  0.00  0.00    +0.007 C 
ATOM     18  C   UNL     1       1.354   3.842  -1.580  0.00  0.00    +0.037 C 
ATOM     19  C   UNL     1       1.416   3.442  -0.107  0.00  0.00    +0.149 C 
ENDBRANCH   9  19
ENDBRANCH   8   9
ENDBRANCH   5   8
ENDBRANCH   4   5
ENDBRANCH   1   4
BRANCH   1  20
ATOM     20  C   UNL     1      -2.746  -2.527   0.608  0.00  0.00    -0.078 C 
BRANCH  20  21
ATOM     21  C   UNL     1      -2.675  -4.051   0.724  0.00  0.00    +0.016 C 
BRANCH  21  22
ATOM     22  C   UNL     1      -4.061  -4.604   0.933  0.00  0.00    -0.049 A 
ATOM     23  C   UNL     1      -4.554  -4.767   2.214  0.00  0.00    +0.005 A 
ATOM     24  C   UNL     1      -5.827  -5.270   2.405  0.00  0.00    +0.029 A 
ATOM     25  C   UNL     1      -6.603  -5.621   1.316  0.00  0.00    +0.105 A 
ATOM     26  C   UNL     1      -6.107  -5.464   0.035  0.00  0.00    +0.029 A 
ATOM     27  C   UNL     1      -4.836  -4.955  -0.156  0.00  0.00    +0.005 A 
BRANCH  25  28
ATOM     28  S   UNL     1      -8.223  -6.269   1.561  0.00  0.00    +0.056 S 
ATOM     29  O   UNL     1      -8.658  -5.808   2.832  0.00  0.00    -0.153 OA
ATOM     30  O   UNL     1      -8.948  -6.010   0.367  0.00  0.00    -0.153 OA
BRANCH  28  31
ATOM     31  N   UNL     1      -8.079  -7.915   1.679  0.00  0.00    -0.204 NA
ATOM     32  H   UNL     1      -9.073  -8.360   1.832  0.00  0.00    +0.144 HD
ATOM     33  H   UNL     1      -7.429  -8.166   2.530  0.00  0.00    +0.144 HD
ENDBRANCH  28  31
ENDBRANCH  25  28
ENDBRANCH  21  22
ENDBRANCH  20  21
ENDBRANCH   1  20
TORSDOF 11
