REMARK  Name = ZINC03665672
REMARK  13 active torsions:
REMARK  status: ('A' for Active; 'I' for Inactive)
REMARK    1  A    between atoms: C_1  and  C_2
REMARK    2  A    between atoms: C_4  and  N_11
REMARK    3  A    between atoms: C_5  and  O_9
REMARK    4  A    between atoms: O_9  and  C_10
REMARK    5  A    between atoms: N_11  and  C_12
REMARK    6  A    between atoms: C_12  and  N_14
REMARK    7  A    between atoms: N_14  and  C_15
REMARK    8  A    between atoms: N_14  and  C_25
REMARK    9  A    between atoms: C_15  and  C_16
REMARK   10  A    between atoms: C_16  and  C_17
REMARK   11  A    between atoms: C_17  and  N_18
REMARK   12  A    between atoms: C_21  and  C_24
REMARK   13  A    between atoms: C_25  and  C_26
REMARK                            x       y       z     vdW  Elec       q    Type
REMARK                         _______ _______ _______ _____ _____    ______ ____
ROOT
ATOM      1  N   UNL     1       3.204   1.058  -1.272  0.00  0.00    -0.308 N 
ENDROOT
BRANCH   1   2
ATOM      2  C   UNL     1       3.818   2.069  -1.918  0.00  0.00    +0.138 C 
ATOM      3  S   UNL     1       4.623   1.774  -3.400  0.00  0.00    -0.018 S 
BRANCH   2   4
ATOM      4  N   UNL     1       3.798   3.312  -1.398  0.00  0.00    -0.294 N 
ATOM      5  H   UNL     1       3.221   3.517  -0.484  0.00  0.00    +0.154 HD
BRANCH   4   9
ATOM      6  C   UNL     1       5.012   5.746  -5.495  0.00  0.00    +0.045 C 
ATOM      7  C   UNL     1       5.120   5.547  -4.005  0.00  0.00    -0.030 A 
ATOM      8  C   UNL     1       4.414   4.529  -3.392  0.00  0.00    +0.031 A 
ATOM      9  C   UNL     1       4.513   4.344  -2.021  0.00  0.00    +0.075 A 
ATOM     10  C   UNL     1       5.321   5.190  -1.264  0.00  0.00    +0.143 A 
ATOM     11  C   UNL     1       6.030   6.205  -1.885  0.00  0.00    +0.067 A 
ATOM     12  C   UNL     1       5.926   6.383  -3.253  0.00  0.00    +0.047 A 
ATOM     13 CL   UNL     1       6.810   7.661  -4.029  0.00  0.00    -0.083 Cl
BRANCH  10  14
ATOM     14  O   UNL     1       5.416   5.017   0.082  0.00  0.00    -0.493 OA
ATOM     15  C   UNL     1       6.263   5.922   0.794  0.00  0.00    +0.277 C 
ENDBRANCH  10  14
ENDBRANCH   4   9
ENDBRANCH   2   4
ENDBRANCH   1   2
BRANCH   1  16
ATOM     16  C   UNL     1       3.225  -0.293  -1.837  0.00  0.00    +0.105 C 
BRANCH  16  17
ATOM     17  C   UNL     1       2.014  -0.482  -2.752  0.00  0.00    +0.000 C 
BRANCH  17  18
ATOM     18  C   UNL     1       2.037  -1.894  -3.343  0.00  0.00    -0.077 C 
BRANCH  18  19
ATOM     19  N   UNL     1       0.873  -2.075  -4.222  0.00  0.00    +0.380 N 
ATOM     20  C   UNL     1      -0.378  -2.032  -3.455  0.00  0.00    -0.079 C 
ATOM     21  C   UNL     1      -1.569  -2.078  -4.415  0.00  0.00    -0.016 C 
ATOM     22  C   UNL     1      -1.500  -3.364  -5.243  0.00  0.00    -0.018 C 
ATOM     23  C   UNL     1      -0.167  -3.407  -5.995  0.00  0.00    -0.016 C 
ATOM     24  C   UNL     1       0.983  -3.323  -4.989  0.00  0.00    -0.079 C 
ATOM     25  C   UNL     1      -2.654  -3.387  -6.248  0.00  0.00    +0.007 C 
ATOM     26  H   UNL     1       0.856  -1.242  -4.939  0.00  0.00    -0.082 HD
ENDBRANCH  18  19
ENDBRANCH  17  18
ENDBRANCH  16  17
ENDBRANCH   1  16
BRANCH   1  27
ATOM     27  C   UNL     1       2.515   1.311  -0.004  0.00  0.00    +0.149 C 
BRANCH  27  28
ATOM     28  C   UNL     1       1.078   1.674  -0.277  0.00  0.00    +0.007 A 
ATOM     29  C   UNL     1      -0.004   0.864  -0.374  0.00  0.00    +0.013 A 
ATOM     30  C   UNL     1      -1.240   1.424  -0.639  0.00  0.00    +0.008 A 
ATOM     31  C   UNL     1      -1.335   2.768  -0.782  0.00  0.00    +0.045 A 
ATOM     32  S   UNL     1       0.359   3.285  -0.555  0.00  0.00    -0.100 S 
ENDBRANCH  27  28
ENDBRANCH   1  27
TORSDOF 10
