REMARK  Name = ZINC37021668
REMARK  8 active torsions:
REMARK  status: ('A' for Active; 'I' for Inactive)
REMARK    1  A    between atoms: C_1  and  C_2
REMARK    2  A    between atoms: C_7  and  N_12
REMARK    3  A    between atoms: C_9  and  C_11
REMARK    4  A    between atoms: N_12  and  C_13
REMARK    5  A    between atoms: C_13  and  C_14
REMARK    6  A    between atoms: C_16  and  O_22
REMARK    7  A    between atoms: C_17  and  O_21
REMARK    8  A    between atoms: O_22  and  C_23
REMARK                            x       y       z     vdW  Elec       q    Type
REMARK                         _______ _______ _______ _____ _____    ______ ____
ROOT
ATOM      1  C   UNL     1       0.121   0.067   4.896  0.00  0.00    -0.046 C 
ENDROOT
BRANCH   1   2
ATOM      2  C   UNL     1       0.850  -0.432   6.117  0.00  0.00    -0.060 A 
ATOM      3  C   UNL     1       0.441  -1.600   6.735  0.00  0.00    +0.051 A 
ATOM      4  C   UNL     1       1.110  -2.061   7.857  0.00  0.00    +0.163 A 
ATOM      5  C   UNL     1       2.193  -1.347   8.360  0.00  0.00    +0.173 A 
ATOM      6  C   UNL     1       2.598  -0.177   7.736  0.00  0.00    +0.063 A 
ATOM      7  C   UNL     1       1.928   0.275   6.613  0.00  0.00    +0.021 A 
ATOM      8 BR   UNL     1       4.069   0.797   8.416  0.00  0.00    -0.046 Br
BRANCH   5   9
ATOM      9  O   UNL     1       2.852  -1.794   9.463  0.00  0.00    -0.503 OA
ATOM     10  H   UNL     1       3.589  -2.389   9.265  0.00  0.00    +0.292 HD
ENDBRANCH   5   9
BRANCH   4  11
ATOM     11  O   UNL     1       0.708  -3.209   8.466  0.00  0.00    -0.491 OA
ATOM     12  C   UNL     1      -0.411  -3.889   7.895  0.00  0.00    +0.277 C 
ENDBRANCH   4  11
ENDBRANCH   1   2
BRANCH   1  13
ATOM     13  N   UNL     1       0.736  -0.504   3.691  0.00  0.00    +0.384 N 
ATOM     14  H   UNL     1       0.679  -1.511   3.728  0.00  0.00    -0.085 HD
ATOM     15  H   UNL     1       1.704  -0.224   3.642  0.00  0.00    -0.085 HD
BRANCH  13  21
ATOM     16  C   UNL     1      -0.019   1.526   0.010  0.00  0.00    +0.008 C 
ATOM     17  C   UNL     1       0.002  -0.004   0.002  0.00  0.00    -0.013 C 
ATOM     18  C   UNL     1      -1.433  -0.534   0.013  0.00  0.00    +0.003 C 
ATOM     19  C   UNL     1      -2.149  -0.040   1.272  0.00  0.00    -0.001 C 
ATOM     20  C   UNL     1      -1.409  -0.547   2.511  0.00  0.00    -0.015 C 
ATOM     21  C   UNL     1       0.026  -0.018   2.500  0.00  0.00    -0.068 C 
ATOM     22  C   UNL     1       0.742  -0.511   1.242  0.00  0.00    -0.025 C 
ATOM     23  C   UNL     1       2.178   0.019   1.231  0.00  0.00    +0.006 C 
ENDBRANCH  13  21
ENDBRANCH   1  13
TORSDOF 5
