REMARK  Name = ZINC45804985
REMARK  9 active torsions:
REMARK  status: ('A' for Active; 'I' for Inactive)
REMARK    1  A    between atoms: C_1  and  C_2
REMARK    2  A    between atoms: C_2  and  C_3
REMARK    3  A    between atoms: C_3  and  C_4
REMARK    4  A    between atoms: C_4  and  N_5
REMARK    5  A    between atoms: N_5  and  C_6
REMARK    6  A    between atoms: N_5  and  C_10
REMARK    7  A    between atoms: C_6  and  C_7
REMARK    8  A    between atoms: C_10  and  C_11
REMARK    9  A    between atoms: N_13  and  C_14
REMARK                            x       y       z     vdW  Elec       q    Type
REMARK                         _______ _______ _______ _____ _____    ______ ____
ROOT
ATOM      1  N   UNL     1       1.082  -2.549   2.247  0.00  0.00    +0.391 N 
ATOM      2  H   UNL     1       0.526  -2.162   2.995  0.00  0.00    -0.080 HD
ENDROOT
BRANCH   1   3
ATOM      3  C   UNL     1       0.350  -2.426   0.979  0.00  0.00    -0.078 C 
BRANCH   3   4
ATOM      4  C   UNL     1      -1.030  -3.070   1.122  0.00  0.00    -0.019 C 
BRANCH   4   6
ATOM      5  C   UNL     1      -3.222  -3.471  -0.009  0.00  0.00    +0.004 C 
ATOM      6  C   UNL     1      -1.841  -2.827  -0.153  0.00  0.00    -0.005 C 
ENDBRANCH   4   6
ENDBRANCH   3   4
ENDBRANCH   1   3
BRANCH   1   7
ATOM      7  C   UNL     1       2.353  -1.819   2.152  0.00  0.00    +0.019 C 
BRANCH   7   8
ATOM      8  C   UNL     1       2.076  -0.341   2.053  0.00  0.00    +0.194 C 
ATOM      9  O   UNL     1       0.933   0.060   1.998  0.00  0.00    -0.278 OA
ATOM     10  N   UNL     1       3.099   0.536   2.026  0.00  0.00    -0.331 N 
ATOM     11  H   UNL     1       4.014   0.216   2.071  0.00  0.00    +0.145 HD
ATOM     12  H   UNL     1       2.921   1.488   1.962  0.00  0.00    +0.145 HD
ENDBRANCH   7   8
ENDBRANCH   1   7
BRANCH   1  13
ATOM     13  C   UNL     1       1.351  -3.967   2.521  0.00  0.00    +0.020 C 
BRANCH  13  14
ATOM     14  C   UNL     1       1.992  -4.103   3.879  0.00  0.00    +0.201 C 
ATOM     15  O   UNL     1       2.203  -3.116   4.551  0.00  0.00    -0.278 OA
ATOM     16  N   UNL     1       2.330  -5.322   4.345  0.00  0.00    -0.286 N 
ATOM     17  H   UNL     1       2.220  -6.104   3.782  0.00  0.00    +0.155 HD
BRANCH  16  18
ATOM     18  C   UNL     1       2.838  -5.458   5.642  0.00  0.00    +0.047 A 
ATOM     19  C   UNL     1       2.404  -4.611   6.652  0.00  0.00    +0.024 A 
ATOM     20  C   UNL     1       2.908  -4.748   7.931  0.00  0.00    +0.002 A 
ATOM     21  C   UNL     1       3.843  -5.729   8.206  0.00  0.00    +0.001 A 
ATOM     22  C   UNL     1       4.279  -6.574   7.202  0.00  0.00    +0.016 A 
ATOM     23  C   UNL     1       3.775  -6.445   5.922  0.00  0.00    +0.035 A 
ATOM     24  I   UNL     1       4.428  -7.732   4.403  0.00  0.00    -0.042 I 
ENDBRANCH  16  18
ENDBRANCH  13  14
ENDBRANCH   1  13
TORSDOF 8
