REMARK  Name = ZINC16022180
REMARK  8 active torsions:
REMARK  status: ('A' for Active; 'I' for Inactive)
REMARK    1  A    between atoms: C_1  and  C_2
REMARK    2  A    between atoms: C_2  and  C_3
REMARK    3  A    between atoms: C_3  and  C_4
REMARK    4  A    between atoms: C_4  and  N_5
REMARK    5  A    between atoms: C_10  and  C_28
REMARK    6  A    between atoms: C_28  and  C_29
REMARK    7  A    between atoms: C_29  and  C_30
REMARK    8  A    between atoms: C_29  and  C_31
REMARK                            x       y       z     vdW  Elec       q    Type
REMARK                         _______ _______ _______ _____ _____    ______ ____
ROOT
ATOM      1  N   UNL     1       1.425  -2.500  -2.470  0.00  0.00    -0.242 N 
ATOM      2  C   UNL     1       0.784  -2.738  -3.620  0.00  0.00    +0.224 C 
ATOM      3  O   UNL     1      -0.406  -2.593  -3.803  0.00  0.00    -0.275 OA
ATOM      4  C   UNL     1       1.775  -3.215  -4.658  0.00  0.00    +0.073 C 
ATOM      5  C   UNL     1       1.913  -2.145  -5.761  0.00  0.00    -0.057 C 
ATOM      6  N   UNL     1       2.960  -1.214  -5.263  0.00  0.00    +0.394 N 
ATOM      7  C   UNL     1       3.946  -2.097  -4.612  0.00  0.00    +0.050 C 
ATOM      8  C   UNL     1       3.129  -3.200  -3.895  0.00  0.00    +0.088 C 
ATOM      9  C   UNL     1       2.744  -2.723  -2.512  0.00  0.00    +0.225 C 
ATOM     10  O   UNL     1       3.510  -2.569  -1.585  0.00  0.00    -0.275 OA
ATOM     11  C   UNL     1       4.817  -1.340  -3.651  0.00  0.00    -0.027 A 
ATOM     12  C   UNL     1       4.559  -0.590  -2.526  0.00  0.00    +0.019 A 
ATOM     13  C   UNL     1       5.602   0.004  -1.835  0.00  0.00    +0.018 A 
ATOM     14  C   UNL     1       6.903  -0.160  -2.277  0.00  0.00    +0.017 A 
ATOM     15  C   UNL     1       7.165  -0.912  -3.402  0.00  0.00    +0.024 A 
ATOM     16  C   UNL     1       6.122  -1.512  -4.104  0.00  0.00    +0.036 A 
ATOM     17  N   UNL     1       6.134  -2.307  -5.253  0.00  0.00    -0.286 N 
ATOM     18  C   UNL     1       4.896  -2.692  -5.617  0.00  0.00    +0.211 C 
ATOM     19  O   UNL     1       4.603  -3.384  -6.569  0.00  0.00    -0.277 OA
ATOM     20 BR   UNL     1       5.248   1.036  -0.290  0.00  0.00    -0.050 Br
ATOM     21  H   UNL     1       3.384  -0.716  -6.031  0.00  0.00    -0.083 HD
ATOM     22  H   UNL     1       6.940  -2.553  -5.733  0.00  0.00    +0.155 HD
ATOM     23  H   UNL     1       2.569  -0.568  -4.593  0.00  0.00    -0.083 HD
ENDROOT
BRANCH   1  24
ATOM     24  C   UNL     1       0.739  -2.027  -1.265  0.00  0.00    +0.116 C 
BRANCH  24  25
ATOM     25  C   UNL     1       0.718  -0.497  -1.257  0.00  0.00    +0.019 C 
BRANCH  25  27
ATOM     26  C   UNL     1      -0.019   1.526   0.010  0.00  0.00    +0.004 C 
ATOM     27  C   UNL     1       0.002  -0.004   0.002  0.00  0.00    -0.002 C 
ENDBRANCH  25  27
ENDBRANCH  24  25
ENDBRANCH   1  24
BRANCH   5  28
ATOM     28  C   UNL     1       0.588  -1.405  -5.953  0.00  0.00    -0.012 C 
BRANCH  28  29
ATOM     29  C   UNL     1       0.710  -0.438  -7.133  0.00  0.00    -0.019 C 
ATOM     30  C   UNL     1       0.920  -1.232  -8.423  0.00  0.00    +0.007 C 
ATOM     31  C   UNL     1      -0.571   0.391  -7.247  0.00  0.00    +0.007 C 
ENDBRANCH  28  29
ENDBRANCH   5  28
TORSDOF 5
