REMARK  Name = ZINC04861322
REMARK  9 active torsions:
REMARK  status: ('A' for Active; 'I' for Inactive)
REMARK    1  A    between atoms: C_1  and  C_2
REMARK    2  A    between atoms: C_2  and  O_3
REMARK    3  A    between atoms: O_3  and  C_4
REMARK    4  A    between atoms: C_11  and  C_27
REMARK    5  A    between atoms: N_13  and  C_14
REMARK    6  A    between atoms: C_14  and  C_15
REMARK    7  A    between atoms: C_15  and  N_16
REMARK    8  A    between atoms: N_19  and  C_20
REMARK    9  A    between atoms: C_24  and  C_26
REMARK                            x       y       z     vdW  Elec       q    Type
REMARK                         _______ _______ _______ _____ _____    ______ ____
ROOT
ATOM      1  C   UNL     1       1.859  16.372   1.007  0.00  0.00    +0.121 A 
ATOM      2  C   UNL     1       0.696  15.604   0.905  0.00  0.00    +0.047 A 
ATOM      3  C   UNL     1       0.757  14.249   0.797  0.00  0.00    +0.030 A 
ATOM      4  C   UNL     1       2.006  13.603   0.786  0.00  0.00    +0.048 A 
ATOM      5  C   UNL     1       3.186  14.381   0.889  0.00  0.00    +0.003 A 
ATOM      6  C   UNL     1       3.090  15.778   1.000  0.00  0.00    +0.055 A 
ATOM      7  C   UNL     1       4.437  13.739   0.879  0.00  0.00    +0.032 A 
ATOM      8  C   UNL     1       4.460  12.355   0.771  0.00  0.00    +0.090 A 
ATOM      9  C   UNL     1       3.240  11.646   0.667  0.00  0.00    +0.114 A 
ATOM     10  N   UNL     1       3.265  10.267   0.554  0.00  0.00    -0.328 N 
ATOM     11  H   UNL     1       4.113   9.796   0.544  0.00  0.00    +0.147 HD
ATOM     12  N   UNL     1       2.017  12.228   0.674  0.00  0.00    -0.342 N 
ATOM     13  H   UNL     1       1.151  11.680   0.600  0.00  0.00    +0.167 HD
ENDROOT
BRANCH   8  14
ATOM     14  C   UNL     1       5.708  11.652   0.761  0.00  0.00    +0.103 C 
ATOM     15  N   UNL     1       6.698  11.094   0.753  0.00  0.00    -0.191 NA
ENDBRANCH   8  14
BRANCH   1  16
ATOM     16  O   UNL     1       1.766  17.724   1.113  0.00  0.00    -0.492 OA
BRANCH  16  18
ATOM     17  C   UNL     1       0.547  19.807   1.241  0.00  0.00    +0.048 C 
ATOM     18  C   UNL     1       0.452  18.285   1.115  0.00  0.00    +0.225 C 
ENDBRANCH  16  18
ENDBRANCH   1  16
BRANCH  10  19
ATOM     19  C   UNL     1       2.010   9.518   0.451  0.00  0.00    +0.121 C 
BRANCH  19  20
ATOM     20  C   UNL     1       2.316   8.023   0.339  0.00  0.00    +0.124 C 
BRANCH  20  21
ATOM     21  N   UNL     1       1.061   7.274   0.236  0.00  0.00    -0.298 N 
ATOM     22  C   UNL     1       1.085   5.931   0.126  0.00  0.00    +0.304 C 
ATOM     23  O   UNL     1       2.148   5.341   0.113  0.00  0.00    -0.253 OA
ATOM     24  N   UNL     1      -0.069   5.242   0.031  0.00  0.00    -0.269 N 
ATOM     25  H   UNL     1       0.213   7.745   0.246  0.00  0.00    +0.150 HD
ATOM     26  H   UNL     1      -0.913   5.716  -0.036  0.00  0.00    +0.156 HD
BRANCH  24  27
ATOM     27  C   UNL     1      -0.051   3.842   0.030  0.00  0.00    +0.035 A 
ATOM     28  C   UNL     1       0.907   3.158   0.767  0.00  0.00    +0.023 A 
ATOM     29  C   UNL     1       0.922   1.777   0.764  0.00  0.00    +0.002 A 
ATOM     30  C   UNL     1      -0.015   1.076   0.028  0.00  0.00    +0.003 A 
ATOM     31  C   UNL     1      -0.966   1.754  -0.712  0.00  0.00    -0.049 A 
ATOM     32  C   UNL     1      -0.990   3.135  -0.709  0.00  0.00    +0.026 A 
ATOM     33  C   UNL     1      -1.981   0.985  -1.518  0.00  0.00    +0.044 C 
ENDBRANCH  24  27
ENDBRANCH  20  21
ENDBRANCH  19  20
ENDBRANCH  10  19
TORSDOF 7
