REMARK  Name = ZINC20558294
REMARK  5 active torsions:
REMARK  status: ('A' for Active; 'I' for Inactive)
REMARK    1  A    between atoms: C_1  and  C_2
REMARK    2  A    between atoms: C_2  and  C_4
REMARK    3  A    between atoms: C_2  and  N_16
REMARK    4  A    between atoms: N_6  and  C_7
REMARK    5  A    between atoms: C_8  and  N_15
REMARK                            x       y       z     vdW  Elec       q    Type
REMARK                         _______ _______ _______ _____ _____    ______ ____
ROOT
ATOM      1  C   UNL     1      -1.201   6.564  -0.351  0.00  0.00    +0.203 C 
ATOM      2  O   UNL     1      -2.210   5.946  -0.617  0.00  0.00    -0.277 OA
ATOM      3  N   UNL     1      -0.089   5.906   0.034  0.00  0.00    -0.284 N 
ATOM      4  H   UNL     1       0.800   6.469   0.355  0.00  0.00    +0.155 HD
ENDROOT
BRANCH   3   5
ATOM      5  C   UNL     1      -0.066   4.504   0.026  0.00  0.00    +0.073 A 
ATOM      6  C   UNL     1       0.315   3.818  -1.127  0.00  0.00    +0.049 A 
ATOM      7  C   UNL     1       0.337   2.431  -1.128  0.00  0.00    +0.044 A 
ATOM      8  C   UNL     1      -0.020   1.732   0.011  0.00  0.00    +0.044 A 
ATOM      9  C   UNL     1      -0.404   2.412   1.153  0.00  0.00    +0.042 A 
ATOM     10  C   UNL     1      -0.422   3.796   1.165  0.00  0.00    +0.065 A 
ATOM     11 CL   UNL     1      -0.897   4.646   2.602  0.00  0.00    -0.082 Cl
ATOM     12 CL   UNL     1       0.007  -0.004   0.006  0.00  0.00    -0.083 Cl
BRANCH   6  13
ATOM     13  N   UNL     1       0.674   4.526  -2.278  0.00  0.00    -0.356 N 
ATOM     14  H   UNL     1       0.975   3.983  -3.186  0.00  0.00    +0.142 HD
ATOM     15  H   UNL     1       0.657   5.626  -2.275  0.00  0.00    +0.142 HD
ENDBRANCH   6  13
ENDBRANCH   3   5
BRANCH   1  17
ATOM     16  C   UNL     1      -0.132   8.504  -1.466  0.00  0.00    -0.004 C 
ATOM     17  C   UNL     1      -1.190   8.068  -0.451  0.00  0.00    +0.016 C 
BRANCH  17  18
ATOM     18  N   UNL     1      -2.511   8.539  -0.887  0.00  0.00    +0.388 N 
ATOM     19  C   UNL     1      -2.872   7.963  -2.185  0.00  0.00    -0.067 C 
ATOM     20  C   UNL     1      -4.384   8.081  -2.404  0.00  0.00    +0.050 C 
ATOM     21  S   UNL     1      -4.827   9.847  -2.406  0.00  0.00    -0.164 S 
ATOM     22  C   UNL     1      -4.038  10.459  -0.884  0.00  0.00    +0.050 C 
ATOM     23  C   UNL     1      -2.575  10.002  -0.882  0.00  0.00    -0.067 C 
ATOM     24  H   UNL     1      -3.266   8.189  -0.167  0.00  0.00    -0.081 HD
ENDBRANCH  17  18
ENDBRANCH   1  17
TORSDOF 4
