REMARK  Name = ZINC12800782
REMARK  11 active torsions:
REMARK  status: ('A' for Active; 'I' for Inactive)
REMARK    1  A    between atoms: C_1  and  C_2
REMARK    2  A    between atoms: C_5  and  C_9
REMARK    3  A    between atoms: C_6  and  C_8
REMARK    4  A    between atoms: C_9  and  N_51
REMARK    5  A    between atoms: C_10  and  N_51
REMARK    6  A    between atoms: C_11  and  C_12
REMARK    7  A    between atoms: C_11  and  N_51
REMARK    8  A    between atoms: C_12  and  C_13
REMARK    9  A    between atoms: N_15  and  C_16
REMARK   10  A    between atoms: C_19  and  S_22
REMARK   11  A    between atoms: S_22  and  N_25
REMARK                            x       y       z     vdW  Elec       q    Type
REMARK                         _______ _______ _______ _____ _____    ______ ____
ROOT
ATOM      1  C   UNL     1       2.907  -0.678   2.313  0.00  0.00    +0.215 C 
ATOM      2  O   UNL     1       2.297  -1.300   3.157  0.00  0.00    -0.276 OA
ATOM      3  N   UNL     1       4.229  -0.462   2.459  0.00  0.00    -0.286 N 
ATOM      4  H   UNL     1       4.730  -0.024   1.753  0.00  0.00    +0.155 HD
ENDROOT
BRANCH   3   5
ATOM      5  C   UNL     1       4.879  -0.869   3.629  0.00  0.00    +0.033 A 
ATOM      6  C   UNL     1       5.924  -0.112   4.144  0.00  0.00    +0.025 A 
ATOM      7  C   UNL     1       6.560  -0.513   5.303  0.00  0.00    +0.030 A 
ATOM      8  C   UNL     1       6.165  -1.673   5.944  0.00  0.00    +0.105 A 
ATOM      9  C   UNL     1       5.129  -2.431   5.431  0.00  0.00    +0.030 A 
ATOM     10  C   UNL     1       4.485  -2.033   4.276  0.00  0.00    +0.025 A 
BRANCH   8  11
ATOM     11  S   UNL     1       6.983  -2.184   7.418  0.00  0.00    +0.056 S 
ATOM     12  O   UNL     1       7.555  -1.017   7.991  0.00  0.00    -0.153 OA
ATOM     13  O   UNL     1       6.068  -3.010   8.125  0.00  0.00    -0.153 OA
BRANCH  11  14
ATOM     14  N   UNL     1       8.245  -3.156   6.965  0.00  0.00    -0.204 NA
ATOM     15  H   UNL     1       9.047  -3.194   7.509  0.00  0.00    +0.144 HD
ATOM     16  H   UNL     1       8.182  -3.688   6.157  0.00  0.00    +0.144 HD
ENDBRANCH  11  14
ENDBRANCH   8  11
ENDBRANCH   3   5
BRANCH   1  17
ATOM     17  C   UNL     1       2.187  -0.149   1.100  0.00  0.00    +0.077 C 
BRANCH  17  18
ATOM     18  C   UNL     1       0.707  -0.530   1.179  0.00  0.00    -0.070 C 
BRANCH  18  20
ATOM     19  C   UNL     1      -0.013   1.456  -0.006  0.00  0.00    -0.096 C 
ATOM     20  N   UNL     1       0.019  -0.022  -0.027  0.00  0.00    +0.381 N 
ATOM     21  H   UNL     1       0.532  -0.333  -0.860  0.00  0.00    -0.082 HD
BRANCH  20  22
ATOM     22  C   UNL     1      -1.358  -0.556  -0.085  0.00  0.00    -0.043 C 
BRANCH  22  27
ATOM     23  C   UNL     1      -3.660   0.785  -5.213  0.00  0.00    +0.044 C 
ATOM     24  C   UNL     1      -3.060   0.435  -3.876  0.00  0.00    -0.050 A 
ATOM     25  C   UNL     1      -3.386   1.178  -2.756  0.00  0.00    +0.003 A 
ATOM     26  C   UNL     1      -2.836   0.857  -1.530  0.00  0.00    +0.002 A 
ATOM     27  C   UNL     1      -1.959  -0.206  -1.423  0.00  0.00    -0.061 A 
ATOM     28  C   UNL     1      -1.629  -0.946  -2.543  0.00  0.00    -0.049 A 
ATOM     29  C   UNL     1      -2.184  -0.628  -3.769  0.00  0.00    +0.007 A 
ATOM     30  C   UNL     1      -0.669  -2.101  -2.427  0.00  0.00    +0.044 C 
ENDBRANCH  22  27
ENDBRANCH  20  22
ENDBRANCH  18  20
ENDBRANCH  17  18
ENDBRANCH   1  17
TORSDOF 8
