REMARK  Name = ZINC66844379
REMARK  9 active torsions:
REMARK  status: ('A' for Active; 'I' for Inactive)
REMARK    1  A    between atoms: C_1  and  C_2
REMARK    2  A    between atoms: C_2  and  C_4
REMARK    3  A    between atoms: C_2  and  N_15
REMARK    4  A    between atoms: N_6  and  C_7
REMARK    5  A    between atoms: C_8  and  C_12
REMARK    6  A    between atoms: N_15  and  C_16
REMARK    7  A    between atoms: N_15  and  C_17
REMARK    8  A    between atoms: C_17  and  C_18
REMARK    9  A    between atoms: N_20  and  C_21
REMARK                            x       y       z     vdW  Elec       q    Type
REMARK                         _______ _______ _______ _____ _____    ______ ____
ROOT
ATOM      1  C   UNL     1      -0.292   1.746   0.202  0.00  0.00    -0.004 C 
ATOM      2  C   UNL     1      -0.241   0.277  -0.225  0.00  0.00    +0.017 C 
ENDROOT
BRANCH   2   3
ATOM      3  C   UNL     1       1.066   0.002  -0.923  0.00  0.00    +0.204 C 
ATOM      4  O   UNL     1       2.013  -0.420  -0.294  0.00  0.00    -0.277 OA
ATOM      5  N   UNL     1       1.182   0.225  -2.247  0.00  0.00    -0.281 N 
ATOM      6  H   UNL     1       0.425   0.563  -2.751  0.00  0.00    +0.155 HD
BRANCH   5   7
ATOM      7  C   UNL     1       2.385  -0.028  -2.890  0.00  0.00    +0.084 A 
ATOM      8  C   UNL     1       2.687   0.146  -4.233  0.00  0.00    +0.065 A 
ATOM      9  C   UNL     1       4.029  -0.199  -4.643  0.00  0.00    +0.022 A 
ATOM     10  C   UNL     1       4.841  -0.653  -3.670  0.00  0.00    +0.048 A 
ATOM     11  S   UNL     1       3.809  -0.609  -2.221  0.00  0.00    -0.081 S 
BRANCH   8  12
ATOM     12  C   UNL     1       1.696   0.653  -5.187  0.00  0.00    +0.244 C 
ATOM     13  O   UNL     1       0.574   0.933  -4.807  0.00  0.00    -0.270 OA
ATOM     14  N   UNL     1       2.027   0.808  -6.484  0.00  0.00    -0.325 N 
ATOM     15  H   UNL     1       2.921   0.585  -6.786  0.00  0.00    +0.145 HD
ATOM     16  H   UNL     1       1.371   1.144  -7.115  0.00  0.00    +0.145 HD
ENDBRANCH   8  12
ENDBRANCH   5   7
ENDBRANCH   2   3
BRANCH   2  17
ATOM     17  N   UNL     1      -0.352  -0.581   0.962  0.00  0.00    +0.391 N 
ATOM     18  C   UNL     1      -1.641  -0.339   1.623  0.00  0.00    -0.094 C 
ATOM     19  H   UNL     1       0.399  -0.370   1.602  0.00  0.00    -0.080 HD
BRANCH  17  20
ATOM     20  C   UNL     1      -0.267  -1.991   0.557  0.00  0.00    +0.020 C 
BRANCH  20  21
ATOM     21  C   UNL     1      -0.241  -2.866   1.784  0.00  0.00    +0.201 C 
ATOM     22  O   UNL     1      -0.288  -2.364   2.887  0.00  0.00    -0.278 OA
ATOM     23  N   UNL     1      -0.165  -4.205   1.655  0.00  0.00    -0.287 N 
ATOM     24  H   UNL     1      -0.199  -4.610   0.774  0.00  0.00    +0.155 HD
BRANCH  23  25
ATOM     25  C   UNL     1      -0.036  -5.011   2.791  0.00  0.00    +0.039 A 
ATOM     26  C   UNL     1      -0.596  -6.282   2.809  0.00  0.00    +0.061 A 
ATOM     27  C   UNL     1      -0.467  -7.077   3.934  0.00  0.00    +0.128 A 
ATOM     28  C   UNL     1       0.218  -6.607   5.041  0.00  0.00    +0.076 A 
ATOM     29  C   UNL     1       0.777  -5.340   5.025  0.00  0.00    +0.128 A 
ATOM     30  C   UNL     1       0.656  -4.544   3.900  0.00  0.00    +0.061 A 
ATOM     31  F   UNL     1       1.445  -4.883   6.107  0.00  0.00    -0.205 F 
ATOM     32  F   UNL     1      -1.011  -8.314   3.952  0.00  0.00    -0.205 F 
ENDBRANCH  23  25
ENDBRANCH  20  21
ENDBRANCH  17  20
ENDBRANCH   2  17
TORSDOF 7
