REMARK  Name = ZINC45802178
REMARK  10 active torsions:
REMARK  status: ('A' for Active; 'I' for Inactive)
REMARK    1  A    between atoms: C_1  and  N_2
REMARK    2  A    between atoms: N_2  and  C_3
REMARK    3  A    between atoms: N_2  and  C_4
REMARK    4  A    between atoms: C_4  and  C_6
REMARK    5  A    between atoms: C_4  and  C_21
REMARK    6  A    between atoms: C_6  and  N_7
REMARK    7  A    between atoms: N_7  and  C_8
REMARK    8  A    between atoms: C_11  and  S_17
REMARK    9  A    between atoms: C_13  and  N_14
REMARK   10  A    between atoms: S_17  and  N_20
REMARK                            x       y       z     vdW  Elec       q    Type
REMARK                         _______ _______ _______ _____ _____    ______ ____
ROOT
ATOM      1  C   UNL     1      -0.281  -3.344   1.256  0.00  0.00    +0.058 A 
ATOM      2  C   UNL     1      -0.689  -4.329   0.365  0.00  0.00    +0.027 A 
ATOM      3  C   UNL     1      -0.450  -5.659   0.652  0.00  0.00    +0.030 A 
ATOM      4  C   UNL     1       0.194  -6.010   1.824  0.00  0.00    +0.107 A 
ATOM      5  C   UNL     1       0.601  -5.032   2.713  0.00  0.00    +0.063 A 
ATOM      6  C   UNL     1       0.371  -3.700   2.430  0.00  0.00    +0.149 A 
ENDROOT
BRANCH   6   7
ATOM      7  N   UNL     1       0.812  -2.654   3.379  0.00  0.00    +0.058 N 
ATOM      8  O   UNL     1       1.851  -2.785   3.983  0.00  0.00    -0.126 OA
ATOM      9  O   UNL     1       0.134  -1.668   3.550  0.00  0.00    -0.126 OA
ENDBRANCH   6   7
BRANCH   4  10
ATOM     10  S   UNL     1       0.497  -7.708   2.186  0.00  0.00    +0.056 S 
ATOM     11  O   UNL     1       0.627  -7.805   3.597  0.00  0.00    -0.153 OA
ATOM     12  O   UNL     1      -0.466  -8.456   1.456  0.00  0.00    -0.153 OA
BRANCH  10  13
ATOM     13  N   UNL     1       1.976  -8.088   1.546  0.00  0.00    -0.204 NA
ATOM     14  H   UNL     1       2.491  -7.412   1.078  0.00  0.00    +0.144 HD
ATOM     15  H   UNL     1       2.328  -8.987   1.640  0.00  0.00    +0.144 HD
ENDBRANCH  10  13
ENDBRANCH   4  10
BRANCH   1  16
ATOM     16  N   UNL     1      -0.520  -1.998   0.969  0.00  0.00    -0.344 N 
ATOM     17  H   UNL     1      -0.165  -1.308   1.550  0.00  0.00    +0.146 HD
BRANCH  16  18
ATOM     18  C   UNL     1      -1.308  -1.629  -0.210  0.00  0.00    +0.086 C 
BRANCH  18  19
ATOM     19  C   UNL     1      -1.268  -0.111  -0.395  0.00  0.00    -0.049 C 
BRANCH  19  20
ATOM     20  C   UNL     1      -2.279   0.298  -1.469  0.00  0.00    -0.023 C 
ATOM     21  C   UNL     1      -2.155   1.799  -1.740  0.00  0.00    +0.002 C 
ATOM     22  C   UNL     1      -3.165   2.208  -2.813  0.00  0.00    +0.000 C 
ATOM     23  C   UNL     1      -4.582   1.892  -2.328  0.00  0.00    +0.000 C 
ATOM     24  C   UNL     1      -4.705   0.391  -2.058  0.00  0.00    +0.000 C 
ATOM     25  C   UNL     1      -3.695  -0.018  -0.984  0.00  0.00    +0.002 C 
ENDBRANCH  19  20
BRANCH  19  27
ATOM     26  C   UNL     1       1.051  -0.100   0.218  0.00  0.00    -0.096 C 
ATOM     27  N   UNL     1       0.080   0.296  -0.811  0.00  0.00    +0.379 N 
ATOM     28  C   UNL     1       0.420  -0.360  -2.082  0.00  0.00    -0.096 C 
ATOM     29  H   UNL     1       0.107   1.297  -0.932  0.00  0.00    -0.082 HD
ENDBRANCH  19  27
ENDBRANCH  18  19
ENDBRANCH  16  18
ENDBRANCH   1  16
TORSDOF 8
