REMARK  Name = ZINC04729848
REMARK  10 active torsions:
REMARK  status: ('A' for Active; 'I' for Inactive)
REMARK    1  A    between atoms: C_1  and  C_2
REMARK    2  A    between atoms: C_2  and  C_3
REMARK    3  A    between atoms: C_3  and  C_4
REMARK    4  A    between atoms: C_4  and  C_26
REMARK    5  A    between atoms: C_5  and  C_19
REMARK    6  A    between atoms: C_8  and  C_10
REMARK    7  A    between atoms: C_13  and  O_16
REMARK    8  A    between atoms: O_16  and  C_17
REMARK    9  A    between atoms: C_17  and  C_18
REMARK   10  A    between atoms: C_24  and  O_25
REMARK                            x       y       z     vdW  Elec       q    Type
REMARK                         _______ _______ _______ _____ _____    ______ ____
ROOT
ATOM      1  C   UNL     1      -3.626  -1.135   0.002  0.00  0.00    +0.026 C 
ATOM      2  C   UNL     1      -4.944   0.852  -0.361  0.00  0.00    -0.028 C 
ATOM      3  C   UNL     1      -3.790   1.780   0.030  0.00  0.00    +0.044 C 
ATOM      4  C   UNL     1      -2.500   1.008   0.019  0.00  0.00    +0.040 C 
ATOM      5  N   UNL     1      -2.451  -0.272   0.007  0.00  0.00    -0.300 NA
ATOM      6  C   UNL     1      -3.400  -2.305   0.961  0.00  0.00    +0.014 C 
ATOM      7  N   UNL     1      -4.823  -0.392   0.424  0.00  0.00    +0.400 N 
ATOM      8  H   UNL     1      -4.746  -0.160   1.421  0.00  0.00    -0.081 HD
ATOM      9  H   UNL     1      -5.656  -0.974   0.272  0.00  0.00    -0.081 HD
ENDROOT
BRANCH   4  10
ATOM     10  C   UNL     1      -1.232   1.759   0.017  0.00  0.00    -0.004 A 
ATOM     11  C   UNL     1      -0.013   1.076   0.008  0.00  0.00    +0.013 A 
ATOM     12  C   UNL     1       1.170   1.782   0.001  0.00  0.00    +0.046 A 
ATOM     13  C   UNL     1       1.152   3.171   0.007  0.00  0.00    +0.121 A 
ATOM     14  C   UNL     1      -0.058   3.854   0.022  0.00  0.00    +0.046 A 
ATOM     15  C   UNL     1      -1.245   3.156   0.030  0.00  0.00    +0.013 A 
BRANCH  13  16
ATOM     16  O   UNL     1       2.321   3.863  -0.001  0.00  0.00    -0.492 OA
BRANCH  16  17
ATOM     17  C   UNL     1       2.230   5.289   0.006  0.00  0.00    +0.225 C 
ATOM     18  C   UNL     1       3.637   5.890  -0.005  0.00  0.00    +0.048 C 
ENDBRANCH  16  17
ENDBRANCH  13  16
ENDBRANCH   4  10
BRANCH   2  19
ATOM     19  C   UNL     1      -6.260   1.518  -0.050  0.00  0.00    -0.019 A 
ATOM     20  C   UNL     1      -6.899   1.262   1.148  0.00  0.00    +0.005 A 
ATOM     21  C   UNL     1      -8.105   1.873   1.433  0.00  0.00    +0.000 A 
ATOM     22  C   UNL     1      -8.676   2.742   0.522  0.00  0.00    +0.004 A 
ATOM     23  C   UNL     1      -8.042   3.001  -0.678  0.00  0.00    +0.045 A 
ATOM     24  C   UNL     1      -6.828   2.393  -0.964  0.00  0.00    +0.118 A 
BRANCH  24  25
ATOM     25  O   UNL     1      -6.198   2.652  -2.141  0.00  0.00    -0.507 OA
ATOM     26  H   UNL     1      -6.446   2.053  -2.859  0.00  0.00    +0.292 HD
ENDBRANCH  24  25
ENDBRANCH   2  19
BRANCH   1  27
ATOM     27  C   UNL     1      -3.841  -1.678  -1.412  0.00  0.00    +0.010 C 
BRANCH  27  29
ATOM     28  C   UNL     1      -2.867  -3.101  -3.220  0.00  0.00    +0.004 C 
ATOM     29  C   UNL     1      -2.653  -2.558  -1.806  0.00  0.00    -0.003 C 
ENDBRANCH  27  29
ENDBRANCH   1  27
TORSDOF 7
