REMARK  Name = ZINC34765209
REMARK  11 active torsions:
REMARK  status: ('A' for Active; 'I' for Inactive)
REMARK    1  A    between atoms: C_1  and  C_2
REMARK    2  A    between atoms: C_2  and  C_4
REMARK    3  A    between atoms: C_2  and  N_16
REMARK    4  A    between atoms: N_16  and  C_17
REMARK    5  A    between atoms: C_17  and  C_18
REMARK    6  A    between atoms: C_18  and  C_19
REMARK    7  A    between atoms: C_19  and  C_20
REMARK    8  A    between atoms: C_20  and  C_21
REMARK    9  A    between atoms: C_21  and  C_22
REMARK   10  A    between atoms: C_22  and  N_23
REMARK   11  A    between atoms: C_24  and  C_26
REMARK                            x       y       z     vdW  Elec       q    Type
REMARK                         _______ _______ _______ _____ _____    ______ ____
ROOT
ATOM      1  N   UNL     1       0.594  -0.995   1.275  0.00  0.00    -0.288 N 
ATOM      2  C   UNL     1       0.413  -0.260   2.390  0.00  0.00    +0.247 C 
ATOM      3  O   UNL     1       1.324  -0.123   3.183  0.00  0.00    -0.270 OA
ENDROOT
BRANCH   2   4
ATOM      4  C   UNL     1      -0.894   0.380   2.650  0.00  0.00    +0.037 A 
ATOM      5  C   UNL     1      -1.673   0.838   1.585  0.00  0.00    +0.016 A 
ATOM      6  C   UNL     1      -2.891   1.434   1.833  0.00  0.00    +0.039 A 
ATOM      7  C   UNL     1      -3.343   1.579   3.136  0.00  0.00    +0.123 A 
ATOM      8  C   UNL     1      -2.573   1.125   4.196  0.00  0.00    +0.039 A 
ATOM      9  C   UNL     1      -1.356   0.523   3.959  0.00  0.00    +0.016 A 
ATOM     10  F   UNL     1      -4.537   2.164   3.373  0.00  0.00    -0.205 F 
ENDBRANCH   2   4
BRANCH   1  12
ATOM     11  C   UNL     1       0.141   0.837  -0.281  0.00  0.00    +0.036 C 
ATOM     12  C   UNL     1      -0.110  -0.638   0.040  0.00  0.00    +0.139 C 
BRANCH  12  13
ATOM     13  C   UNL     1      -1.588  -0.869   0.220  0.00  0.00    +0.131 A 
ATOM     14  N   UNL     1      -1.997  -1.412   1.326  0.00  0.00    -0.232 NA
ATOM     15  H   UNL     1      -2.062  -0.087  -1.585  0.00  0.00    +0.170 HD
ATOM     16  C   UNL     1      -3.312  -1.650   1.558  0.00  0.00    +0.078 A 
ATOM     17  C   UNL     1      -3.752  -2.235   2.747  0.00  0.00    +0.028 A 
ATOM     18  C   UNL     1      -5.097  -2.458   2.940  0.00  0.00    +0.002 A 
ATOM     19  C   UNL     1      -6.023  -2.109   1.966  0.00  0.00    +0.001 A 
ATOM     20  C   UNL     1      -5.613  -1.532   0.784  0.00  0.00    +0.015 A 
ATOM     21  C   UNL     1      -4.257  -1.296   0.569  0.00  0.00    +0.065 A 
ATOM     22  C   UNL     1      -3.761  -0.682  -0.671  0.00  0.00    +0.259 A 
ATOM     23  O   UNL     1      -4.522  -0.354  -1.563  0.00  0.00    -0.267 OA
ATOM     24  N   UNL     1      -2.425  -0.492  -0.782  0.00  0.00    -0.309 N 
ENDBRANCH  12  13
ENDBRANCH   1  12
BRANCH   1  25
ATOM     25  C   UNL     1       1.494  -2.150   1.298  0.00  0.00    +0.109 C 
BRANCH  25  26
ATOM     26  C   UNL     1       2.908  -1.702   0.924  0.00  0.00    +0.019 C 
BRANCH  26  27
ATOM     27  C   UNL     1       3.848  -2.909   0.947  0.00  0.00    +0.001 C 
BRANCH  27  28
ATOM     28  C   UNL     1       5.263  -2.461   0.574  0.00  0.00    -0.002 C 
BRANCH  28  29
ATOM     29  C   UNL     1       6.203  -3.668   0.597  0.00  0.00    -0.020 C 
BRANCH  29  30
ATOM     30  C   UNL     1       7.617  -3.220   0.223  0.00  0.00    -0.086 C 
BRANCH  30  31
ATOM     31  N   UNL     1       8.520  -4.379   0.246  0.00  0.00    +0.378 N 
ATOM     32  H   UNL     1       9.453  -4.084  -0.001  0.00  0.00    -0.090 HD
ATOM     33  H   UNL     1       8.528  -4.781   1.171  0.00  0.00    -0.090 HD
ATOM     34  H   UNL     1       8.199  -5.068  -0.417  0.00  0.00    -0.090 HD
ENDBRANCH  30  31
ENDBRANCH  29  30
ENDBRANCH  28  29
ENDBRANCH  27  28
ENDBRANCH  26  27
ENDBRANCH  25  26
ENDBRANCH   1  25
TORSDOF 10
