REMARK  Name = ZINC03158353
REMARK  11 active torsions:
REMARK  status: ('A' for Active; 'I' for Inactive)
REMARK    1  A    between atoms: C_1  and  C_2
REMARK    2  A    between atoms: C_6  and  C_8
REMARK    3  A    between atoms: N_10  and  C_11
REMARK    4  A    between atoms: C_11  and  C_13
REMARK    5  A    between atoms: C_11  and  N_17
REMARK    6  A    between atoms: N_17  and  C_18
REMARK    7  A    between atoms: C_18  and  N_20
REMARK    8  A    between atoms: N_20  and  C_21
REMARK    9  A    between atoms: C_24  and  O_30
REMARK   10  A    between atoms: C_25  and  N_27
REMARK   11  A    between atoms: O_30  and  C_31
REMARK                            x       y       z     vdW  Elec       q    Type
REMARK                         _______ _______ _______ _____ _____    ______ ____
ROOT
ATOM      1  N   UNL     1      -4.786   3.800  -0.137  0.00  0.00    -0.305 N 
ATOM      2  H   UNL     1      -4.795   4.771  -0.132  0.00  0.00    +0.150 HD
ENDROOT
BRANCH   1   3
ATOM      3  C   UNL     1      -3.615   3.138  -0.049  0.00  0.00    +0.136 C 
ATOM      4  S   UNL     1      -3.599   1.426  -0.058  0.00  0.00    -0.019 S 
BRANCH   3   5
ATOM      5  N   UNL     1      -2.459   3.823   0.045  0.00  0.00    -0.297 N 
ATOM      6  H   UNL     1      -2.472   4.790   0.111  0.00  0.00    +0.154 HD
BRANCH   5   7
ATOM      7  C   UNL     1      -1.237   3.137   0.046  0.00  0.00    +0.035 A 
ATOM      8  C   UNL     1      -0.183   3.593  -0.736  0.00  0.00    +0.027 A 
ATOM      9  C   UNL     1       1.018   2.914  -0.738  0.00  0.00    +0.050 A 
ATOM     10  C   UNL     1       1.178   1.782   0.049  0.00  0.00    +0.150 A 
ATOM     11  C   UNL     1       0.128   1.329   0.834  0.00  0.00    +0.169 A 
ATOM     12  C   UNL     1      -1.077   2.005   0.833  0.00  0.00    +0.059 A 
BRANCH  11  13
ATOM     13  N   UNL     1       0.299   0.122   1.673  0.00  0.00    +0.060 N 
ATOM     14  O   UNL     1      -0.623  -0.276   2.363  0.00  0.00    -0.126 OA
ATOM     15  O   UNL     1       1.361  -0.474   1.674  0.00  0.00    -0.126 OA
ENDBRANCH  11  13
BRANCH  10  16
ATOM     16  O   UNL     1       2.364   1.117   0.050  0.00  0.00    -0.493 OA
ATOM     17  C   UNL     1       3.401   1.639  -0.782  0.00  0.00    +0.277 C 
ENDBRANCH  10  16
ENDBRANCH   5   7
ENDBRANCH   3   5
ENDBRANCH   1   3
BRANCH   1  18
ATOM     18  C   UNL     1      -6.043   3.056  -0.239  0.00  0.00    +0.211 C 
BRANCH  18  21
ATOM     19  C   UNL     1      -6.433   2.050  -2.424  0.00  0.00    +0.246 C 
ATOM     20  O   UNL     1      -5.924   1.027  -2.011  0.00  0.00    -0.270 OA
ATOM     21  N   UNL     1      -6.540   3.123  -1.615  0.00  0.00    -0.290 N 
ATOM     22  H   UNL     1      -6.947   3.940  -1.945  0.00  0.00    +0.151 HD
BRANCH  19  28
ATOM     23  C   UNL     1      -7.175  -0.117  -6.857  0.00  0.00    +0.044 C 
ATOM     24  C   UNL     1      -7.294   1.079  -5.948  0.00  0.00    -0.050 A 
ATOM     25  C   UNL     1      -7.873   2.246  -6.415  0.00  0.00    +0.003 A 
ATOM     26  C   UNL     1      -7.985   3.349  -5.588  0.00  0.00    +0.001 A 
ATOM     27  C   UNL     1      -7.520   3.292  -4.290  0.00  0.00    +0.013 A 
ATOM     28  C   UNL     1      -6.935   2.118  -3.813  0.00  0.00    +0.037 A 
ATOM     29  C   UNL     1      -6.820   1.011  -4.654  0.00  0.00    +0.016 A 
ENDBRANCH  19  28
ENDBRANCH  18  21
BRANCH  18  30
ATOM     30  C   UNL     1      -7.077   3.670   0.708  0.00  0.00    +0.225 C 
ATOM     31 CL   UNL     1      -7.360   5.392   0.254  0.00  0.00    -0.080 Cl
ATOM     32 CL   UNL     1      -8.625   2.753   0.582  0.00  0.00    -0.080 Cl
ATOM     33 CL   UNL     1      -6.466   3.587   2.402  0.00  0.00    -0.080 Cl
ENDBRANCH  18  30
ENDBRANCH   1  18
TORSDOF 9
