REMARK  Name = ZINC39627808
REMARK  9 active torsions:
REMARK  status: ('A' for Active; 'I' for Inactive)
REMARK    1  A    between atoms: C_1  and  C_2
REMARK    2  A    between atoms: C_2  and  C_3
REMARK    3  A    between atoms: C_3  and  C_4
REMARK    4  A    between atoms: C_4  and  C_6
REMARK    5  A    between atoms: C_4  and  C_7
REMARK    6  A    between atoms: C_11  and  C_20
REMARK    7  A    between atoms: N_22  and  C_23
REMARK    8  A    between atoms: C_23  and  C_24
REMARK    9  A    between atoms: C_24  and  N_25
REMARK                            x       y       z     vdW  Elec       q    Type
REMARK                         _______ _______ _______ _____ _____    ______ ____
ROOT
ATOM      1  C   UNL     1      -2.990  -2.822  -0.284  0.00  0.00    +0.218 C 
ATOM      2  O   UNL     1      -3.965  -2.133  -0.499  0.00  0.00    -0.275 OA
ATOM      3  N   UNL     1      -3.131  -4.150  -0.101  0.00  0.00    -0.300 N 
ATOM      4  C   UNL     1      -2.086  -5.130   0.278  0.00  0.00    +0.121 C 
ATOM      5  C   UNL     1      -2.790  -6.090   1.263  0.00  0.00    +0.100 C 
ATOM      6  C   UNL     1      -4.285  -5.975   0.921  0.00  0.00    -0.004 C 
ATOM      7  C   UNL     1      -4.367  -4.959  -0.227  0.00  0.00    +0.115 C 
ATOM      8  C   UNL     1      -4.830  -7.327   0.471  0.00  0.00    -0.010 C 
ATOM      9  C   UNL     1      -6.331  -7.201   0.193  0.00  0.00    -0.082 C 
ATOM     10  N   UNL     1      -7.020  -6.754   1.409  0.00  0.00    +0.379 N 
ATOM     11  C   UNL     1      -6.556  -5.412   1.783  0.00  0.00    -0.082 C 
ATOM     12  C   UNL     1      -5.065  -5.463   2.129  0.00  0.00    -0.010 C 
ATOM     13  H   UNL     1      -8.015  -6.730   1.241  0.00  0.00    -0.086 HD
ATOM     14  H   UNL     1      -6.824  -7.398   2.161  0.00  0.00    -0.086 HD
ENDROOT
BRANCH   5  15
ATOM     15  C   UNL     1      -2.309  -7.503   1.053  0.00  0.00    +0.218 C 
ATOM     16  O   UNL     1      -1.933  -7.859  -0.044  0.00  0.00    -0.275 OA
ATOM     17  N   UNL     1      -2.296  -8.370   2.084  0.00  0.00    -0.317 N 
ATOM     18  H   UNL     1      -2.596  -8.086   2.962  0.00  0.00    +0.149 HD
BRANCH  17  19
ATOM     19  C   UNL     1      -1.828  -9.744   1.881  0.00  0.00    +0.085 C 
BRANCH  19  20
ATOM     20  C   UNL     1      -1.915 -10.513   3.200  0.00  0.00    -0.060 C 
BRANCH  20  21
ATOM     21  N   UNL     1      -1.446 -11.890   2.996  0.00  0.00    +0.381 N 
ATOM     22  C   UNL     1      -2.353 -12.583   2.072  0.00  0.00    -0.079 C 
ATOM     23  C   UNL     1      -1.824 -13.991   1.793  0.00  0.00    -0.019 C 
ATOM     24  C   UNL     1      -1.741 -14.770   3.108  0.00  0.00    -0.004 C 
ATOM     25  C   UNL     1      -0.852 -14.001   4.090  0.00  0.00    -0.019 C 
ATOM     26  C   UNL     1      -1.416 -12.592   4.285  0.00  0.00    -0.079 C 
ATOM     27  H   UNL     1      -0.517 -11.873   2.602  0.00  0.00    -0.082 HD
ENDBRANCH  20  21
ENDBRANCH  19  20
ENDBRANCH  17  19
ENDBRANCH   5  15
BRANCH   1  28
ATOM     28  C   UNL     1      -1.622  -2.194  -0.221  0.00  0.00    +0.072 C 
ATOM     29  C   UNL     1      -1.330  -1.750   1.214  0.00  0.00    +0.017 C 
BRANCH  28  30
ATOM     30  C   UNL     1      -1.576  -0.979  -1.150  0.00  0.00    +0.012 C 
BRANCH  30  32
ATOM     31  C   UNL     1      -0.107   0.800  -2.110  0.00  0.00    +0.004 C 
ATOM     32  C   UNL     1      -0.153  -0.415  -1.182  0.00  0.00    -0.003 C 
ENDBRANCH  30  32
ENDBRANCH  28  30
ENDBRANCH   1  28
TORSDOF 7
