REMARK  Name = ZINC43098215
REMARK  10 active torsions:
REMARK  status: ('A' for Active; 'I' for Inactive)
REMARK    1  A    between atoms: C_1  and  C_2
REMARK    2  A    between atoms: C_2  and  C_4
REMARK    3  A    between atoms: C_2  and  N_23
REMARK    4  A    between atoms: C_4  and  C_6
REMARK    5  A    between atoms: C_4  and  N_14
REMARK    6  A    between atoms: C_11  and  O_12
REMARK    7  A    between atoms: O_12  and  C_13
REMARK    8  A    between atoms: N_14  and  C_15
REMARK    9  A    between atoms: N_14  and  C_16
REMARK   10  A    between atoms: C_16  and  C_17
REMARK                            x       y       z     vdW  Elec       q    Type
REMARK                         _______ _______ _______ _____ _____    ______ ____
ROOT
ATOM      1  C   UNL     1       0.459   0.045   1.530  0.00  0.00    +0.076 C 
ENDROOT
BRANCH   1   2
ATOM      2  C   UNL     1       1.905   0.222   1.913  0.00  0.00    +0.010 A 
ATOM      3  C   UNL     1       2.809  -0.799   1.689  0.00  0.00    +0.009 A 
ATOM      4  C   UNL     1       4.137  -0.638   2.040  0.00  0.00    +0.001 A 
ATOM      5  C   UNL     1       4.563   0.545   2.616  0.00  0.00    +0.004 A 
ATOM      6  C   UNL     1       3.664   1.569   2.841  0.00  0.00    +0.046 A 
ATOM      7  C   UNL     1       2.332   1.411   2.485  0.00  0.00    +0.125 A 
BRANCH   7   8
ATOM      8  O   UNL     1       1.446   2.419   2.700  0.00  0.00    -0.495 OA
ATOM      9  C   UNL     1       1.956   3.615   3.293  0.00  0.00    +0.277 C 
ENDBRANCH   7   8
ENDBRANCH   1   2
BRANCH   1  11
ATOM     10  C   UNL     1       0.521   2.200   0.267  0.00  0.00    -0.012 C 
ATOM     11  C   UNL     1       0.205   0.706   0.174  0.00  0.00    -0.056 C 
BRANCH  11  12
ATOM     12  N   UNL     1      -1.203   0.525  -0.204  0.00  0.00    +0.381 N 
ATOM     13  H   UNL     1      -1.410   1.095  -1.010  0.00  0.00    -0.090 HD
ATOM     14  H   UNL     1      -1.369  -0.445  -0.426  0.00  0.00    -0.090 HD
ATOM     15  H   UNL     1      -1.795   0.801   0.565  0.00  0.00    -0.090 HD
ENDBRANCH  11  12
ENDBRANCH   1  11
BRANCH   1  16
ATOM     16  N   UNL     1       0.146  -1.387   1.443  0.00  0.00    -0.295 NA
ATOM     17  C   UNL     1       0.563  -1.939   0.147  0.00  0.00    +0.105 C 
BRANCH  16  18
ATOM     18  C   UNL     1      -1.282  -1.631   1.684  0.00  0.00    +0.127 C 
BRANCH  18  19
ATOM     19  C   UNL     1      -1.498  -3.089   1.997  0.00  0.00    +0.005 A 
ATOM     20  C   UNL     1      -1.487  -3.715   3.199  0.00  0.00    +0.027 A 
ATOM     21  C   UNL     1      -1.712  -5.078   3.248  0.00  0.00    +0.025 A 
ATOM     22  C   UNL     1      -1.937  -5.748   2.091  0.00  0.00    +0.060 A 
ATOM     23  S   UNL     1      -1.842  -4.439   0.881  0.00  0.00    -0.099 S 
ATOM     24 BR   UNL     1      -1.705  -5.994   4.902  0.00  0.00    -0.050 Br
ENDBRANCH  18  19
ENDBRANCH  16  18
ENDBRANCH   1  16
TORSDOF 7
