REMARK  Name = ZINC09367281
REMARK  5 active torsions:
REMARK  status: ('A' for Active; 'I' for Inactive)
REMARK    1  A    between atoms: C_1  and  C_2
REMARK    2  A    between atoms: C_2  and  C_4
REMARK    3  A    between atoms: C_2  and  S_10
REMARK    4  A    between atoms: S_10  and  C_11
REMARK    5  A    between atoms: C_15  and  C_17
REMARK                            x       y       z     vdW  Elec       q    Type
REMARK                         _______ _______ _______ _____ _____    ______ ____
ROOT
ATOM      1  C   UNL     1      -0.616   3.823   1.333  0.00  0.00    +0.168 A 
ATOM      2  N   UNL     1      -1.057   4.775   2.201  0.00  0.00    -0.339 N 
ATOM      3  H   UNL     1      -1.577   4.616   3.041  0.00  0.00    +0.167 HD
ATOM      4  C   UNL     1      -0.657   5.994   1.710  0.00  0.00    +0.113 A 
ATOM      5  C   UNL     1       0.017   5.753   0.558  0.00  0.00    +0.090 A 
ATOM      6  N   UNL     1       0.030   4.411   0.355  0.00  0.00    -0.222 NA
ENDROOT
BRANCH   5   7
ATOM      7  C   UNL     1       0.635   6.774  -0.322  0.00  0.00    +0.002 A 
ATOM      8  C   UNL     1       0.546   8.126   0.006  0.00  0.00    +0.011 A 
ATOM      9  C   UNL     1       1.127   9.072  -0.813  0.00  0.00    +0.016 A 
ATOM     10  C   UNL     1       1.788   8.682  -1.965  0.00  0.00    +0.018 A 
ATOM     11  C   UNL     1       1.875   7.341  -2.298  0.00  0.00    +0.016 A 
ATOM     12  C   UNL     1       1.301   6.387  -1.483  0.00  0.00    +0.011 A 
ATOM     13 BR   UNL     1       2.576   9.984  -3.087  0.00  0.00    -0.050 Br
ENDBRANCH   5   7
BRANCH   1  14
ATOM     14  S   UNL     1      -0.866   2.087   1.500  0.00  0.00    -0.075 S 
BRANCH  14  16
ATOM     15  C   UNL     1      -0.758   2.010  -1.229  0.00  0.00    +0.029 C 
ATOM     16  C   UNL     1      -0.018   1.503   0.010  0.00  0.00    +0.137 C 
BRANCH  16  17
ATOM     17  C   UNL     1       0.002  -0.004   0.002  0.00  0.00    +0.233 C 
ATOM     18  O   UNL     1      -0.844  -0.625   0.609  0.00  0.00    -0.274 OA
ATOM     19  N   UNL     1       0.961  -0.661  -0.680  0.00  0.00    -0.239 N 
ATOM     20  C   UNL     1       0.979  -2.009  -0.688  0.00  0.00    +0.303 C 
ATOM     21  O   UNL     1       0.131  -2.631  -0.079  0.00  0.00    -0.253 OA
ATOM     22  N   UNL     1       1.938  -2.666  -1.370  0.00  0.00    -0.313 N 
ATOM     23  H   UNL     1       1.638  -0.164  -1.166  0.00  0.00    +0.159 HD
ATOM     24  H   UNL     1       2.615  -2.169  -1.855  0.00  0.00    +0.146 HD
ATOM     25  H   UNL     1       1.951  -3.636  -1.375  0.00  0.00    +0.146 HD
ENDBRANCH  16  17
ENDBRANCH  14  16
ENDBRANCH   1  14
TORSDOF 4
