REMARK  Name = ZINC45064785
REMARK  11 active torsions:
REMARK  status: ('A' for Active; 'I' for Inactive)
REMARK    1  A    between atoms: C_1  and  C_2
REMARK    2  A    between atoms: C_2  and  C_4
REMARK    3  A    between atoms: C_2  and  N_16
REMARK    4  A    between atoms: N_6  and  C_7
REMARK    5  A    between atoms: C_10  and  N_14
REMARK    6  A    between atoms: N_16  and  C_17
REMARK    7  A    between atoms: N_16  and  C_18
REMARK    8  A    between atoms: C_18  and  C_19
REMARK    9  A    between atoms: C_19  and  C_20
REMARK   10  A    between atoms: C_19  and  C_21
REMARK   11  A    between atoms: C_19  and  C_22
REMARK                            x       y       z     vdW  Elec       q    Type
REMARK                         _______ _______ _______ _____ _____    ______ ____
ROOT
ATOM      1  C   UNL     1       0.095   1.292  -0.525  0.00  0.00    +0.203 C 
ATOM      2  O   UNL     1      -0.863   0.790   0.025  0.00  0.00    -0.277 OA
ATOM      3  N   UNL     1      -0.011   2.518  -1.075  0.00  0.00    -0.284 N 
ATOM      4  H   UNL     1       0.749   2.912  -1.533  0.00  0.00    +0.155 HD
ENDROOT
BRANCH   3   5
ATOM      5  C   UNL     1      -1.219   3.225  -0.987  0.00  0.00    +0.070 A 
ATOM      6  C   UNL     1      -1.913   3.266   0.216  0.00  0.00    +0.065 A 
ATOM      7  C   UNL     1      -3.104   3.962   0.303  0.00  0.00    +0.044 A 
ATOM      8  C   UNL     1      -3.606   4.621  -0.811  0.00  0.00    +0.027 A 
ATOM      9  C   UNL     1      -2.913   4.580  -2.014  0.00  0.00    +0.044 A 
ATOM     10  C   UNL     1      -1.719   3.889  -2.100  0.00  0.00    +0.065 A 
ATOM     11 CL   UNL     1      -0.848   3.844  -3.601  0.00  0.00    -0.082 Cl
ATOM     12 CL   UNL     1      -1.286   2.442   1.609  0.00  0.00    -0.082 Cl
BRANCH   8  13
ATOM     13  N   UNL     1      -4.811   5.326  -0.723  0.00  0.00    -0.358 N 
ATOM     14  H   UNL     1      -5.296   5.355   0.117  0.00  0.00    +0.142 HD
ATOM     15  H   UNL     1      -5.162   5.786  -1.501  0.00  0.00    +0.142 HD
ENDBRANCH   8  13
ENDBRANCH   3   5
BRANCH   1  17
ATOM     16  C   UNL     1       2.432   1.239   0.300  0.00  0.00    -0.004 C 
ATOM     17  C   UNL     1       1.402   0.546  -0.593  0.00  0.00    +0.016 C 
BRANCH  17  18
ATOM     18  N   UNL     1       1.202  -0.834  -0.132  0.00  0.00    +0.386 N 
ATOM     19  C   UNL     1       0.299  -1.534  -1.055  0.00  0.00    -0.095 C 
ATOM     20  H   UNL     1       0.797  -0.825   0.792  0.00  0.00    -0.081 HD
BRANCH  18  21
ATOM     21  C   UNL     1       2.496  -1.529  -0.091  0.00  0.00    -0.072 C 
BRANCH  21  22
ATOM     22  C   UNL     1       2.316  -2.906   0.551  0.00  0.00    -0.052 C 
ATOM     23  C   UNL     1       1.811  -3.897  -0.499  0.00  0.00    +0.009 C 
ATOM     24  C   UNL     1       3.657  -3.389   1.106  0.00  0.00    +0.009 C 
ATOM     25  C   UNL     1       1.299  -2.808   1.690  0.00  0.00    +0.009 C 
ENDBRANCH  21  22
ENDBRANCH  18  21
ENDBRANCH  17  18
ENDBRANCH   1  17
TORSDOF 6
