REMARK  Name = ZINC22792067
REMARK  8 active torsions:
REMARK  status: ('A' for Active; 'I' for Inactive)
REMARK    1  A    between atoms: C_4  and  O_7
REMARK    2  A    between atoms: O_7  and  C_8
REMARK    3  A    between atoms: C_8  and  C_9
REMARK    4  A    between atoms: C_9  and  N_10
REMARK    5  A    between atoms: N_13  and  C_16
REMARK    6  A    between atoms: C_16  and  C_17
REMARK    7  A    between atoms: N_19  and  C_20
REMARK    8  A    between atoms: C_21  and  C_28
REMARK                            x       y       z     vdW  Elec       q    Type
REMARK                         _______ _______ _______ _____ _____    ______ ____
ROOT
ATOM      1  C   UNL     1       0.451   1.520   0.430  0.00  0.00    +0.019 C 
ENDROOT
BRANCH   1   5
ATOM      2  N   UNL     1       1.338  -2.572  -0.130  0.00  0.00    -0.303 NA
ATOM      3  C   UNL     1       0.393  -1.939  -1.060  0.00  0.00    +0.066 C 
ATOM      4  C   UNL     1       0.576  -0.420  -1.014  0.00  0.00    -0.063 C 
ATOM      5  N   UNL     1       0.358   0.056   0.359  0.00  0.00    +0.387 N 
ATOM      6  C   UNL     1       1.303  -0.578   1.290  0.00  0.00    -0.063 C 
ATOM      7  C   UNL     1       1.119  -2.097   1.243  0.00  0.00    +0.066 C 
ATOM      8  H   UNL     1      -0.660  -0.232   0.661  0.00  0.00    -0.081 HD
BRANCH   2   9
ATOM      9  C   UNL     1       1.245  -4.037  -0.201  0.00  0.00    +0.125 C 
BRANCH   9  10
ATOM     10  C   UNL     1       1.934  -4.530  -1.474  0.00  0.00    +0.244 C 
BRANCH  10  11
ATOM     11  O   UNL     1       3.331  -4.236  -1.404  0.00  0.00    -0.491 OA
BRANCH  11  15
ATOM     12  C   UNL     1       5.649  -5.376  -4.621  0.00  0.00    +0.000 A 
ATOM     13  C   UNL     1       6.232  -4.740  -3.541  0.00  0.00    +0.004 A 
ATOM     14  C   UNL     1       5.458  -4.357  -2.462  0.00  0.00    +0.045 A 
ATOM     15  C   UNL     1       4.094  -4.612  -2.464  0.00  0.00    +0.121 A 
ATOM     16  C   UNL     1       3.512  -5.255  -3.546  0.00  0.00    +0.045 A 
ATOM     17  C   UNL     1       4.290  -5.631  -4.625  0.00  0.00    +0.004 A 
ENDBRANCH  11  15
ENDBRANCH  10  11
ENDBRANCH   9  10
ENDBRANCH   2   9
ENDBRANCH   1   5
BRANCH   1  18
ATOM     18  C   UNL     1      -0.016   1.988   1.785  0.00  0.00    +0.201 C 
ATOM     19  O   UNL     1      -0.390   1.181   2.610  0.00  0.00    -0.278 OA
ATOM     20  N   UNL     1      -0.019   3.303   2.079  0.00  0.00    -0.281 N 
ATOM     21  H   UNL     1       0.320   4.035   1.331  0.00  0.00    +0.155 HD
BRANCH  20  22
ATOM     22  C   UNL     1      -0.448   3.734   3.325  0.00  0.00    +0.084 A 
ATOM     23  C   UNL     1      -0.518   5.028   3.812  0.00  0.00    +0.068 A 
ATOM     24  C   UNL     1      -1.017   5.214   5.174  0.00  0.00    -0.023 A 
ATOM     25  C   UNL     1      -1.350   4.082   5.819  0.00  0.00    -0.004 A 
ATOM     26  S   UNL     1      -1.021   2.783   4.654  0.00  0.00    -0.077 S 
ATOM     27  C   UNL     1      -1.851   4.353   7.212  0.00  0.00    +0.043 C 
ATOM     28  C   UNL     1      -2.198   5.858   7.215  0.00  0.00    +0.010 C 
ATOM     29  C   UNL     1      -1.267   6.397   6.110  0.00  0.00    +0.037 C 
BRANCH  23  30
ATOM     30  C   UNL     1      -0.110   6.171   2.989  0.00  0.00    +0.244 C 
ATOM     31  O   UNL     1      -0.925   6.732   2.279  0.00  0.00    -0.270 OA
ATOM     32  N   UNL     1       1.167   6.602   3.019  0.00  0.00    -0.325 N 
ATOM     33  H   UNL     1       1.472   7.459   2.402  0.00  0.00    +0.145 HD
ATOM     34  H   UNL     1       1.903   6.095   3.660  0.00  0.00    +0.145 HD
ENDBRANCH  23  30
ENDBRANCH  20  22
ENDBRANCH   1  18
TORSDOF 8
