REMARK  Name = ZINC08635596
REMARK  10 active torsions:
REMARK  status: ('A' for Active; 'I' for Inactive)
REMARK    1  A    between atoms: C_1  and  C_2
REMARK    2  A    between atoms: C_7  and  C_8
REMARK    3  A    between atoms: C_7  and  N_68
REMARK    4  A    between atoms: C_16  and  C_18
REMARK    5  A    between atoms: C_18  and  N_19
REMARK    6  A    between atoms: N_19  and  C_20
REMARK    7  A    between atoms: C_20  and  N_22
REMARK    8  A    between atoms: N_22  and  C_23
REMARK    9  A    between atoms: C_23  and  C_24
REMARK   10  A    between atoms: C_24  and  N_72
REMARK                            x       y       z     vdW  Elec       q    Type
REMARK                         _______ _______ _______ _____ _____    ______ ____
ROOT
ATOM      1  C   UNL     1      -5.901   1.205  -2.548  0.00  0.00    -0.041 C 
ATOM      2  C   UNL     1      -4.567   0.494  -2.301  0.00  0.00    -0.076 C 
ATOM      3  C   UNL     1      -5.670  -1.261  -1.050  0.00  0.00    -0.078 C 
ATOM      4  C   UNL     1      -7.035  -0.601  -1.260  0.00  0.00    -0.015 C 
ATOM      5  C   UNL     1      -6.841   0.917  -1.371  0.00  0.00    -0.015 C 
ATOM      6  C   UNL     1      -6.179   1.420  -0.082  0.00  0.00    -0.010 C 
ATOM      7  C   UNL     1      -4.837   0.704   0.097  0.00  0.00    -0.051 C 
ATOM      8  N   UNL     1      -4.602  -0.239  -1.018  0.00  0.00    +0.383 N 
ATOM      9  H   UNL     1      -3.698  -0.705  -0.875  0.00  0.00    -0.081 HD
ENDROOT
BRANCH   1  10
ATOM     10  C   UNL     1      -5.668   2.713  -2.661  0.00  0.00    -0.077 C 
BRANCH  10  17
ATOM     11  C   UNL     1      -3.078   4.226  -7.526  0.00  0.00    +0.007 C 
ATOM     12  C   UNL     1      -4.118   4.033  -6.421  0.00  0.00    -0.018 C 
ATOM     13  C   UNL     1      -3.617   4.684  -5.128  0.00  0.00    -0.016 C 
ATOM     14  C   UNL     1      -4.633   4.435  -4.011  0.00  0.00    -0.079 C 
ATOM     15  C   UNL     1      -5.330   2.350  -5.031  0.00  0.00    -0.079 C 
ATOM     16  C   UNL     1      -4.335   2.537  -6.178  0.00  0.00    -0.016 C 
ATOM     17  N   UNL     1      -4.779   2.978  -3.811  0.00  0.00    +0.380 N 
ATOM     18  H   UNL     1      -3.855   2.574  -3.618  0.00  0.00    -0.082 HD
ENDBRANCH  10  17
ENDBRANCH   1  10
BRANCH   7  19
ATOM     19  C   UNL     1      -3.707   1.736   0.121  0.00  0.00    +0.088 C 
BRANCH  19  20
ATOM     20  N   UNL     1      -2.416   1.045   0.172  0.00  0.00    -0.328 N 
ATOM     21  H   UNL     1      -2.385   0.076   0.185  0.00  0.00    +0.148 HD
BRANCH  20  22
ATOM     22  C   UNL     1      -1.272   1.757   0.201  0.00  0.00    +0.130 C 
ATOM     23  S   UNL     1      -1.327   3.468   0.179  0.00  0.00    -0.019 S 
BRANCH  22  24
ATOM     24  N   UNL     1      -0.084   1.121   0.248  0.00  0.00    -0.328 N 
ATOM     25  H   UNL     1      -0.053   0.152   0.261  0.00  0.00    +0.148 HD
BRANCH  24  26
ATOM     26  C   UNL     1       1.160   1.895   0.274  0.00  0.00    +0.084 C 
BRANCH  26  27
ATOM     27  C   UNL     1       2.353   0.939   0.319  0.00  0.00    -0.060 C 
BRANCH  27  33
ATOM     28  C   UNL     1       3.793   2.445  -0.917  0.00  0.00    -0.050 C 
ATOM     29  C   UNL     1       5.070   3.284  -0.825  0.00  0.00    +0.141 C 
ATOM     30  O   UNL     1       6.176   2.429  -0.520  0.00  0.00    -0.383 OA
ATOM     31  C   UNL     1       6.022   1.703   0.702  0.00  0.00    +0.141 C 
ATOM     32  C   UNL     1       4.755   0.848   0.626  0.00  0.00    -0.050 C 
ATOM     33  N   UNL     1       3.600   1.733   0.364  0.00  0.00    +0.384 N 
ATOM     34  H   UNL     1       3.529   2.423   1.121  0.00  0.00    -0.082 HD
ENDBRANCH  27  33
ENDBRANCH  26  27
ENDBRANCH  24  26
ENDBRANCH  22  24
ENDBRANCH  20  22
ENDBRANCH  19  20
ENDBRANCH   7  19
TORSDOF 9
