REMARK  Name = ZINC19793049
REMARK  10 active torsions:
REMARK  status: ('A' for Active; 'I' for Inactive)
REMARK    1  A    between atoms: C_1  and  C_2
REMARK    2  A    between atoms: C_2  and  C_3
REMARK    3  A    between atoms: C_6  and  O_9
REMARK    4  A    between atoms: O_9  and  C_10
REMARK    5  A    between atoms: C_16  and  O_34
REMARK    6  A    between atoms: C_17  and  C_25
REMARK    7  A    between atoms: C_20  and  C_21
REMARK    8  A    between atoms: C_25  and  N_26
REMARK    9  A    between atoms: N_29  and  C_32
REMARK   10  A    between atoms: C_32  and  C_33
REMARK                            x       y       z     vdW  Elec       q    Type
REMARK                         _______ _______ _______ _____ _____    ______ ____
ROOT
ATOM      1  C   UNL     1      -5.812  -2.134  -1.201  0.00  0.00    +0.222 A 
ATOM      2  C   UNL     1      -7.154  -2.586  -1.348  0.00  0.00    +0.235 A 
ATOM      3  O   UNL     1      -7.884  -2.734  -0.383  0.00  0.00    -0.283 OA
ATOM      4  C   UNL     1      -7.624  -2.866  -2.716  0.00  0.00    +0.068 A 
ATOM      5  C   UNL     1      -8.924  -3.313  -2.961  0.00  0.00    +0.019 A 
ATOM      6  C   UNL     1      -9.323  -3.562  -4.243  0.00  0.00    +0.046 A 
ATOM      7  C   UNL     1      -8.442  -3.373  -5.306  0.00  0.00    +0.125 A 
ATOM      8  C   UNL     1      -7.149  -2.931  -5.079  0.00  0.00    +0.051 A 
ATOM      9  C   UNL     1      -6.728  -2.673  -3.782  0.00  0.00    +0.147 A 
ATOM     10  O   UNL     1      -5.475  -2.241  -3.533  0.00  0.00    -0.447 OA
ATOM     11  C   UNL     1      -5.039  -1.977  -2.294  0.00  0.00    +0.254 A 
ENDROOT
BRANCH  11  12
ATOM     12  C   UNL     1      -3.624  -1.492  -2.115  0.00  0.00    +0.454 C 
ATOM     13  F   UNL     1      -3.316  -1.448  -0.751  0.00  0.00    -0.163 F 
ATOM     14  F   UNL     1      -2.745  -2.366  -2.763  0.00  0.00    -0.163 F 
ATOM     15  F   UNL     1      -3.497  -0.211  -2.663  0.00  0.00    -0.163 F 
ENDBRANCH  11  12
BRANCH   7  16
ATOM     16  O   UNL     1      -8.854  -3.625  -6.574  0.00  0.00    -0.506 OA
ATOM     17  H   UNL     1      -9.246  -2.861  -7.019  0.00  0.00    +0.292 HD
ENDBRANCH   7  16
BRANCH   1  18
ATOM     18  O   UNL     1      -5.314  -1.856   0.035  0.00  0.00    -0.448 OA
BRANCH  18  22
ATOM     19  C   UNL     1      -4.849  -4.985   2.683  0.00  0.00    -0.047 A 
ATOM     20  C   UNL     1      -4.613  -3.687   3.100  0.00  0.00    +0.007 A 
ATOM     21  C   UNL     1      -4.768  -2.638   2.215  0.00  0.00    +0.046 A 
ATOM     22  C   UNL     1      -5.161  -2.886   0.907  0.00  0.00    +0.129 A 
ATOM     23  C   UNL     1      -5.396  -4.189   0.492  0.00  0.00    +0.046 A 
ATOM     24  C   UNL     1      -5.235  -5.236   1.380  0.00  0.00    +0.007 A 
BRANCH  19  26
ATOM     25  C   UNL     1      -3.236  -6.635   3.592  0.00  0.00    +0.009 C 
ATOM     26  C   UNL     1      -4.679  -6.128   3.651  0.00  0.00    +0.032 C 
ENDBRANCH  19  26
ENDBRANCH  18  22
ENDBRANCH   1  18
BRANCH   8  27
ATOM     27  C   UNL     1      -6.205  -2.731  -6.236  0.00  0.00    +0.126 C 
BRANCH  27  28
ATOM     28  N   UNL     1      -6.325  -1.354  -6.734  0.00  0.00    -0.301 NA
ATOM     29  C   UNL     1      -7.649  -1.122  -7.327  0.00  0.00    +0.066 C 
ATOM     30  C   UNL     1      -7.755   0.336  -7.778  0.00  0.00    -0.063 C 
ATOM     31  N   UNL     1      -6.702   0.622  -8.762  0.00  0.00    +0.381 N 
ATOM     32  C   UNL     1      -5.385   0.410  -8.147  0.00  0.00    -0.063 C 
ATOM     33  C   UNL     1      -5.260  -1.048  -7.699  0.00  0.00    +0.066 C 
ATOM     34  H   UNL     1      -6.806   0.006  -9.554  0.00  0.00    -0.082 HD
BRANCH  31  35
ATOM     35  C   UNL     1      -6.815   2.017  -9.208  0.00  0.00    -0.082 C 
ATOM     36  C   UNL     1      -5.800   2.280 -10.322  0.00  0.00    -0.017 C 
ENDBRANCH  31  35
ENDBRANCH  27  28
ENDBRANCH   8  27
TORSDOF 8
