REMARK  Name = ZINC39627263
REMARK  9 active torsions:
REMARK  status: ('A' for Active; 'I' for Inactive)
REMARK    1  A    between atoms: C_1  and  N_2
REMARK    2  A    between atoms: N_2  and  C_3
REMARK    3  A    between atoms: N_2  and  C_4
REMARK    4  A    between atoms: C_4  and  C_5
REMARK    5  A    between atoms: C_5  and  C_6
REMARK    6  A    between atoms: C_6  and  N_7
REMARK    7  A    between atoms: C_8  and  C_10
REMARK    8  A    between atoms: C_21  and  C_23
REMARK    9  A    between atoms: C_26  and  C_29
REMARK                            x       y       z     vdW  Elec       q    Type
REMARK                         _______ _______ _______ _____ _____    ______ ____
ROOT
ATOM      1  C   UNL     1      -6.241   0.086  -4.629  0.00  0.00    +0.100 C 
ATOM      2  C   UNL     1      -5.325  -0.686  -5.605  0.00  0.00    +0.121 C 
ATOM      3  N   UNL     1      -6.027  -1.970  -5.840  0.00  0.00    -0.296 N 
ATOM      4  C   UNL     1      -7.459  -1.597  -5.925  0.00  0.00    +0.115 C 
ATOM      5  C   UNL     1      -7.641  -0.512  -4.845  0.00  0.00    -0.004 C 
ATOM      6  C   UNL     1      -8.606   0.564  -5.334  0.00  0.00    -0.010 C 
ATOM      7  C   UNL     1     -10.004  -0.042  -5.485  0.00  0.00    -0.082 C 
ATOM      8  N   UNL     1     -10.450  -0.576  -4.192  0.00  0.00    +0.379 N 
ATOM      9  C   UNL     1      -9.570  -1.674  -3.774  0.00  0.00    -0.082 C 
ATOM     10  C   UNL     1      -8.153  -1.138  -3.550  0.00  0.00    -0.010 C 
ATOM     11  C   UNL     1      -5.485  -3.199  -5.953  0.00  0.00    +0.247 C 
ATOM     12  O   UNL     1      -4.301  -3.364  -5.736  0.00  0.00    -0.270 OA
ATOM     13  H   UNL     1     -10.424   0.157  -3.499  0.00  0.00    -0.086 HD
ATOM     14  H   UNL     1     -11.395  -0.919  -4.280  0.00  0.00    -0.086 HD
ENDROOT
BRANCH  11  15
ATOM     15  C   UNL     1      -6.332  -4.347  -6.342  0.00  0.00    +0.037 A 
ATOM     16  C   UNL     1      -7.543  -4.133  -7.002  0.00  0.00    +0.013 A 
ATOM     17  C   UNL     1      -8.328  -5.209  -7.362  0.00  0.00    +0.013 A 
ATOM     18  C   UNL     1      -7.917  -6.498  -7.071  0.00  0.00    +0.055 A 
ATOM     19  C   UNL     1      -6.718  -6.717  -6.416  0.00  0.00    +0.013 A 
ATOM     20  C   UNL     1      -5.920  -5.650  -6.056  0.00  0.00    +0.013 A 
BRANCH  18  21
ATOM     21  C   UNL     1      -8.780  -7.668  -7.467  0.00  0.00    +0.417 C 
ATOM     22  F   UNL     1      -8.425  -8.095  -8.751  0.00  0.00    -0.166 F 
ATOM     23  F   UNL     1      -8.591  -8.715  -6.558  0.00  0.00    -0.166 F 
ATOM     24  F   UNL     1     -10.124  -7.280  -7.459  0.00  0.00    -0.166 F 
ENDBRANCH  18  21
ENDBRANCH  11  15
BRANCH   1  26
ATOM     25  N   UNL     1      -6.105   0.775  -2.257  0.00  0.00    -0.315 N 
ATOM     26  C   UNL     1      -5.792  -0.129  -3.207  0.00  0.00    +0.218 C 
ATOM     27  O   UNL     1      -5.148  -1.115  -2.917  0.00  0.00    -0.275 OA
ATOM     28  H   UNL     1      -6.619   1.563  -2.489  0.00  0.00    +0.149 HD
BRANCH  25  29
ATOM     29  C   UNL     1      -5.668   0.566  -0.875  0.00  0.00    +0.102 C 
BRANCH  29  30
ATOM     30  C   UNL     1      -6.151   1.729  -0.006  0.00  0.00    +0.000 C 
BRANCH  30  31
ATOM     31  C   UNL     1      -5.695   1.510   1.438  0.00  0.00    -0.078 C 
BRANCH  31  33
ATOM     32  C   UNL     1      -7.627   2.623   2.324  0.00  0.00    -0.097 C 
ATOM     33  N   UNL     1      -6.159   2.627   2.272  0.00  0.00    +0.376 N 
ATOM     34  C   UNL     1      -5.621   2.479   3.631  0.00  0.00    -0.097 C 
ATOM     35  H   UNL     1      -5.839   3.498   1.877  0.00  0.00    -0.083 HD
ENDBRANCH  31  33
ENDBRANCH  30  31
ENDBRANCH  29  30
ENDBRANCH  25  29
ENDBRANCH   1  26
TORSDOF 7
