REMARK  Name = ZINC67297889
REMARK  8 active torsions:
REMARK  status: ('A' for Active; 'I' for Inactive)
REMARK    1  A    between atoms: C_1  and  C_2
REMARK    2  A    between atoms: C_2  and  O_3
REMARK    3  A    between atoms: O_3  and  C_4
REMARK    4  A    between atoms: C_4  and  C_6
REMARK    5  A    between atoms: C_10  and  N_12
REMARK    6  A    between atoms: C_14  and  C_24
REMARK    7  A    between atoms: C_19  and  O_23
REMARK    8  A    between atoms: C_31  and  C_33
REMARK                            x       y       z     vdW  Elec       q    Type
REMARK                         _______ _______ _______ _____ _____    ______ ____
ROOT
ATOM      1  N   UNL     1      -3.838  -6.216   0.414  0.00  0.00    -0.325 N 
ATOM      2  C   UNL     1      -5.027  -6.364   0.958  0.00  0.00    +0.212 A 
ATOM      3  C   UNL     1      -5.844  -7.564   0.691  0.00  0.00    +0.098 A 
ATOM      4  C   UNL     1      -6.781  -7.924   1.649  0.00  0.00    +0.030 A 
ATOM      5  C   UNL     1      -6.912  -7.104   2.798  0.00  0.00    +0.018 A 
ATOM      6  C   UNL     1      -7.693  -7.525   3.885  0.00  0.00    +0.015 A 
ATOM      7  C   UNL     1      -7.779  -6.747   5.002  0.00  0.00    +0.046 A 
ATOM      8  C   UNL     1      -7.102  -5.531   5.071  0.00  0.00    +0.120 A 
ATOM      9  C   UNL     1      -6.341  -5.089   3.999  0.00  0.00    +0.092 A 
ATOM     10  C   UNL     1      -6.250  -5.862   2.854  0.00  0.00    +0.141 A 
ATOM     11  O   UNL     1      -5.542  -5.422   1.788  0.00  0.00    -0.438 OA
ATOM     12  H   UNL     1      -3.438  -6.945  -0.086  0.00  0.00    +0.169 HD
ENDROOT
BRANCH   3  13
ATOM     13  C   UNL     1      -5.673  -8.347  -0.543  0.00  0.00    +0.254 C 
ATOM     14  O   UNL     1      -6.266  -9.399  -0.683  0.00  0.00    -0.270 OA
ATOM     15  N   UNL     1      -4.859  -7.897  -1.519  0.00  0.00    -0.266 N 
ATOM     16  C   UNL     1      -4.749  -8.604  -2.715  0.00  0.00    +0.125 A 
ATOM     17  C   UNL     1      -5.126  -9.941  -2.762  0.00  0.00    +0.044 A 
ATOM     18  C   UNL     1      -5.012 -10.631  -3.956  0.00  0.00    +0.005 A 
ATOM     19  C   UNL     1      -4.524  -9.956  -5.066  0.00  0.00    +0.023 A 
ATOM     20  C   UNL     1      -4.168  -8.627  -4.948  0.00  0.00    +0.040 A 
ATOM     21  N   UNL     1      -4.292  -7.994  -3.797  0.00  0.00    -0.237 NA
ATOM     22  C   UNL     1      -3.637  -7.889  -6.149  0.00  0.00    +0.065 C 
ATOM     23  H   UNL     1      -4.350  -7.082  -1.389  0.00  0.00    +0.157 HD
ENDBRANCH   3  13
BRANCH   1  28
ATOM     24  C   UNL     1      -1.133  -3.823   1.022  0.00  0.00    +0.061 A 
ATOM     25  C   UNL     1      -1.815  -2.619   0.831  0.00  0.00    +0.015 A 
ATOM     26  C   UNL     1      -3.157  -2.625   0.505  0.00  0.00    +0.003 A 
ATOM     27  C   UNL     1      -3.835  -3.820   0.365  0.00  0.00    +0.026 A 
ATOM     28  C   UNL     1      -3.165  -5.033   0.552  0.00  0.00    +0.043 A 
ATOM     29  C   UNL     1      -1.809  -5.034   0.877  0.00  0.00    +0.040 A 
BRANCH  24  30
ATOM     30  C   UNL     1       0.302  -3.814   1.372  0.00  0.00    +0.339 C 
ATOM     31  O   UNL     1       0.895  -4.862   1.532  0.00  0.00    -0.245 OA
BRANCH  30  32
ATOM     32  O   UNL     1       0.954  -2.643   1.512  0.00  0.00    -0.461 OA
BRANCH  32  34
ATOM     33  C   UNL     1       2.905  -1.292   1.965  0.00  0.00    +0.048 C 
ATOM     34  C   UNL     1       2.341  -2.709   1.850  0.00  0.00    +0.229 C 
ENDBRANCH  32  34
ENDBRANCH  30  32
ENDBRANCH  24  30
ENDBRANCH   1  28
BRANCH   8  35
ATOM     35  O   UNL     1      -7.188  -4.774   6.194  0.00  0.00    -0.507 OA
ATOM     36  H   UNL     1      -6.505  -4.967   6.851  0.00  0.00    +0.292 HD
ENDBRANCH   8  35
TORSDOF 6
