REMARK  Name = ZINC05082035
REMARK  14 active torsions:
REMARK  status: ('A' for Active; 'I' for Inactive)
REMARK    1  A    between atoms: C_1  and  C_2
REMARK    2  A    between atoms: C_2  and  N_55
REMARK    3  A    between atoms: C_3  and  C_4
REMARK    4  A    between atoms: C_3  and  N_55
REMARK    5  A    between atoms: C_5  and  C_6
REMARK    6  A    between atoms: C_5  and  N_55
REMARK    7  A    between atoms: C_6  and  S_7
REMARK    8  A    between atoms: S_7  and  C_8
REMARK    9  A    between atoms: C_13  and  N_17
REMARK   10  A    between atoms: C_14  and  N_16
REMARK   11  A    between atoms: C_18  and  C_20
REMARK   12  A    between atoms: C_23  and  O_26
REMARK   13  A    between atoms: O_26  and  C_27
REMARK   14  A    between atoms: C_27  and  C_28
REMARK                            x       y       z     vdW  Elec       q    Type
REMARK                         _______ _______ _______ _____ _____    ______ ____
ROOT
ATOM      1  C   UNL     1       1.001   2.280  -0.240  0.00  0.00    +0.171 A 
ATOM      2  N   UNL     1      -0.199   1.640  -0.309  0.00  0.00    -0.300 N 
ATOM      3  H   UNL     1      -1.048   2.162  -0.226  0.00  0.00    +0.171 HD
ATOM      4  C   UNL     1      -0.246   0.303  -0.488  0.00  0.00    +0.275 A 
ATOM      5  O   UNL     1      -1.318  -0.278  -0.552  0.00  0.00    -0.266 OA
ATOM      6  C   UNL     1       0.959  -0.406  -0.602  0.00  0.00    +0.139 A 
ATOM      7  C   UNL     1       2.156   0.297  -0.524  0.00  0.00    +0.146 A 
ATOM      8  N   UNL     1       2.137   1.623  -0.345  0.00  0.00    -0.207 NA
ENDROOT
BRANCH   6   9
ATOM      9  N   UNL     1       0.956  -1.802  -0.789  0.00  0.00    -0.274 N 
ATOM     10  C   UNL     1       0.365  -2.603   0.120  0.00  0.00    +0.248 C 
ATOM     11  O   UNL     1      -0.234  -2.117   1.060  0.00  0.00    -0.270 OA
ATOM     12  H   UNL     1       1.378  -2.187  -1.573  0.00  0.00    +0.155 HD
BRANCH  10  13
ATOM     13  C   UNL     1       0.445  -4.069  -0.026  0.00  0.00    +0.037 A 
ATOM     14  C   UNL     1       1.128  -4.629  -1.109  0.00  0.00    +0.016 A 
ATOM     15  C   UNL     1       1.206  -5.998  -1.239  0.00  0.00    +0.046 A 
ATOM     16  C   UNL     1       0.596  -6.822  -0.300  0.00  0.00    +0.121 A 
ATOM     17  C   UNL     1      -0.089  -6.269   0.775  0.00  0.00    +0.046 A 
ATOM     18  C   UNL     1      -0.167  -4.901   0.915  0.00  0.00    +0.016 A 
BRANCH  16  19
ATOM     19  O   UNL     1       0.669  -8.171  -0.435  0.00  0.00    -0.492 OA
BRANCH  19  20
ATOM     20  C   UNL     1       1.388  -8.672  -1.563  0.00  0.00    +0.225 C 
ATOM     21  C   UNL     1       1.363 -10.202  -1.546  0.00  0.00    +0.048 C 
ENDBRANCH  19  20
ENDBRANCH  16  19
ENDBRANCH  10  13
ENDBRANCH   6   9
BRANCH   7  22
ATOM     22  N   UNL     1       3.363  -0.372  -0.631  0.00  0.00    -0.341 N 
ATOM     23  H   UNL     1       3.374  -1.333  -0.761  0.00  0.00    +0.144 HD
ATOM     24  H   UNL     1       4.197   0.121  -0.577  0.00  0.00    +0.144 HD
ENDBRANCH   7  22
BRANCH   1  25
ATOM     25  S   UNL     1       1.035   4.026  -0.005  0.00  0.00    -0.090 S 
BRANCH  25  26
ATOM     26  C   UNL     1       2.823   4.307   0.007  0.00  0.00    +0.059 C 
BRANCH  26  27
ATOM     27  C   UNL     1       3.103   5.798   0.204  0.00  0.00    -0.068 C 
BRANCH  27  28
ATOM     28  N   UNL     1       4.566   6.009   0.233  0.00  0.00    +0.380 N 
ATOM     29  H   UNL     1       4.982   5.366   0.917  0.00  0.00    -0.082 HD
BRANCH  28  31
ATOM     30  C   UNL     1       4.586   6.705  -2.139  0.00  0.00    -0.017 C 
ATOM     31  C   UNL     1       5.143   5.731  -1.099  0.00  0.00    -0.082 C 
ENDBRANCH  28  31
BRANCH  28  32
ATOM     32  C   UNL     1       4.868   7.399   0.634  0.00  0.00    -0.082 C 
ATOM     33  C   UNL     1       6.384   7.554   0.775  0.00  0.00    -0.017 C 
ENDBRANCH  28  32
ENDBRANCH  27  28
ENDBRANCH  26  27
ENDBRANCH  25  26
ENDBRANCH   1  25
TORSDOF 11
