REMARK  Name = ZINC22785122
REMARK  11 active torsions:
REMARK  status: ('A' for Active; 'I' for Inactive)
REMARK    1  A    between atoms: C_1  and  C_2
REMARK    2  A    between atoms: C_2  and  N_3
REMARK    3  A    between atoms: N_6  and  C_9
REMARK    4  A    between atoms: C_9  and  C_11
REMARK    5  A    between atoms: C_9  and  C_16
REMARK    6  A    between atoms: C_16  and  C_18
REMARK    7  A    between atoms: C_16  and  N_19
REMARK    8  A    between atoms: N_19  and  C_20
REMARK    9  A    between atoms: C_20  and  N_22
REMARK   10  A    between atoms: N_22  and  C_23
REMARK   11  A    between atoms: C_28  and  C_29
REMARK                            x       y       z     vdW  Elec       q    Type
REMARK                         _______ _______ _______ _____ _____    ______ ____
ROOT
ATOM      1  C   UNL     1       2.256   3.505  -1.634  0.00  0.00    +0.091 C 
ATOM      2  C   UNL     1       3.342   2.530  -2.092  0.00  0.00    +0.030 C 
ENDROOT
BRANCH   1   3
ATOM      3  N   UNL     1       1.103   3.408  -2.533  0.00  0.00    -0.322 N 
ATOM      4  H   UNL     1       0.257   2.754  -2.273  0.00  0.00    +0.148 HD
BRANCH   3   5
ATOM      5  C   UNL     1       1.078   4.120  -3.677  0.00  0.00    +0.135 C 
ATOM      6  S   UNL     1       2.394   5.138  -4.080  0.00  0.00    -0.019 S 
BRANCH   5   7
ATOM      7  N   UNL     1       0.018   4.031  -4.503  0.00  0.00    -0.297 N 
ATOM      8  H   UNL     1      -0.864   3.443  -4.206  0.00  0.00    +0.154 HD
BRANCH   7   9
ATOM      9  C   UNL     1       0.037   4.686  -5.739  0.00  0.00    +0.037 A 
ATOM     10  C   UNL     1       0.551   5.972  -5.838  0.00  0.00    +0.023 A 
ATOM     11  C   UNL     1       0.570   6.616  -7.059  0.00  0.00    +0.003 A 
ATOM     12  C   UNL     1       0.077   5.981  -8.185  0.00  0.00    +0.020 A 
ATOM     13  C   UNL     1      -0.435   4.699  -8.091  0.00  0.00    +0.046 A 
ATOM     14  C   UNL     1      -0.452   4.048  -6.872  0.00  0.00    -0.011 A 
ATOM     15  C   UNL     1      -1.005   2.650  -6.771  0.00  0.00    +0.047 C 
ATOM     16 CL   UNL     1      -1.051   3.906  -9.507  0.00  0.00    -0.083 Cl
ENDBRANCH   7   9
ENDBRANCH   5   7
ENDBRANCH   3   5
ENDBRANCH   1   3
BRANCH   1  17
ATOM     17  C   UNL     1       1.823   3.154  -0.209  0.00  0.00    +0.113 C 
BRANCH  17  21
ATOM     18  N   UNL     1       4.552   3.866   2.936  0.00  0.00    +0.381 N 
ATOM     19  C   UNL     1       4.906   4.350   1.594  0.00  0.00    -0.063 C 
ATOM     20  C   UNL     1       3.641   4.444   0.738  0.00  0.00    +0.066 C 
ATOM     21  N   UNL     1       3.002   3.122   0.667  0.00  0.00    -0.297 NA
ATOM     22  C   UNL     1       2.648   2.639   2.009  0.00  0.00    +0.066 C 
ATOM     23  C   UNL     1       3.913   2.545   2.865  0.00  0.00    -0.063 C 
ATOM     24  H   UNL     1       3.828   4.571   3.371  0.00  0.00    -0.082 HD
BRANCH  18  26
ATOM     25  C   UNL     1       5.383   3.099   5.108  0.00  0.00    -0.017 C 
ATOM     26  C   UNL     1       5.731   3.835   3.812  0.00  0.00    -0.082 C 
ENDBRANCH  18  26
ENDBRANCH  17  21
BRANCH  17  27
ATOM     27  C   UNL     1       1.157   1.802  -0.205  0.00  0.00    +0.009 A 
ATOM     28  C   UNL     1      -0.163   1.501  -0.157  0.00  0.00    +0.013 A 
ATOM     29  C   UNL     1      -0.549   0.173  -0.164  0.00  0.00    +0.008 A 
ATOM     30  C   UNL     1       0.405  -0.788  -0.220  0.00  0.00    +0.045 A 
ATOM     31  S   UNL     1       1.904   0.181  -0.264  0.00  0.00    -0.100 S 
ENDBRANCH  17  27
ENDBRANCH   1  17
TORSDOF 8
