REMARK  Name = ZINC32541993
REMARK  9 active torsions:
REMARK  status: ('A' for Active; 'I' for Inactive)
REMARK    1  A    between atoms: C_1  and  C_2
REMARK    2  A    between atoms: C_2  and  C_4
REMARK    3  A    between atoms: C_2  and  N_14
REMARK    4  A    between atoms: C_7  and  S_10
REMARK    5  A    between atoms: S_10  and  N_13
REMARK    6  A    between atoms: N_14  and  C_15
REMARK    7  A    between atoms: N_14  and  C_16
REMARK    8  A    between atoms: C_16  and  C_17
REMARK    9  A    between atoms: N_19  and  C_20
REMARK                            x       y       z     vdW  Elec       q    Type
REMARK                         _______ _______ _______ _____ _____    ______ ____
ROOT
ATOM      1  N   UNL     1      -0.110   1.460  -0.338  0.00  0.00    +0.388 N 
ATOM      2  C   UNL     1      -0.845   1.802  -1.562  0.00  0.00    -0.095 C 
ATOM      3  H   UNL     1      -0.659   1.884   0.516  0.00  0.00    -0.081 HD
ENDROOT
BRANCH   1   5
ATOM      4  C   UNL     1       1.931   1.757   0.982  0.00  0.00    -0.008 C 
ATOM      5  C   UNL     1       1.234   2.051  -0.348  0.00  0.00    -0.041 C 
BRANCH   5   6
ATOM      6  C   UNL     1       1.126   3.542  -0.539  0.00  0.00    -0.061 A 
ATOM      7  C   UNL     1       0.123   4.249   0.098  0.00  0.00    +0.004 A 
ATOM      8  C   UNL     1       0.026   5.617  -0.074  0.00  0.00    +0.029 A 
ATOM      9  C   UNL     1       0.926   6.277  -0.890  0.00  0.00    +0.105 A 
ATOM     10  C   UNL     1       1.926   5.569  -1.531  0.00  0.00    +0.029 A 
ATOM     11  C   UNL     1       2.026   4.202  -1.355  0.00  0.00    +0.004 A 
BRANCH   9  12
ATOM     12  S   UNL     1       0.798   8.020  -1.114  0.00  0.00    +0.056 S 
ATOM     13  O   UNL     1       0.114   8.527   0.023  0.00  0.00    -0.153 OA
ATOM     14  O   UNL     1       2.090   8.477  -1.492  0.00  0.00    -0.153 OA
BRANCH  12  15
ATOM     15  N   UNL     1      -0.194   8.275  -2.416  0.00  0.00    -0.204 NA
ATOM     16  H   UNL     1      -0.300   9.356  -2.590  0.00  0.00    +0.144 HD
ATOM     17  H   UNL     1      -1.183   7.837  -2.214  0.00  0.00    +0.144 HD
ENDBRANCH  12  15
ENDBRANCH   9  12
ENDBRANCH   5   6
ENDBRANCH   1   5
BRANCH   1  18
ATOM     18  C   UNL     1      -0.043   0.004  -0.153  0.00  0.00    +0.019 C 
BRANCH  18  19
ATOM     19  C   UNL     1      -1.428  -0.535   0.098  0.00  0.00    +0.201 C 
ATOM     20  O   UNL     1      -2.377   0.220   0.121  0.00  0.00    -0.278 OA
ATOM     21  N   UNL     1      -1.612  -1.855   0.297  0.00  0.00    -0.287 N 
ATOM     22  H   UNL     1      -0.766  -2.550   0.191  0.00  0.00    +0.155 HD
BRANCH  21  23
ATOM     23  C   UNL     1      -2.879  -2.342   0.639  0.00  0.00    +0.033 A 
ATOM     24  C   UNL     1      -3.731  -1.574   1.421  0.00  0.00    +0.024 A 
ATOM     25  C   UNL     1      -4.983  -2.054   1.753  0.00  0.00    +0.017 A 
ATOM     26  C   UNL     1      -5.384  -3.304   1.315  0.00  0.00    +0.018 A 
ATOM     27  C   UNL     1      -4.535  -4.074   0.540  0.00  0.00    +0.017 A 
ATOM     28  C   UNL     1      -3.284  -3.596   0.201  0.00  0.00    +0.024 A 
ATOM     29 BR   UNL     1      -7.096  -3.961   1.777  0.00  0.00    -0.050 Br
ENDBRANCH  21  23
ENDBRANCH  18  19
ENDBRANCH   1  18
TORSDOF 7
