REMARK  Name = ZINC04654488
REMARK  9 active torsions:
REMARK  status: ('A' for Active; 'I' for Inactive)
REMARK    1  A    between atoms: C_1  and  C_2
REMARK    2  A    between atoms: C_2  and  O_3
REMARK    3  A    between atoms: O_3  and  C_4
REMARK    4  A    between atoms: C_7  and  N_10
REMARK    5  A    between atoms: C_11  and  C_13
REMARK    6  A    between atoms: C_13  and  S_14
REMARK    7  A    between atoms: S_14  and  C_15
REMARK    8  A    between atoms: C_19  and  C_23
REMARK    9  A    between atoms: N_26  and  C_27
REMARK                            x       y       z     vdW  Elec       q    Type
REMARK                         _______ _______ _______ _____ _____    ______ ____
ROOT
ATOM      1  C   UNL     1      -4.603   2.491   2.243  0.00  0.00    +0.177 A 
ATOM      2  N   UNL     1      -3.578   2.577   3.056  0.00  0.00    -0.201 NA
ATOM      3  C   UNL     1      -2.333   2.251   2.679  0.00  0.00    +0.187 A 
ATOM      4  C   UNL     1      -2.100   1.797   1.374  0.00  0.00    +0.082 A 
ATOM      5  C   UNL     1      -0.725   1.524   1.263  0.00  0.00    +0.046 A 
ATOM      6  N   UNL     1      -0.158   1.803   2.405  0.00  0.00    -0.279 N 
ATOM      7  N   UNL     1      -1.127   2.252   3.310  0.00  0.00    -0.153 NA
ATOM      8  H   UNL     1       0.927   1.669   2.527  0.00  0.00    +0.189 HD
ATOM      9  C   UNL     1      -0.021   1.028   0.027  0.00  0.00    +0.066 C 
ATOM     10  C   UNL     1      -3.242   1.704   0.455  0.00  0.00    +0.124 A 
ATOM     11  N   UNL     1      -3.090   1.301  -0.783  0.00  0.00    -0.384 N 
ATOM     12  N   UNL     1      -4.488   2.055   0.951  0.00  0.00    -0.275 N 
ATOM     13  H   UNL     1      -3.961   1.240  -1.452  0.00  0.00    +0.157 HD
ATOM     14  H   UNL     1      -2.092   1.024  -1.153  0.00  0.00    +0.157 HD
ENDROOT
BRANCH  12  15
ATOM     15  C   UNL     1      -5.620   1.980   0.130  0.00  0.00    +0.050 A 
ATOM     16  C   UNL     1      -6.062   0.748  -0.334  0.00  0.00    +0.027 A 
ATOM     17  C   UNL     1      -7.182   0.677  -1.139  0.00  0.00    +0.017 A 
ATOM     18  C   UNL     1      -7.856   1.832  -1.493  0.00  0.00    +0.018 A 
ATOM     19  C   UNL     1      -7.415   3.061  -1.037  0.00  0.00    +0.017 A 
ATOM     20  C   UNL     1      -6.299   3.138  -0.226  0.00  0.00    +0.027 A 
ATOM     21 BR   UNL     1      -9.384   1.730  -2.602  0.00  0.00    -0.050 Br
ENDBRANCH  12  15
BRANCH   1  22
ATOM     22  S   UNL     1      -6.195   2.951   2.841  0.00  0.00    -0.078 S 
BRANCH  22  23
ATOM     23  C   UNL     1      -5.771   3.426   4.535  0.00  0.00    +0.173 C 
BRANCH  23  25
ATOM     24  N   UNL     1      -6.941   4.269   6.544  0.00  0.00    -0.285 N 
ATOM     25  C   UNL     1      -7.015   3.868   5.260  0.00  0.00    +0.227 C 
ATOM     26  O   UNL     1      -8.085   3.863   4.687  0.00  0.00    -0.275 OA
ATOM     27  H   UNL     1      -5.986   4.202   7.087  0.00  0.00    +0.155 HD
BRANCH  24  31
ATOM     28  C   UNL     1     -10.328   5.764   8.463  0.00  0.00    +0.121 A 
ATOM     29  C   UNL     1     -10.452   4.744   7.531  0.00  0.00    +0.047 A 
ATOM     30  C   UNL     1      -9.331   4.248   6.896  0.00  0.00    +0.027 A 
ATOM     31  C   UNL     1      -8.079   4.772   7.189  0.00  0.00    +0.034 A 
ATOM     32  C   UNL     1      -7.954   5.790   8.125  0.00  0.00    +0.027 A 
ATOM     33  C   UNL     1      -9.077   6.288   8.756  0.00  0.00    +0.047 A 
BRANCH  28  34
ATOM     34  O   UNL     1     -11.432   6.251   9.089  0.00  0.00    -0.492 OA
BRANCH  34  36
ATOM     35  C   UNL     1     -12.577   7.716  10.633  0.00  0.00    +0.048 C 
ATOM     36  C   UNL     1     -11.230   7.302  10.037  0.00  0.00    +0.225 C 
ENDBRANCH  34  36
ENDBRANCH  28  34
ENDBRANCH  24  31
ENDBRANCH  23  25
ENDBRANCH  22  23
ENDBRANCH   1  22
TORSDOF 7
