REMARK  Name = ZINC65519921
REMARK  11 active torsions:
REMARK  status: ('A' for Active; 'I' for Inactive)
REMARK    1  A    between atoms: C_1  and  C_2
REMARK    2  A    between atoms: C_5  and  N_21
REMARK    3  A    between atoms: C_7  and  N_8
REMARK    4  A    between atoms: N_11  and  C_12
REMARK    5  A    between atoms: C_12  and  C_13
REMARK    6  A    between atoms: N_16  and  C_18
REMARK    7  A    between atoms: C_18  and  C_19
REMARK    8  A    between atoms: C_18  and  C_20
REMARK    9  A    between atoms: C_22  and  C_24
REMARK   10  A    between atoms: C_24  and  C_25
REMARK   11  A    between atoms: C_24  and  C_26
REMARK                            x       y       z     vdW  Elec       q    Type
REMARK                         _______ _______ _______ _____ _____    ______ ____
ROOT
ATOM      1  N   UNL     1       0.437  -0.234   2.347  0.00  0.00    -0.269 N 
ATOM      2  C   UNL     1       0.824  -0.934   3.432  0.00  0.00    +0.304 C 
ATOM      3  O   UNL     1       1.081  -2.119   3.331  0.00  0.00    -0.253 OA
ATOM      4  N   UNL     1       0.927  -0.322   4.628  0.00  0.00    -0.299 N 
ATOM      5  H   UNL     1       0.292   0.722   2.414  0.00  0.00    +0.156 HD
ATOM      6  H   UNL     1       0.722   0.623   4.708  0.00  0.00    +0.150 HD
ENDROOT
BRANCH   1  13
ATOM      7  C   UNL     1      -1.443   0.868   0.520  0.00  0.00    +0.045 C 
ATOM      8  C   UNL     1      -0.665  -0.384   0.203  0.00  0.00    -0.029 A 
ATOM      9  C   UNL     1      -0.853  -1.025  -1.006  0.00  0.00    +0.007 A 
ATOM     10  C   UNL     1      -0.142  -2.172  -1.300  0.00  0.00    +0.024 A 
ATOM     11  C   UNL     1       0.763  -2.685  -0.380  0.00  0.00    +0.035 A 
ATOM     12  C   UNL     1       0.954  -2.044   0.835  0.00  0.00    +0.047 A 
ATOM     13  C   UNL     1       0.243  -0.888   1.125  0.00  0.00    +0.039 A 
BRANCH  11  14
ATOM     14  N   UNL     1       1.482  -3.848  -0.678  0.00  0.00    -0.285 N 
ATOM     15  C   UNL     1       1.894  -4.080  -1.940  0.00  0.00    +0.220 C 
ATOM     16  O   UNL     1       1.573  -3.324  -2.832  0.00  0.00    -0.275 OA
ATOM     17  H   UNL     1       1.684  -4.487   0.023  0.00  0.00    +0.155 HD
BRANCH  15  18
ATOM     18  C   UNL     1       2.755  -5.280  -2.243  0.00  0.00    +0.069 C 
ATOM     19  C   UNL     1       2.004  -6.556  -1.859  0.00  0.00    +0.017 C 
ATOM     20  C   UNL     1       3.080  -5.310  -3.738  0.00  0.00    +0.017 C 
ENDBRANCH  15  18
ENDBRANCH  11  14
ENDBRANCH   1  13
BRANCH   4  21
ATOM     21  C   UNL     1       1.348  -1.083   5.807  0.00  0.00    +0.107 C 
BRANCH  21  22
ATOM     22  C   UNL     1       1.382  -0.158   7.025  0.00  0.00    -0.012 C 
ATOM     23  C   UNL     1      -0.051   0.216   7.468  0.00  0.00    -0.015 C 
ATOM     24  C   UNL     1      -0.015   0.192   9.007  0.00  0.00    -0.078 C 
ATOM     25  N   UNL     1       1.369  -0.146   9.404  0.00  0.00    +0.381 N 
ATOM     26  C   UNL     1       1.944  -0.903   8.263  0.00  0.00    -0.074 C 
ATOM     27  H   UNL     1       1.900   0.696   9.566  0.00  0.00    -0.081 HD
BRANCH  25  28
ATOM     28  C   UNL     1       1.359  -0.982  10.612  0.00  0.00    -0.075 C 
ATOM     29  C   UNL     1       2.796  -1.351  10.988  0.00  0.00    -0.014 C 
ATOM     30  C   UNL     1       0.714  -0.207  11.763  0.00  0.00    -0.014 C 
ENDBRANCH  25  28
ENDBRANCH  21  22
ENDBRANCH   4  21
TORSDOF 6
