REMARK  Name = ZINC09506739
REMARK  9 active torsions:
REMARK  status: ('A' for Active; 'I' for Inactive)
REMARK    1  A    between atoms: C_1  and  N_46
REMARK    2  A    between atoms: C_2  and  C_3
REMARK    3  A    between atoms: C_2  and  N_46
REMARK    4  A    between atoms: N_5  and  C_6
REMARK    5  A    between atoms: C_9  and  S_12
REMARK    6  A    between atoms: S_12  and  N_15
REMARK    7  A    between atoms: C_16  and  C_17
REMARK    8  A    between atoms: C_16  and  N_46
REMARK    9  A    between atoms: N_19  and  C_20
REMARK                            x       y       z     vdW  Elec       q    Type
REMARK                         _______ _______ _______ _____ _____    ______ ____
ROOT
ATOM      1  C   UNL     1       2.899   1.844   0.285  0.00  0.00    +0.019 C 
ENDROOT
BRANCH   1   2
ATOM      2  C   UNL     1       1.584   2.576   0.352  0.00  0.00    +0.201 C 
ATOM      3  O   UNL     1       1.549   3.776   0.177  0.00  0.00    -0.278 OA
ATOM      4  N   UNL     1       0.448   1.899   0.608  0.00  0.00    -0.287 N 
ATOM      5  H   UNL     1       0.464   0.931   0.671  0.00  0.00    +0.155 HD
BRANCH   4   6
ATOM      6  C   UNL     1      -0.757   2.591   0.778  0.00  0.00    +0.033 A 
ATOM      7  C   UNL     1      -1.950   2.028   0.344  0.00  0.00    +0.025 A 
ATOM      8  C   UNL     1      -3.137   2.711   0.519  0.00  0.00    +0.030 A 
ATOM      9  C   UNL     1      -3.138   3.960   1.113  0.00  0.00    +0.105 A 
ATOM     10  C   UNL     1      -1.951   4.526   1.540  0.00  0.00    +0.030 A 
ATOM     11  C   UNL     1      -0.760   3.845   1.374  0.00  0.00    +0.025 A 
BRANCH   9  12
ATOM     12  S   UNL     1      -4.654   4.831   1.327  0.00  0.00    +0.056 S 
ATOM     13  O   UNL     1      -5.686   3.854   1.339  0.00  0.00    -0.153 OA
ATOM     14  O   UNL     1      -4.453   5.739   2.401  0.00  0.00    -0.153 OA
BRANCH  12  15
ATOM     15  N   UNL     1      -4.887   5.749  -0.032  0.00  0.00    -0.204 NA
ATOM     16  H   UNL     1      -5.787   5.951  -0.332  0.00  0.00    +0.144 HD
ATOM     17  H   UNL     1      -4.124   6.083  -0.528  0.00  0.00    +0.144 HD
ENDBRANCH  12  15
ENDBRANCH   9  12
ENDBRANCH   4   6
ENDBRANCH   1   2
BRANCH   1  19
ATOM     18  C   UNL     1       3.827   3.371  -1.349  0.00  0.00    -0.095 C 
ATOM     19  N   UNL     1       3.976   2.820   0.014  0.00  0.00    +0.389 N 
ATOM     20  H   UNL     1       3.908   3.587   0.693  0.00  0.00    -0.081 HD
BRANCH  19  21
ATOM     21  C   UNL     1       5.295   2.169   0.154  0.00  0.00    +0.019 C 
BRANCH  21  22
ATOM     22  C   UNL     1       6.368   3.225   0.092  0.00  0.00    +0.201 C 
ATOM     23  O   UNL     1       6.064   4.389  -0.069  0.00  0.00    -0.278 OA
ATOM     24  N   UNL     1       7.664   2.878   0.215  0.00  0.00    -0.285 N 
ATOM     25  H   UNL     1       7.912   1.942   0.267  0.00  0.00    +0.155 HD
BRANCH  24  26
ATOM     26  C   UNL     1       8.653   3.869   0.270  0.00  0.00    +0.072 A 
ATOM     27  C   UNL     1       8.313   5.173   0.604  0.00  0.00    +0.029 A 
ATOM     28  C   UNL     1       9.289   6.149   0.661  0.00  0.00    +0.043 A 
ATOM     29  C   UNL     1      10.606   5.832   0.376  0.00  0.00    +0.161 A 
ATOM     30  C   UNL     1      10.950   4.532   0.037  0.00  0.00    +0.195 A 
ATOM     31  C   UNL     1       9.975   3.550  -0.017  0.00  0.00    +0.182 A 
ATOM     32  F   UNL     1      10.309   2.283  -0.347  0.00  0.00    -0.200 F 
ATOM     33  F   UNL     1      12.235   4.224  -0.242  0.00  0.00    -0.199 F 
ATOM     34  F   UNL     1      11.557   6.789   0.429  0.00  0.00    -0.202 F 
ENDBRANCH  24  26
ENDBRANCH  21  22
ENDBRANCH  19  21
ENDBRANCH   1  19
TORSDOF 8
