REMARK  Name = ZINC21548697
REMARK  7 active torsions:
REMARK  status: ('A' for Active; 'I' for Inactive)
REMARK    1  A    between atoms: C_4  and  C_7
REMARK    2  A    between atoms: C_8  and  C_9
REMARK    3  A    between atoms: C_9  and  N_10
REMARK    4  A    between atoms: N_13  and  C_16
REMARK    5  A    between atoms: C_16  and  C_17
REMARK    6  A    between atoms: N_19  and  C_20
REMARK    7  A    between atoms: C_21  and  C_29
REMARK                            x       y       z     vdW  Elec       q    Type
REMARK                         _______ _______ _______ _____ _____    ______ ____
ROOT
ATOM      1  C   UNL     1       6.787  -8.058   3.148  0.00  0.00    +0.232 C 
ATOM      2  O   UNL     1       7.572  -7.822   2.255  0.00  0.00    -0.274 OA
ATOM      3  N   UNL     1       7.064  -9.018   4.053  0.00  0.00    -0.278 N 
ATOM      4  H   UNL     1       6.436  -9.207   4.767  0.00  0.00    +0.155 HD
ENDROOT
BRANCH   3   5
ATOM      5  C   UNL     1       8.246  -9.736   3.961  0.00  0.00    +0.084 A 
ATOM      6  C   UNL     1       8.691 -10.754   4.790  0.00  0.00    +0.068 A 
ATOM      7  C   UNL     1       9.978 -11.350   4.477  0.00  0.00    -0.023 A 
ATOM      8  C   UNL     1      10.584 -10.820   3.393  0.00  0.00    -0.004 A 
ATOM      9  S   UNL     1       9.465  -9.578   2.817  0.00  0.00    -0.077 S 
ATOM     10  C   UNL     1      11.910 -11.214   2.820  0.00  0.00    +0.043 C 
ATOM     11  C   UNL     1      12.656 -12.056   3.866  0.00  0.00    +0.005 C 
ATOM     12  C   UNL     1      11.707 -13.128   4.409  0.00  0.00    +0.005 C 
ATOM     13  C   UNL     1      10.624 -12.476   5.272  0.00  0.00    +0.037 C 
BRANCH   6  14
ATOM     14  C   UNL     1       7.897 -11.209   5.935  0.00  0.00    +0.244 C 
ATOM     15  O   UNL     1       7.089 -12.108   5.796  0.00  0.00    -0.270 OA
ATOM     16  N   UNL     1       8.062 -10.632   7.142  0.00  0.00    -0.325 N 
ATOM     17  H   UNL     1       8.706  -9.915   7.253  0.00  0.00    +0.145 HD
ATOM     18  H   UNL     1       7.536 -10.933   7.899  0.00  0.00    +0.145 HD
ENDBRANCH   6  14
ENDBRANCH   3   5
BRANCH   1  19
ATOM     19  C   UNL     1       5.501  -7.277   3.248  0.00  0.00    +0.180 C 
BRANCH  19  23
ATOM     20  N   UNL     1       5.087  -3.681   1.066  0.00  0.00    +0.384 N 
ATOM     21  C   UNL     1       4.061  -4.718   0.889  0.00  0.00    -0.063 C 
ATOM     22  C   UNL     1       4.104  -5.685   2.075  0.00  0.00    +0.066 C 
ATOM     23  N   UNL     1       5.437  -6.298   2.155  0.00  0.00    -0.298 NA
ATOM     24  C   UNL     1       6.477  -5.271   2.306  0.00  0.00    +0.066 C 
ATOM     25  C   UNL     1       6.414  -4.307   1.119  0.00  0.00    -0.063 C 
ATOM     26  H   UNL     1       4.916  -3.182   1.926  0.00  0.00    -0.081 HD
BRANCH  20  27
ATOM     27  C   UNL     1       5.033  -2.743  -0.063  0.00  0.00    -0.051 C 
BRANCH  27  29
ATOM     28  C   UNL     1       3.695  -0.685  -0.038  0.00  0.00    +0.002 C 
ATOM     29  C   UNL     1       3.716  -2.010  -0.046  0.00  0.00    -0.045 C 
BRANCH  28  33
ATOM     30  C   UNL     1      -0.017   1.379   0.010  0.00  0.00    +0.000 A 
ATOM     31  C   UNL     1       1.168   2.093   0.002  0.00  0.00    +0.001 A 
ATOM     32  C   UNL     1       2.377   1.429  -0.013  0.00  0.00    +0.008 A 
ATOM     33  C   UNL     1       2.403   0.034  -0.021  0.00  0.00    -0.025 A 
ATOM     34  C   UNL     1       1.204  -0.681  -0.013  0.00  0.00    +0.008 A 
ATOM     35  C   UNL     1       0.002  -0.004   0.002  0.00  0.00    +0.001 A 
ENDBRANCH  28  33
ENDBRANCH  27  29
ENDBRANCH  20  27
ENDBRANCH  19  23
ENDBRANCH   1  19
TORSDOF 7
