REMARK  Name = ZINC37053472
REMARK  7 active torsions:
REMARK  status: ('A' for Active; 'I' for Inactive)
REMARK    1  A    between atoms: C_1  and  C_2
REMARK    2  A    between atoms: C_2  and  N_3
REMARK    3  A    between atoms: C_7  and  C_9
REMARK    4  A    between atoms: C_9  and  N_10
REMARK    5  A    between atoms: N_10  and  S_11
REMARK    6  A    between atoms: S_11  and  C_14
REMARK    7  A    between atoms: C_15  and  N_22
REMARK                            x       y       z     vdW  Elec       q    Type
REMARK                         _______ _______ _______ _____ _____    ______ ____
ROOT
ATOM      1  S   UNL     1       5.008  -2.365   0.598  0.00  0.00    +0.062 S 
ATOM      2  O   UNL     1       5.530  -1.481   1.580  0.00  0.00    -0.153 OA
ATOM      3  O   UNL     1       5.081  -3.779   0.729  0.00  0.00    -0.153 OA
ENDROOT
BRANCH   1   4
ATOM      4  C   UNL     1       5.806  -1.959  -0.920  0.00  0.00    +0.144 A 
ATOM      5  C   UNL     1       5.847  -2.885  -1.954  0.00  0.00    +0.054 A 
ATOM      6  C   UNL     1       6.476  -2.561  -3.149  0.00  0.00    +0.044 A 
ATOM      7  C   UNL     1       7.059  -1.318  -3.306  0.00  0.00    +0.044 A 
ATOM      8  C   UNL     1       7.017  -0.397  -2.275  0.00  0.00    +0.042 A 
ATOM      9  C   UNL     1       6.386  -0.715  -1.085  0.00  0.00    +0.070 A 
ATOM     10 CL   UNL     1       6.329   0.446   0.204  0.00  0.00    -0.081 Cl
ATOM     11 CL   UNL     1       7.846  -0.912  -4.800  0.00  0.00    -0.083 Cl
BRANCH   5  12
ATOM     12  N   UNL     1       5.257  -4.141  -1.792  0.00  0.00    -0.356 N 
ATOM     13  H   UNL     1       4.613  -4.286  -1.082  0.00  0.00    +0.142 HD
ATOM     14  H   UNL     1       5.492  -4.868  -2.390  0.00  0.00    +0.142 HD
ENDBRANCH   5  12
ENDBRANCH   1   4
BRANCH   1  15
ATOM     15  N   UNL     1       3.405  -1.989   0.425  0.00  0.00    -0.191 NA
ATOM     16  H   UNL     1       3.011  -1.287   0.966  0.00  0.00    +0.148 HD
BRANCH  15  17
ATOM     17  C   UNL     1       2.582  -2.715  -0.546  0.00  0.00    +0.090 C 
BRANCH  17  22
ATOM     18  N   UNL     1       0.843  -1.003  -0.243  0.00  0.00    +0.382 N 
ATOM     19  C   UNL     1      -0.161  -0.695  -1.284  0.00  0.00    -0.078 C 
ATOM     20  C   UNL     1      -0.039  -1.852  -2.306  0.00  0.00    -0.020 C 
ATOM     21  C   UNL     1       0.234  -3.064  -1.377  0.00  0.00    -0.016 C 
ATOM     22  C   UNL     1       1.103  -2.454  -0.257  0.00  0.00    -0.053 C 
ATOM     23  H   UNL     1       1.697  -0.503  -0.440  0.00  0.00    -0.081 HD
BRANCH  18  25
ATOM     24  C   UNL     1       0.177   0.917   1.124  0.00  0.00    -0.017 C 
ATOM     25  C   UNL     1       0.328  -0.605   1.074  0.00  0.00    -0.082 C 
ENDBRANCH  18  25
ENDBRANCH  17  22
ENDBRANCH  15  17
ENDBRANCH   1  15
TORSDOF 6
