REMARK  Name = ZINC12850422
REMARK  5 active torsions:
REMARK  status: ('A' for Active; 'I' for Inactive)
REMARK    1  A    between atoms: C_3  and  C_6
REMARK    2  A    between atoms: C_9  and  C_33
REMARK    3  A    between atoms: C_14  and  C_16
REMARK    4  A    between atoms: N_18  and  C_19
REMARK    5  A    between atoms: C_20  and  C_29
REMARK                            x       y       z     vdW  Elec       q    Type
REMARK                         _______ _______ _______ _____ _____    ______ ____
ROOT
ATOM      1  C   UNL     1       3.599   0.625  -0.029  0.00  0.00    +0.140 C 
ATOM      2  C   UNL     1       4.121   0.346   1.384  0.00  0.00    +0.066 C 
ATOM      3  C   UNL     1       3.526  -0.964   1.912  0.00  0.00    +0.215 C 
ATOM      4  N   UNL     1       3.711  -2.010   0.902  0.00  0.00    -0.238 N 
ATOM      5  C   UNL     1       3.963  -1.755  -0.416  0.00  0.00    +0.119 A 
ATOM      6  C   UNL     1       4.081  -2.934  -1.058  0.00  0.00    +0.078 A 
ATOM      7  C   UNL     1       3.893  -3.960  -0.103  0.00  0.00    +0.149 A 
ATOM      8  N   UNL     1       3.671  -3.394   1.071  0.00  0.00    -0.164 NA
ATOM      9  N   UNL     1       4.061  -0.453  -0.926  0.00  0.00    -0.319 N 
ATOM     10  H   UNL     1       4.412  -0.269  -1.812  0.00  0.00    +0.148 HD
ENDROOT
BRANCH   1  13
ATOM     11  C   UNL     1      -0.016   1.341   0.009  0.00  0.00    +0.041 A 
ATOM     12  C   UNL     1       1.331   1.769  -0.001  0.00  0.00    +0.046 A 
ATOM     13  C   UNL     1       2.092   0.660  -0.014  0.00  0.00    +0.125 A 
ATOM     14  O   UNL     1       1.282  -0.411  -0.012  0.00  0.00    -0.466 OA
ATOM     15  C   UNL     1       0.002  -0.004   0.002  0.00  0.00    +0.195 A 
ENDBRANCH   1  13
BRANCH   7  16
ATOM     16  C   UNL     1       3.938  -5.411  -0.370  0.00  0.00    +0.269 C 
ATOM     17  O   UNL     1       4.151  -5.816  -1.497  0.00  0.00    -0.268 OA
ATOM     18  N   UNL     1       3.741  -6.288   0.634  0.00  0.00    -0.274 N 
ATOM     19  H   UNL     1       3.571  -5.965   1.533  0.00  0.00    +0.156 HD
BRANCH  18  20
ATOM     20  C   UNL     1       3.783  -7.650   0.383  0.00  0.00    +0.085 A 
ATOM     21  C   UNL     1       3.600  -8.688   1.282  0.00  0.00    +0.068 A 
ATOM     22  C   UNL     1       3.695 -10.046   0.765  0.00  0.00    -0.023 A 
ATOM     23  C   UNL     1       3.959 -10.111  -0.557  0.00  0.00    -0.004 A 
ATOM     24  S   UNL     1       4.058  -8.422  -1.081  0.00  0.00    -0.077 S 
ATOM     25  C   UNL     1       4.139 -11.338  -1.394  0.00  0.00    +0.043 C 
ATOM     26  C   UNL     1       2.981 -12.307  -1.121  0.00  0.00    +0.005 C 
ATOM     27  C   UNL     1       3.370 -13.216   0.040  0.00  0.00    +0.001 C 
ATOM     28  C   UNL     1       4.256 -12.460   1.028  0.00  0.00    +0.005 C 
ATOM     29  C   UNL     1       3.498 -11.281   1.631  0.00  0.00    +0.037 C 
BRANCH  21  30
ATOM     30  C   UNL     1       3.324  -8.429   2.698  0.00  0.00    +0.244 C 
ATOM     31  O   UNL     1       2.175  -8.316   3.083  0.00  0.00    -0.270 OA
ATOM     32  N   UNL     1       4.342  -8.316   3.574  0.00  0.00    -0.325 N 
ATOM     33  H   UNL     1       5.258  -8.406   3.267  0.00  0.00    +0.145 HD
ATOM     34  H   UNL     1       4.159  -8.145   4.511  0.00  0.00    +0.145 HD
ENDBRANCH  21  30
ENDBRANCH  18  20
ENDBRANCH   7  16
BRANCH   3  35
ATOM     35  C   UNL     1       4.236  -1.366   3.206  0.00  0.00    +0.412 C 
ATOM     36  F   UNL     1       4.067  -0.360   4.162  0.00  0.00    -0.168 F 
ATOM     37  F   UNL     1       3.691  -2.562   3.685  0.00  0.00    -0.168 F 
ATOM     38  F   UNL     1       5.601  -1.544   2.952  0.00  0.00    -0.168 F 
ENDBRANCH   3  35
TORSDOF 5
