REMARK  Name = ZINC14744921
REMARK  10 active torsions:
REMARK  status: ('A' for Active; 'I' for Inactive)
REMARK    1  A    between atoms: C_1  and  C_2
REMARK    2  A    between atoms: C_4  and  C_8
REMARK    3  A    between atoms: C_8  and  N_9
REMARK    4  A    between atoms: N_9  and  C_10
REMARK    5  A    between atoms: C_12  and  C_24
REMARK    6  A    between atoms: C_14  and  S_16
REMARK    7  A    between atoms: S_16  and  N_19
REMARK    8  A    between atoms: N_26  and  C_27
REMARK    9  A    between atoms: C_31  and  O_33
REMARK   10  A    between atoms: O_33  and  C_34
REMARK                            x       y       z     vdW  Elec       q    Type
REMARK                         _______ _______ _______ _____ _____    ______ ____
ROOT
ATOM      1  C   UNL     1      -0.813   1.610  -6.891  0.00  0.00    +0.030 A 
ATOM      2  C   UNL     1      -0.593   2.859  -7.452  0.00  0.00    +0.036 A 
ATOM      3  C   UNL     1      -0.408   2.976  -8.830  0.00  0.00    +0.041 A 
ATOM      4  C   UNL     1      -0.446   1.835  -9.634  0.00  0.00    +0.041 A 
ATOM      5  C   UNL     1      -0.666   0.598  -9.065  0.00  0.00    +0.108 A 
ATOM      6  C   UNL     1      -0.843   0.480  -7.699  0.00  0.00    +0.051 A 
ENDROOT
BRANCH   3   7
ATOM      7  C   UNL     1      -0.173   4.304  -9.436  0.00  0.00    +0.248 C 
ATOM      8  O   UNL     1      -0.012   4.403 -10.637  0.00  0.00    -0.270 OA
ATOM      9  N   UNL     1      -0.138   5.403  -8.658  0.00  0.00    -0.281 N 
ATOM     10  H   UNL     1      -0.332   5.333  -7.710  0.00  0.00    +0.155 HD
BRANCH   9  11
ATOM     11  C   UNL     1       0.180   6.645  -9.216  0.00  0.00    +0.037 A 
ATOM     12  C   UNL     1       0.914   7.571  -8.484  0.00  0.00    +0.023 A 
ATOM     13  C   UNL     1       1.228   8.797  -9.036  0.00  0.00    +0.005 A 
ATOM     14  C   UNL     1       0.813   9.108 -10.317  0.00  0.00    +0.046 A 
ATOM     15  C   UNL     1       0.080   8.188 -11.054  0.00  0.00    +0.122 A 
ATOM     16  C   UNL     1      -0.232   6.954 -10.505  0.00  0.00    +0.069 A 
BRANCH  15  17
ATOM     17  O   UNL     1      -0.328   8.495 -12.313  0.00  0.00    -0.495 OA
ATOM     18  C   UNL     1       0.034   9.783 -12.816  0.00  0.00    +0.277 C 
ENDBRANCH  15  17
ENDBRANCH   9  11
ENDBRANCH   3   7
BRANCH   5  19
ATOM     19  S   UNL     1      -0.713  -0.840 -10.083  0.00  0.00    +0.061 S 
ATOM     20  O   UNL     1      -1.477  -1.810  -9.380  0.00  0.00    -0.153 OA
ATOM     21  O   UNL     1      -1.057  -0.401 -11.390  0.00  0.00    -0.153 OA
BRANCH  19  22
ATOM     22  N   UNL     1       0.832  -1.428 -10.173  0.00  0.00    -0.177 NA
ATOM     23  C   UNL     1       1.835  -1.051 -11.180  0.00  0.00    +0.109 C 
ATOM     24  C   UNL     1       3.111  -1.868 -10.884  0.00  0.00    +0.018 C 
ATOM     25  C   UNL     1       2.570  -3.075 -10.072  0.00  0.00    +0.018 C 
ATOM     26  C   UNL     1       1.432  -2.411  -9.253  0.00  0.00    +0.109 C 
ENDBRANCH  19  22
ENDBRANCH   5  19
BRANCH   1  27
ATOM     27  N   UNL     1      -0.998   1.487  -5.511  0.00  0.00    -0.338 N 
ATOM     28  H   UNL     1      -1.148   0.614  -5.118  0.00  0.00    +0.146 HD
BRANCH  27  29
ATOM     29  C   UNL     1      -0.967   2.679  -4.659  0.00  0.00    +0.156 C 
BRANCH  29  33
ATOM     30  C   UNL     1      -0.085   1.091   0.011  0.00  0.00    +0.084 C 
ATOM     31  C   UNL     1      -0.804   1.591  -1.215  0.00  0.00    +0.081 A 
ATOM     32  N   UNL     1      -0.251   1.851  -2.368  0.00  0.00    -0.346 N 
ATOM     33  C   UNL     1      -1.192   2.276  -3.224  0.00  0.00    +0.051 A 
ATOM     34  H   UNL     1      -2.783   1.730  -0.598  0.00  0.00    +0.166 HD
ATOM     35  C   UNL     1      -2.373   2.279  -2.578  0.00  0.00    +0.106 A 
ATOM     36  N   UNL     1      -2.128   1.840  -1.304  0.00  0.00    -0.350 N 
ATOM     37  H   UNL     1       0.692   1.753  -2.573  0.00  0.00    +0.167 HD
ENDBRANCH  29  33
ENDBRANCH  27  29
ENDBRANCH   1  27
TORSDOF 8
