REMARK  Name = ZINC31643607
REMARK  7 active torsions:
REMARK  status: ('A' for Active; 'I' for Inactive)
REMARK    1  A    between atoms: C_1  and  C_2
REMARK    2  A    between atoms: C_2  and  C_3
REMARK    3  A    between atoms: C_2  and  N_4
REMARK    4  A    between atoms: N_7  and  C_8
REMARK    5  A    between atoms: C_11  and  C_14
REMARK    6  A    between atoms: C_14  and  N_15
REMARK    7  A    between atoms: N_15  and  C_16
REMARK                            x       y       z     vdW  Elec       q    Type
REMARK                         _______ _______ _______ _____ _____    ______ ____
ROOT
ATOM      1  C   UNL     1      -5.947  -1.200  -0.353  0.00  0.00    +0.136 C 
ENDROOT
BRANCH   1   5
ATOM      2  C   UNL     1      -2.364   1.112  -0.073  0.00  0.00    +0.035 A 
ATOM      3  C   UNL     1      -2.298  -0.275  -0.079  0.00  0.00    +0.023 A 
ATOM      4  C   UNL     1      -3.458  -1.019  -0.164  0.00  0.00    +0.007 A 
ATOM      5  C   UNL     1      -4.684  -0.385  -0.254  0.00  0.00    -0.030 A 
ATOM      6  C   UNL     1      -4.752   0.996  -0.254  0.00  0.00    +0.007 A 
ATOM      7  C   UNL     1      -3.596   1.746  -0.164  0.00  0.00    +0.023 A 
BRANCH   2  11
ATOM      8  N   UNL     1       1.022   2.083   0.732  0.00  0.00    -0.297 N 
ATOM      9  C   UNL     1      -0.146   1.410   0.735  0.00  0.00    +0.304 C 
ATOM     10  O   UNL     1      -0.256   0.386   1.381  0.00  0.00    -0.253 OA
ATOM     11  N   UNL     1      -1.191   1.870   0.018  0.00  0.00    -0.269 N 
ATOM     12  H   UNL     1       1.121   3.010   0.147  0.00  0.00    +0.151 HD
ATOM     13  H   UNL     1      -1.121   2.840  -0.496  0.00  0.00    +0.156 HD
BRANCH   8  15
ATOM     14  C   UNL     1       3.462   2.094   0.891  0.00  0.00    +0.027 C 
ATOM     15  C   UNL     1       2.159   1.580   1.506  0.00  0.00    +0.068 C 
ATOM     16  C   UNL     1       2.049   2.072   2.951  0.00  0.00    +0.027 C 
ENDBRANCH   8  15
ENDBRANCH   2  11
ENDBRANCH   1   5
BRANCH   1  17
ATOM     17  N   UNL     1      -6.253  -1.459  -1.762  0.00  0.00    -0.345 N 
ATOM     18  H   UNL     1      -6.505  -0.624  -2.432  0.00  0.00    +0.146 HD
BRANCH  17  19
ATOM     19  C   UNL     1      -6.226  -2.670  -2.218  0.00  0.00    +0.080 C 
ATOM     20  C   UNL     1      -6.533  -2.930  -3.636  0.00  0.00    +0.051 C 
ATOM     21  C   UNL     1      -6.506  -4.227  -4.132  0.00  0.00    +0.024 C 
ATOM     22  C   UNL     1      -6.806  -4.422  -5.492  0.00  0.00    -0.003 A 
ATOM     23  C   UNL     1      -6.798  -5.707  -6.061  0.00  0.00    +0.010 A 
ATOM     24  C   UNL     1      -7.095  -5.860  -7.381  0.00  0.00    +0.001 A 
ATOM     25  C   UNL     1      -7.407  -4.759  -8.175  0.00  0.00    +0.002 A 
ATOM     26  C   UNL     1      -7.423  -3.500  -7.657  0.00  0.00    +0.024 A 
ATOM     27  C   UNL     1      -7.123  -3.300  -6.298  0.00  0.00    +0.041 A 
ATOM     28  N   UNL     1      -7.135  -2.071  -5.769  0.00  0.00    -0.281 N 
ATOM     29  C   UNL     1      -6.864  -1.863  -4.501  0.00  0.00    +0.249 C 
ATOM     30  O   UNL     1      -6.895  -0.600  -4.014  0.00  0.00    -0.270 OA
ATOM     31  H   UNL     1      -7.377  -1.203  -6.401  0.00  0.00    +0.155 HD
ENDBRANCH  17  19
ENDBRANCH   1  17
TORSDOF 5
