REMARK  Name = ZINC07917575
REMARK  12 active torsions:
REMARK  status: ('A' for Active; 'I' for Inactive)
REMARK    1  A    between atoms: C_1  and  C_2
REMARK    2  A    between atoms: C_2  and  C_3
REMARK    3  A    between atoms: C_2  and  C_4
REMARK    4  A    between atoms: C_7  and  C_10
REMARK    5  A    between atoms: C_10  and  N_11
REMARK    6  A    between atoms: N_11  and  C_12
REMARK    7  A    between atoms: N_11  and  C_13
REMARK    8  A    between atoms: C_13  and  C_14
REMARK    9  A    between atoms: N_16  and  C_17
REMARK   10  A    between atoms: C_22  and  S_23
REMARK   11  A    between atoms: S_23  and  C_24
REMARK   12  A    between atoms: C_24  and  C_25
REMARK                            x       y       z     vdW  Elec       q    Type
REMARK                         _______ _______ _______ _____ _____    ______ ____
ROOT
ATOM      1  C   UNL     1       3.349  -0.344   8.019  0.00  0.00    +0.201 C 
ATOM      2  O   UNL     1       2.678   0.653   7.852  0.00  0.00    -0.278 OA
ATOM      3  N   UNL     1       4.012  -0.523   9.179  0.00  0.00    -0.286 N 
ATOM      4  H   UNL     1       4.483  -1.355   9.345  0.00  0.00    +0.155 HD
ENDROOT
BRANCH   3   5
ATOM      5  C   UNL     1       4.020   0.492  10.145  0.00  0.00    +0.047 A 
ATOM      6  C   UNL     1       3.826   1.812   9.768  0.00  0.00    +0.024 A 
ATOM      7  C   UNL     1       3.835   2.812  10.723  0.00  0.00    +0.002 A 
ATOM      8  C   UNL     1       4.037   2.500  12.055  0.00  0.00    +0.001 A 
ATOM      9  C   UNL     1       4.232   1.188  12.440  0.00  0.00    +0.016 A 
ATOM     10  C   UNL     1       4.219   0.176  11.489  0.00  0.00    +0.030 A 
BRANCH  10  11
ATOM     11  S   UNL     1       4.460  -1.499  11.978  0.00  0.00    -0.114 S 
BRANCH  11  12
ATOM     12  C   UNL     1       4.670  -1.406  13.777  0.00  0.00    +0.169 C 
BRANCH  12  13
ATOM     13  C   UNL     1       4.888  -2.791  14.330  0.00  0.00    +0.221 C 
ATOM     14  O   UNL     1       4.900  -3.747  13.583  0.00  0.00    -0.275 OA
ATOM     15  N   UNL     1       5.069  -2.968  15.654  0.00  0.00    -0.329 N 
ATOM     16  H   UNL     1       5.059  -2.203  16.251  0.00  0.00    +0.145 HD
ATOM     17  H   UNL     1       5.208  -3.859  16.009  0.00  0.00    +0.145 HD
ENDBRANCH  12  13
ENDBRANCH  11  12
ENDBRANCH  10  11
ENDBRANCH   3   5
BRANCH   1  18
ATOM     18  C   UNL     1       3.442  -1.381   6.930  0.00  0.00    +0.019 C 
BRANCH  18  19
ATOM     19  N   UNL     1       2.636  -0.955   5.778  0.00  0.00    +0.386 N 
ATOM     20  C   UNL     1       1.218  -0.918   6.159  0.00  0.00    -0.095 C 
ATOM     21  H   UNL     1       2.930  -0.036   5.484  0.00  0.00    -0.081 HD
BRANCH  19  22
ATOM     22  C   UNL     1       2.821  -1.905   4.673  0.00  0.00    -0.043 C 
BRANCH  22  26
ATOM     23  C   UNL     1       0.759  -0.486   1.212  0.00  0.00    -0.045 A 
ATOM     24  C   UNL     1       2.075  -0.124   1.429  0.00  0.00    +0.004 A 
ATOM     25  C   UNL     1       2.743  -0.583   2.549  0.00  0.00    +0.002 A 
ATOM     26  C   UNL     1       2.093  -1.404   3.452  0.00  0.00    -0.064 A 
ATOM     27  C   UNL     1       0.777  -1.765   3.235  0.00  0.00    +0.002 A 
ATOM     28  C   UNL     1       0.108  -1.302   2.117  0.00  0.00    +0.004 A 
BRANCH  23  30
ATOM     29  C   UNL     1       0.002   1.544   0.005  0.00  0.00    +0.012 C 
ATOM     30  C   UNL     1       0.032   0.015  -0.010  0.00  0.00    +0.013 C 
ATOM     31  C   UNL     1       0.755  -0.469  -1.268  0.00  0.00    +0.012 C 
ENDBRANCH  23  30
ENDBRANCH  22  26
ENDBRANCH  19  22
ENDBRANCH  18  19
ENDBRANCH   1  18
TORSDOF 9
