REMARK  Name = ZINC02952983
REMARK  5 active torsions:
REMARK  status: ('A' for Active; 'I' for Inactive)
REMARK    1  A    between atoms: C_1  and  C_2
REMARK    2  A    between atoms: C_6  and  C_17
REMARK    3  A    between atoms: N_8  and  C_9
REMARK    4  A    between atoms: C_20  and  C_23
REMARK    5  A    between atoms: C_23  and  O_24
REMARK                            x       y       z     vdW  Elec       q    Type
REMARK                         _______ _______ _______ _____ _____    ______ ____
ROOT
ATOM      1  C   UNL     1       0.220   0.469   0.438  0.00  0.00    +0.069 C 
ATOM      2  C   UNL     1       0.163  -0.978   0.021  0.00  0.00    +0.081 A 
ATOM      3  C   UNL     1       0.094  -1.305  -1.326  0.00  0.00    +0.159 A 
ATOM      4  C   UNL     1       0.044  -2.664  -1.692  0.00  0.00    +0.027 A 
ATOM      5  C   UNL     1      -0.023  -3.031  -3.108  0.00  0.00    +0.030 A 
ATOM      6  C   UNL     1       0.234  -2.040  -4.029  0.00  0.00    +0.097 A 
ATOM      7  C   UNL     1       0.556  -0.697  -3.507  0.00  0.00    +0.212 A 
ATOM      8  N   UNL     1       1.291   0.141  -4.205  0.00  0.00    -0.325 N 
ATOM      9  O   UNL     1       0.073  -0.350  -2.286  0.00  0.00    -0.437 OA
ATOM     10  C   UNL     1       0.062  -3.631  -0.680  0.00  0.00    +0.007 A 
ATOM     11  C   UNL     1       0.131  -3.209   0.632  0.00  0.00    +0.117 A 
ATOM     12  N   UNL     1       0.184  -1.925   0.936  0.00  0.00    -0.256 NA
ATOM     13  H   UNL     1       1.703  -0.149  -5.033  0.00  0.00    +0.169 HD
ENDROOT
BRANCH   8  14
ATOM     14  C   UNL     1       1.474   1.422  -3.762  0.00  0.00    +0.042 A 
ATOM     15  C   UNL     1       0.390   2.159  -3.279  0.00  0.00    +0.027 A 
ATOM     16  C   UNL     1       0.582   3.450  -2.834  0.00  0.00    +0.017 A 
ATOM     17  C   UNL     1       1.845   4.016  -2.866  0.00  0.00    +0.018 A 
ATOM     18  C   UNL     1       2.924   3.292  -3.343  0.00  0.00    +0.017 A 
ATOM     19  C   UNL     1       2.747   1.997  -3.786  0.00  0.00    +0.027 A 
ATOM     20 BR   UNL     1       2.099   5.788  -2.254  0.00  0.00    -0.050 Br
ENDBRANCH   8  14
BRANCH   6  21
ATOM     21  C   UNL     1       0.190  -2.309  -5.478  0.00  0.00    +0.247 C 
ATOM     22  O   UNL     1       0.299  -1.393  -6.271  0.00  0.00    -0.270 OA
ATOM     23  N   UNL     1       0.028  -3.571  -5.925  0.00  0.00    -0.325 N 
ATOM     24  H   UNL     1      -0.131  -4.291  -5.295  0.00  0.00    +0.145 HD
ATOM     25  H   UNL     1       0.072  -3.758  -6.875  0.00  0.00    +0.145 HD
ENDBRANCH   6  21
BRANCH  10  26
ATOM     26  C   UNL     1       0.007  -5.099  -1.015  0.00  0.00    +0.193 C 
BRANCH  26  27
ATOM     27  O   UNL     1       0.039  -5.865   0.191  0.00  0.00    -0.390 OA
ATOM     28  H   UNL     1       0.006  -6.821   0.050  0.00  0.00    +0.210 HD
ENDBRANCH  26  27
ENDBRANCH  10  26
TORSDOF 4
