REMARK  Name = ZINC39631627
REMARK  11 active torsions:
REMARK  status: ('A' for Active; 'I' for Inactive)
REMARK    1  A    between atoms: C_1  and  C_2
REMARK    2  A    between atoms: C_2  and  C_4
REMARK    3  A    between atoms: C_2  and  N_11
REMARK    4  A    between atoms: C_4  and  C_5
REMARK    5  A    between atoms: C_5  and  C_6
REMARK    6  A    between atoms: C_6  and  C_7
REMARK    7  A    between atoms: C_7  and  C_8
REMARK    8  A    between atoms: C_7  and  C_9
REMARK    9  A    between atoms: C_7  and  O_10
REMARK   10  A    between atoms: C_12  and  C_14
REMARK   11  A    between atoms: C_25  and  C_27
REMARK                            x       y       z     vdW  Elec       q    Type
REMARK                         _______ _______ _______ _____ _____    ______ ____
ROOT
ATOM      1  C   UNL     1       9.630   7.902 -11.528  0.00  0.00    +0.100 C 
ATOM      2  C   UNL     1       8.785   8.144 -12.799  0.00  0.00    +0.121 C 
ATOM      3  N   UNL     1       9.162   9.506 -13.245  0.00  0.00    -0.296 N 
ATOM      4  C   UNL     1      10.623   9.581 -13.007  0.00  0.00    +0.115 C 
ATOM      5  C   UNL     1      10.837   8.844 -11.670  0.00  0.00    -0.004 C 
ATOM      6  C   UNL     1      12.133   8.040 -11.712  0.00  0.00    -0.010 C 
ATOM      7  C   UNL     1      13.322   9.001 -11.794  0.00  0.00    -0.082 C 
ATOM      8  N   UNL     1      13.314   9.894 -10.630  0.00  0.00    +0.379 N 
ATOM      9  C   UNL     1      12.107  10.730 -10.648  0.00  0.00    -0.082 C 
ATOM     10  C   UNL     1      10.867   9.842 -10.517  0.00  0.00    -0.010 C 
ATOM     11  C   UNL     1       8.357  10.461 -13.751  0.00  0.00    +0.248 C 
ATOM     12  O   UNL     1       8.782  11.588 -13.918  0.00  0.00    -0.270 OA
ATOM     13  H   UNL     1      13.327   9.343  -9.785  0.00  0.00    -0.086 HD
ATOM     14  H   UNL     1      14.132  10.485 -10.655  0.00  0.00    -0.086 HD
ENDROOT
BRANCH  11  15
ATOM     15  C   UNL     1       6.959  10.139 -14.104  0.00  0.00    +0.057 A 
ATOM     16  C   UNL     1       6.099   9.603 -13.143  0.00  0.00    +0.014 A 
ATOM     17  C   UNL     1       4.795   9.304 -13.478  0.00  0.00    +0.002 A 
ATOM     18  C   UNL     1       4.337   9.534 -14.764  0.00  0.00    +0.021 A 
ATOM     19  C   UNL     1       5.182  10.064 -15.722  0.00  0.00    +0.060 A 
ATOM     20  C   UNL     1       6.490  10.374 -15.398  0.00  0.00    +0.071 A 
ATOM     21 CL   UNL     1       7.548  11.047 -16.599  0.00  0.00    -0.081 Cl
ATOM     22 CL   UNL     1       4.597  10.348 -17.332  0.00  0.00    -0.082 Cl
ENDBRANCH  11  15
BRANCH   1  24
ATOM     23  N   UNL     1       9.081   7.614  -9.133  0.00  0.00    -0.312 N 
ATOM     24  C   UNL     1       8.835   8.250 -10.296  0.00  0.00    +0.218 C 
ATOM     25  O   UNL     1       7.974   9.102 -10.350  0.00  0.00    -0.275 OA
ATOM     26  H   UNL     1       9.833   7.005  -9.063  0.00  0.00    +0.149 HD
BRANCH  23  28
ATOM     27  C   UNL     1       8.826   8.926  -7.085  0.00  0.00    +0.028 C 
ATOM     28  C   UNL     1       8.214   7.842  -7.975  0.00  0.00    +0.070 C 
BRANCH  28  29
ATOM     29  C   UNL     1       8.076   6.544  -7.177  0.00  0.00    +0.022 C 
BRANCH  29  30
ATOM     30  C   UNL     1       9.466   5.970  -6.893  0.00  0.00    +0.005 C 
BRANCH  30  31
ATOM     31  C   UNL     1       9.325   4.605  -6.218  0.00  0.00    +0.034 C 
BRANCH  31  32
ATOM     32  C   UNL     1      10.715   4.037  -5.922  0.00  0.00    +0.061 C 
ATOM     33  C   UNL     1      11.535   5.071  -5.148  0.00  0.00    +0.041 C 
ATOM     34  C   UNL     1      10.578   2.764  -5.084  0.00  0.00    +0.041 C 
BRANCH  32  35
ATOM     35  O   UNL     1      11.375   3.729  -7.152  0.00  0.00    -0.389 OA
ATOM     36  H   UNL     1      11.558   4.501  -7.704  0.00  0.00    +0.210 HD
ENDBRANCH  32  35
ENDBRANCH  31  32
ENDBRANCH  30  31
ENDBRANCH  29  30
ENDBRANCH  28  29
ENDBRANCH  23  28
ENDBRANCH   1  24
TORSDOF 8
