REMARK  Name = ZINC03188668
REMARK  2 active torsions:
REMARK  status: ('A' for Active; 'I' for Inactive)
REMARK    1  A    between atoms: C_4  and  S_7
REMARK    2  A    between atoms: S_7  and  N_10
REMARK                            x       y       z     vdW  Elec       q    Type
REMARK                         _______ _______ _______ _____ _____    ______ ____
ROOT
ATOM      1  N   UNL     1       4.378  -1.079   1.536  0.00  0.00    -0.108 NA
ATOM      2  C   UNL     1       5.499  -1.705   1.812  0.00  0.00    +0.183 C 
ATOM      3  C   UNL     1       5.814  -1.887   3.238  0.00  0.00    +0.025 A 
ATOM      4  C   UNL     1       4.779  -2.134   4.145  0.00  0.00    +0.012 A 
ATOM      5  C   UNL     1       5.062  -2.347   5.477  0.00  0.00    +0.001 A 
ATOM      6  C   UNL     1       6.371  -2.324   5.922  0.00  0.00    +0.000 A 
ATOM      7  C   UNL     1       7.399  -2.066   5.035  0.00  0.00    +0.006 A 
ATOM      8  C   UNL     1       7.124  -1.827   3.702  0.00  0.00    -0.019 A 
ATOM      9  C   UNL     1       8.232  -1.441   2.768  0.00  0.00    +0.147 C 
ATOM     10  N   UNL     1       8.384  -2.392   1.673  0.00  0.00    -0.287 N 
ATOM     11  C   UNL     1       9.525  -3.143   1.643  0.00  0.00    +0.077 C 
ATOM     12  C   UNL     1       9.823  -3.920   0.580  0.00  0.00    +0.015 C 
ATOM     13  C   UNL     1       8.944  -3.977  -0.510  0.00  0.00    +0.005 C 
ATOM     14  C   UNL     1       7.773  -3.288  -0.457  0.00  0.00    +0.044 C 
ATOM     15  C   UNL     1       7.446  -2.544   0.703  0.00  0.00    +0.128 C 
ATOM     16  N   UNL     1       6.207  -2.103   0.794  0.00  0.00    -0.211 NA
ENDROOT
BRANCH   1  17
ATOM     17  S   UNL     1       3.934  -0.832  -0.041  0.00  0.00    +0.101 S 
ATOM     18  O   UNL     1       3.674  -2.114  -0.595  0.00  0.00    -0.146 OA
ATOM     19  O   UNL     1       4.890   0.060  -0.597  0.00  0.00    -0.146 OA
BRANCH  17  23
ATOM     20  C   UNL     1      -0.017   1.378   0.010  0.00  0.00    +0.000 A 
ATOM     21  C   UNL     1       1.171   2.086   0.002  0.00  0.00    +0.002 A 
ATOM     22  C   UNL     1       2.377   1.411  -0.013  0.00  0.00    +0.029 A 
ATOM     23  C   UNL     1       2.396   0.029  -0.020  0.00  0.00    +0.113 A 
ATOM     24  C   UNL     1       1.208  -0.679  -0.012  0.00  0.00    +0.029 A 
ATOM     25  C   UNL     1       0.002  -0.004   0.002  0.00  0.00    +0.002 A 
ENDBRANCH  17  23
ENDBRANCH   1  17
TORSDOF 2
