REMARK  Name = ZINC20352305
REMARK  10 active torsions:
REMARK  status: ('A' for Active; 'I' for Inactive)
REMARK    1  A    between atoms: C_1  and  C_2
REMARK    2  A    between atoms: C_4  and  O_10
REMARK    3  A    between atoms: C_6  and  C_9
REMARK    4  A    between atoms: O_10  and  C_11
REMARK    5  A    between atoms: C_11  and  C_12
REMARK    6  A    between atoms: C_14  and  C_20
REMARK    7  A    between atoms: C_17  and  O_18
REMARK    8  A    between atoms: O_18  and  C_19
REMARK    9  A    between atoms: N_21  and  N_22
REMARK   10  A    between atoms: C_23  and  C_24
REMARK                            x       y       z     vdW  Elec       q    Type
REMARK                         _______ _______ _______ _____ _____    ______ ____
ROOT
ATOM      1  C   UNL     1      -3.814  -6.238  -5.491  0.00  0.00    +0.032 A 
ATOM      2  C   UNL     1      -3.392  -5.204  -6.297  0.00  0.00    +0.020 A 
ATOM      3  C   UNL     1      -2.607  -5.473  -7.423  0.00  0.00    -0.005 A 
ATOM      4  C   UNL     1      -2.255  -6.794  -7.725  0.00  0.00    +0.013 A 
ATOM      5  C   UNL     1      -2.682  -7.820  -6.913  0.00  0.00    +0.046 A 
ATOM      6  C   UNL     1      -3.457  -7.546  -5.792  0.00  0.00    +0.127 A 
ENDROOT
BRANCH   6   7
ATOM      7  O   UNL     1      -3.870  -8.562  -4.991  0.00  0.00    -0.495 OA
ATOM      8  C   UNL     1      -3.468  -9.883  -5.358  0.00  0.00    +0.277 C 
ENDBRANCH   6   7
BRANCH   3   9
ATOM      9  C   UNL     1      -2.155  -4.373  -8.287  0.00  0.00    +0.140 C 
ATOM     10  N   UNL     1      -1.422  -4.628  -9.340  0.00  0.00    -0.180 NA
BRANCH  10  11
ATOM     11  N   UNL     1      -1.025  -3.663 -10.098  0.00  0.00    -0.263 N 
ATOM     12  C   UNL     1      -0.287  -3.919 -11.156  0.00  0.00    +0.143 C 
ATOM     13  N   UNL     1       0.062  -5.219 -11.455  0.00  0.00    -0.342 N 
ATOM     14  H   UNL     1      -0.127  -5.930 -10.823  0.00  0.00    +0.144 HD
ATOM     15  H   UNL     1       0.496  -5.423 -12.299  0.00  0.00    +0.144 HD
ATOM     16  H   UNL     1      -1.270  -2.748  -9.887  0.00  0.00    +0.190 HD
BRANCH  12  17
ATOM     17  C   UNL     1       0.167  -2.814 -12.024  0.00  0.00    +0.187 A 
ATOM     18  C   UNL     1       1.301  -2.862 -12.956  0.00  0.00    +0.191 A 
ATOM     19  N   UNL     1       1.396  -1.702 -13.546  0.00  0.00    -0.033 NA
ATOM     20  O   UNL     1       0.364  -0.871 -13.045  0.00  0.00    -0.240 OA
ATOM     21  N   UNL     1      -0.375  -1.624 -12.100  0.00  0.00    -0.044 NA
ATOM     22  N   UNL     1       2.131  -3.954 -13.172  0.00  0.00    -0.339 N 
ATOM     23  H   UNL     1       2.058  -4.738 -12.605  0.00  0.00    +0.144 HD
ATOM     24  H   UNL     1       2.783  -3.933 -13.889  0.00  0.00    +0.144 HD
ENDBRANCH  12  17
ENDBRANCH  10  11
ENDBRANCH   3   9
BRANCH   1  25
ATOM     25  C   UNL     1      -4.659  -5.949  -4.277  0.00  0.00    +0.268 C 
BRANCH  25  26
ATOM     26  O   UNL     1      -4.890  -4.542  -4.181  0.00  0.00    -0.487 OA
BRANCH  26  30
ATOM     27  C   UNL     1      -6.955  -0.850  -1.747  0.00  0.00    +0.045 C 
ATOM     28  C   UNL     1      -6.668  -2.320  -1.915  0.00  0.00    -0.028 A 
ATOM     29  C   UNL     1      -5.905  -2.757  -2.980  0.00  0.00    +0.050 A 
ATOM     30  C   UNL     1      -5.641  -4.110  -3.134  0.00  0.00    +0.122 A 
ATOM     31  C   UNL     1      -6.144  -5.022  -2.217  0.00  0.00    +0.050 A 
ATOM     32  C   UNL     1      -6.908  -4.581  -1.154  0.00  0.00    -0.028 A 
ATOM     33  C   UNL     1      -7.165  -3.230  -0.999  0.00  0.00    +0.047 A 
ATOM     34 CL   UNL     1      -8.119  -2.677   0.342  0.00  0.00    -0.083 Cl
ATOM     35  C   UNL     1      -7.455  -5.571  -0.158  0.00  0.00    +0.045 C 
ENDBRANCH  26  30
ENDBRANCH  25  26
ENDBRANCH   1  25
TORSDOF 7
