REMARK  Name = ZINC66365643
REMARK  15 active torsions:
REMARK  status: ('A' for Active; 'I' for Inactive)
REMARK    1  A    between atoms: C_1  and  C_2
REMARK    2  A    between atoms: C_2  and  C_3
REMARK    3  A    between atoms: C_3  and  C_5
REMARK    4  A    between atoms: C_3  and  N_8
REMARK    5  A    between atoms: C_5  and  C_6
REMARK    6  A    between atoms: C_5  and  C_7
REMARK    7  A    between atoms: N_11  and  C_12
REMARK    8  A    between atoms: C_15  and  C_18
REMARK    9  A    between atoms: N_20  and  C_21
REMARK   10  A    between atoms: C_21  and  C_22
REMARK   11  A    between atoms: C_22  and  N_23
REMARK   12  A    between atoms: N_23  and  C_24
REMARK   13  A    between atoms: N_23  and  C_26
REMARK   14  A    between atoms: C_24  and  C_25
REMARK   15  A    between atoms: C_26  and  C_27
REMARK                            x       y       z     vdW  Elec       q    Type
REMARK                         _______ _______ _______ _____ _____    ______ ____
ROOT
ATOM      1  C   UNL     1       4.169   2.489  -3.136  0.00  0.00    +0.035 A 
ATOM      2  C   UNL     1       3.277   3.423  -3.655  0.00  0.00    +0.024 A 
ATOM      3  C   UNL     1       3.724   4.670  -4.028  0.00  0.00    +0.015 A 
ATOM      4  C   UNL     1       5.075   4.998  -3.885  0.00  0.00    +0.037 A 
ATOM      5  C   UNL     1       5.968   4.058  -3.362  0.00  0.00    +0.015 A 
ATOM      6  C   UNL     1       5.513   2.814  -2.987  0.00  0.00    +0.024 A 
ENDROOT
BRANCH   1  10
ATOM      7  N   UNL     1       2.365  -0.636  -3.164  0.00  0.00    -0.296 N 
ATOM      8  C   UNL     1       2.737   0.623  -3.467  0.00  0.00    +0.304 C 
ATOM      9  O   UNL     1       2.194   1.215  -4.380  0.00  0.00    -0.253 OA
ATOM     10  N   UNL     1       3.712   1.227  -2.759  0.00  0.00    -0.269 N 
ATOM     11  H   UNL     1       2.798  -1.108  -2.436  0.00  0.00    +0.151 HD
ATOM     12  H   UNL     1       4.097   0.783  -1.987  0.00  0.00    +0.156 HD
BRANCH   7  13
ATOM     13  C   UNL     1       1.305  -1.292  -3.934  0.00  0.00    +0.077 C 
BRANCH  13  14
ATOM     14  C   UNL     1       1.481  -2.809  -3.854  0.00  0.00    +0.003 C 
ATOM     15  C   UNL     1       0.374  -3.494  -4.658  0.00  0.00    +0.009 C 
ATOM     16  C   UNL     1       2.845  -3.196  -4.431  0.00  0.00    +0.009 C 
ENDBRANCH  13  14
BRANCH  13  18
ATOM     17  C   UNL     1      -0.287   0.595  -3.550  0.00  0.00    +0.006 C 
ATOM     18  C   UNL     1      -0.058  -0.906  -3.357  0.00  0.00    +0.019 C 
ENDBRANCH  13  18
ENDBRANCH   7  13
ENDBRANCH   1  10
BRANCH   4  19
ATOM     19  C   UNL     1       5.558   6.335  -4.284  0.00  0.00    +0.244 C 
ATOM     20  O   UNL     1       4.780   7.151  -4.739  0.00  0.00    -0.270 OA
ATOM     21  N   UNL     1       6.861   6.649  -4.145  0.00  0.00    -0.313 N 
ATOM     22  H   UNL     1       7.481   5.998  -3.782  0.00  0.00    +0.149 HD
BRANCH  21  23
ATOM     23  C   UNL     1       7.340   7.976  -4.542  0.00  0.00    +0.086 C 
BRANCH  23  24
ATOM     24  C   UNL     1       8.845   8.073  -4.282  0.00  0.00    -0.060 C 
BRANCH  24  25
ATOM     25  N   UNL     1       9.311   9.429  -4.602  0.00  0.00    +0.380 N 
ATOM     26  H   UNL     1       9.029   9.669  -5.540  0.00  0.00    -0.082 HD
BRANCH  25  27
ATOM     27  C   UNL     1       8.722  10.385  -3.654  0.00  0.00    -0.082 C 
ATOM     28  C   UNL     1       9.106  11.809  -4.061  0.00  0.00    -0.017 C 
ENDBRANCH  25  27
BRANCH  25  29
ATOM     29  C   UNL     1      10.776   9.480  -4.502  0.00  0.00    -0.082 C 
ATOM     30  C   UNL     1      11.392   8.593  -5.585  0.00  0.00    -0.017 C 
ENDBRANCH  25  29
ENDBRANCH  24  25
ENDBRANCH  23  24
ENDBRANCH  21  23
ENDBRANCH   4  19
TORSDOF 10
