REMARK  Name = ZINC46583475
REMARK  9 active torsions:
REMARK  status: ('A' for Active; 'I' for Inactive)
REMARK    1  A    between atoms: C_1  and  C_2
REMARK    2  A    between atoms: C_2  and  C_4
REMARK    3  A    between atoms: C_2  and  N_12
REMARK    4  A    between atoms: N_12  and  C_13
REMARK    5  A    between atoms: N_12  and  C_14
REMARK    6  A    between atoms: C_14  and  C_15
REMARK    7  A    between atoms: N_17  and  C_18
REMARK    8  A    between atoms: C_22  and  S_24
REMARK    9  A    between atoms: S_24  and  N_27
REMARK                            x       y       z     vdW  Elec       q    Type
REMARK                         _______ _______ _______ _____ _____    ______ ____
ROOT
ATOM      1  C   UNL     1       1.353  -2.461   2.462  0.00  0.00    +0.201 C 
ATOM      2  O   UNL     1       1.748  -1.671   3.295  0.00  0.00    -0.278 OA
ATOM      3  N   UNL     1       1.476  -3.785   2.678  0.00  0.00    -0.287 N 
ATOM      4  H   UNL     1       1.101  -4.417   2.045  0.00  0.00    +0.155 HD
ENDROOT
BRANCH   3   5
ATOM      5  C   UNL     1       2.145  -4.250   3.816  0.00  0.00    +0.035 A 
ATOM      6  C   UNL     1       2.909  -5.407   3.750  0.00  0.00    +0.023 A 
ATOM      7  C   UNL     1       3.568  -5.863   4.875  0.00  0.00    +0.004 A 
ATOM      8  C   UNL     1       3.466  -5.169   6.067  0.00  0.00    +0.028 A 
ATOM      9  C   UNL     1       2.706  -4.016   6.136  0.00  0.00    +0.107 A 
ATOM     10  C   UNL     1       2.050  -3.551   5.013  0.00  0.00    +0.051 A 
BRANCH   9  11
ATOM     11  S   UNL     1       2.579  -3.135   7.657  0.00  0.00    +0.056 S 
ATOM     12  O   UNL     1       1.369  -2.392   7.596  0.00  0.00    -0.153 OA
ATOM     13  O   UNL     1       2.848  -4.071   8.692  0.00  0.00    -0.153 OA
BRANCH  11  14
ATOM     14  N   UNL     1       3.812  -2.030   7.686  0.00  0.00    -0.204 NA
ATOM     15  H   UNL     1       3.701  -1.192   8.163  0.00  0.00    +0.144 HD
ATOM     16  H   UNL     1       4.645  -2.220   7.226  0.00  0.00    +0.144 HD
ENDBRANCH  11  14
ENDBRANCH   9  11
ENDBRANCH   3   5
BRANCH   1  17
ATOM     17  C   UNL     1       0.726  -1.960   1.187  0.00  0.00    +0.019 C 
BRANCH  17  18
ATOM     18  N   UNL     1       0.710  -0.491   1.193  0.00  0.00    +0.388 N 
ATOM     19  C   UNL     1       2.089   0.014   1.172  0.00  0.00    -0.095 C 
ATOM     20  H   UNL     1       0.244  -0.163   2.026  0.00  0.00    -0.081 HD
BRANCH  18  22
ATOM     21  C   UNL     1      -0.025   1.526   0.014  0.00  0.00    -0.008 C 
ATOM     22  C   UNL     1      -0.008  -0.004   0.007  0.00  0.00    -0.039 C 
BRANCH  22  23
ATOM     23  C   UNL     1      -1.423  -0.523   0.029  0.00  0.00    -0.043 A 
ATOM     24  C   UNL     1      -2.018  -0.858   1.230  0.00  0.00    +0.005 A 
ATOM     25  C   UNL     1      -3.316  -1.333   1.251  0.00  0.00    +0.020 A 
ATOM     26  C   UNL     1      -4.020  -1.474   0.068  0.00  0.00    +0.042 A 
ATOM     27  C   UNL     1      -3.425  -1.138  -1.135  0.00  0.00    +0.040 A 
ATOM     28  C   UNL     1      -2.128  -0.658  -1.154  0.00  0.00    +0.044 A 
ATOM     29 CL   UNL     1      -1.382  -0.230  -2.663  0.00  0.00    -0.083 Cl
ATOM     30 CL   UNL     1      -5.649  -2.071   0.093  0.00  0.00    -0.083 Cl
ENDBRANCH  22  23
ENDBRANCH  18  22
ENDBRANCH  17  18
ENDBRANCH   1  17
TORSDOF 7
