REMARK  Name = ZINC20504782
REMARK  14 active torsions:
REMARK  status: ('A' for Active; 'I' for Inactive)
REMARK    1  A    between atoms: C_1  and  C_2
REMARK    2  A    between atoms: C_5  and  O_38
REMARK    3  A    between atoms: C_7  and  C_35
REMARK    4  A    between atoms: C_7  and  C_36
REMARK    5  A    between atoms: N_16  and  C_17
REMARK    6  A    between atoms: C_17  and  C_19
REMARK    7  A    between atoms: C_24  and  C_26
REMARK    8  A    between atoms: C_26  and  C_27
REMARK    9  A    between atoms: N_29  and  C_30
REMARK   10  A    between atoms: C_30  and  C_31
REMARK   11  A    between atoms: C_31  and  N_32
REMARK   12  A    between atoms: N_32  and  C_33
REMARK   13  A    between atoms: N_32  and  C_34
REMARK   14  A    between atoms: C_36  and  O_37
REMARK                            x       y       z     vdW  Elec       q    Type
REMARK                         _______ _______ _______ _____ _____    ______ ____
ROOT
ATOM      1  C   UNL     1      -0.362   1.273  -0.024  0.00  0.00    +0.012 C 
ATOM      2  C   UNL     1      -1.171   1.841   1.144  0.00  0.00    -0.020 C 
ATOM      3  C   UNL     1      -0.897   1.018   2.407  0.00  0.00    +0.010 C 
ATOM      4  C   UNL     1       0.574   1.127   2.804  0.00  0.00    +0.032 C 
ATOM      5  C   UNL     1       0.898   2.596   3.094  0.00  0.00    +0.123 C 
ATOM      6  C   UNL     1       0.670   3.409   1.821  0.00  0.00    +0.021 C 
ATOM      7  C   UNL     1      -0.783   3.303   1.373  0.00  0.00    +0.011 C 
ATOM      8  C   UNL     1      -0.910   4.070   0.043  0.00  0.00    +0.049 C 
ATOM      9  C   UNL     1      -2.207   3.719  -0.597  0.00  0.00    +0.013 A 
ATOM     10  C   UNL     1      -3.033   2.687  -0.287  0.00  0.00    +0.032 A 
ATOM     11  N   UNL     1      -4.142   2.587  -1.017  0.00  0.00    -0.339 N 
ATOM     12  C   UNL     1      -4.425   3.437  -1.983  0.00  0.00    +0.164 A 
ATOM     13  S   UNL     1      -3.060   4.513  -1.933  0.00  0.00    -0.057 S 
ATOM     14  N   UNL     1      -5.529   3.466  -2.824  0.00  0.00    -0.152 NA
ATOM     15  C   UNL     1      -2.670   1.724   0.835  0.00  0.00    +0.051 C 
ATOM     16  C   UNL     1       1.011   4.876   2.090  0.00  0.00    +0.016 C 
ATOM     17  H   UNL     1      -4.857   1.774  -0.823  0.00  0.00    +0.167 HD
ENDROOT
BRANCH  14  18
ATOM     18  C   UNL     1      -5.638   4.429  -3.761  0.00  0.00    +0.276 C 
ATOM     19  O   UNL     1      -4.767   5.273  -3.869  0.00  0.00    -0.267 OA
BRANCH  18  20
ATOM     20  C   UNL     1      -6.803   4.460  -4.648  0.00  0.00    +0.076 A 
ATOM     21  C   UNL     1      -7.107   5.356  -5.661  0.00  0.00    +0.021 A 
ATOM     22  C   UNL     1      -8.276   5.149  -6.349  0.00  0.00    +0.008 A 
ATOM     23  C   UNL     1      -9.072   4.104  -6.005  0.00  0.00    +0.046 A 
ATOM     24  S   UNL     1      -8.206   3.358  -4.702  0.00  0.00    -0.092 S 
ENDBRANCH  18  20
ENDBRANCH  14  18
BRANCH   5  25
ATOM     25  O   UNL     1       2.263   2.714   3.500  0.00  0.00    -0.391 OA
ATOM     26  H   UNL     1       2.679   3.701   3.751  0.00  0.00    +0.210 HD
ENDBRANCH   5  25
BRANCH  15  27
ATOM     27  C   UNL     1      -2.994   0.290   0.413  0.00  0.00    +0.106 C 
BRANCH  27  28
ATOM     28  C   UNL     1      -4.487   0.124   0.303  0.00  0.00    +0.214 C 
ATOM     29  O   UNL     1      -5.221   1.060   0.539  0.00  0.00    -0.276 OA
ATOM     30  N   UNL     1      -5.008  -1.066  -0.058  0.00  0.00    -0.317 N 
ATOM     31  H   UNL     1      -4.343  -1.916  -0.271  0.00  0.00    +0.149 HD
BRANCH  30  32
ATOM     32  C   UNL     1      -6.460  -1.228  -0.165  0.00  0.00    +0.085 C 
BRANCH  32  33
ATOM     33  C   UNL     1      -6.784  -2.662  -0.587  0.00  0.00    -0.061 C 
BRANCH  33  34
ATOM     34  N   UNL     1      -8.240  -2.824  -0.694  0.00  0.00    +0.377 N 
ATOM     35  C   UNL     1      -8.781  -2.007  -1.789  0.00  0.00    -0.097 C 
ATOM     36  C   UNL     1      -8.601  -4.238  -0.864  0.00  0.00    -0.097 C 
ATOM     37  H   UNL     1      -8.690  -2.471   0.245  0.00  0.00    -0.083 HD
ENDBRANCH  33  34
ENDBRANCH  32  33
ENDBRANCH  30  32
ENDBRANCH  27  28
ENDBRANCH  15  27
BRANCH   6  38
ATOM     38  C   UNL     1       1.576   2.874   0.710  0.00  0.00    +0.165 C 
BRANCH  38  39
ATOM     39  O   UNL     1       2.942   3.135   1.042  0.00  0.00    -0.394 OA
ATOM     40  H   UNL     1       3.744   2.821   0.357  0.00  0.00    +0.209 HD
ENDBRANCH  38  39
ENDBRANCH   6  38
TORSDOF 10
