REMARK  Name = ZINC56604790
REMARK  5 active torsions:
REMARK  status: ('A' for Active; 'I' for Inactive)
REMARK    1  A    between atoms: C_4  and  N_11
REMARK    2  A    between atoms: C_5  and  C_7
REMARK    3  A    between atoms: C_7  and  C_8
REMARK    4  A    between atoms: N_18  and  C_21
REMARK    5  A    between atoms: C_21  and  C_22
REMARK                            x       y       z     vdW  Elec       q    Type
REMARK                         _______ _______ _______ _____ _____    ______ ____
ROOT
ATOM      1  N   UNL     1       3.273  -0.889  -0.617  0.00  0.00    -0.269 N 
ATOM      2  C   UNL     1       4.409  -0.166  -0.552  0.00  0.00    +0.306 C 
ATOM      3  O   UNL     1       4.354   1.047  -0.488  0.00  0.00    -0.252 OA
ATOM      4  N   UNL     1       5.605  -0.787  -0.558  0.00  0.00    -0.287 N 
ATOM      5  C   UNL     1       5.644  -2.255  -0.716  0.00  0.00    +0.107 C 
ATOM      6  C   UNL     1       6.782  -2.680  -1.662  0.00  0.00    +0.000 C 
ATOM      7  C   UNL     1       6.866  -1.707  -2.817  0.00  0.00    -0.077 C 
ATOM      8  N   UNL     1       7.841  -0.666  -2.501  0.00  0.00    +0.381 N 
ATOM      9  C   UNL     1       7.320   0.446  -1.802  0.00  0.00    -0.060 C 
ATOM     10  C   UNL     1       6.806   0.010  -0.415  0.00  0.00    +0.091 C 
ATOM     11  H   UNL     1       3.316  -1.857  -0.645  0.00  0.00    +0.156 HD
ATOM     12  H   UNL     1       8.576  -1.077  -1.944  0.00  0.00    -0.082 HD
ENDROOT
BRANCH   1  16
ATOM     13  C   UNL     1      -0.421   1.036  -0.700  0.00  0.00    +0.000 A 
ATOM     14  C   UNL     1       0.683   1.684  -0.175  0.00  0.00    +0.002 A 
ATOM     15  C   UNL     1       1.909   1.048  -0.146  0.00  0.00    +0.023 A 
ATOM     16  C   UNL     1       2.032  -0.242  -0.644  0.00  0.00    +0.038 A 
ATOM     17  C   UNL     1       0.922  -0.889  -1.171  0.00  0.00    -0.017 A 
ATOM     18  C   UNL     1      -0.301  -0.248  -1.197  0.00  0.00    +0.006 A 
BRANCH  17  19
ATOM     19  C   UNL     1       1.052  -2.289  -1.713  0.00  0.00    +0.132 C 
BRANCH  19  20
ATOM     20  C   UNL     1       0.914  -3.280  -0.586  0.00  0.00    +0.215 C 
ATOM     21  O   UNL     1       0.729  -2.887   0.547  0.00  0.00    -0.276 OA
ATOM     22  N   UNL     1       0.997  -4.601  -0.836  0.00  0.00    -0.329 N 
ATOM     23  H   UNL     1       1.145  -4.915  -1.742  0.00  0.00    +0.145 HD
ATOM     24  H   UNL     1       0.908  -5.239  -0.110  0.00  0.00    +0.145 HD
ENDBRANCH  19  20
ENDBRANCH  17  19
ENDBRANCH   1  16
BRANCH   8  25
ATOM     25  C   UNL     1       8.432  -0.188  -3.757  0.00  0.00    -0.075 C 
BRANCH  25  26
ATOM     26  C   UNL     1       9.227  -1.320  -4.411  0.00  0.00    -0.028 C 
ATOM     27  C   UNL     1      10.430  -1.671  -3.534  0.00  0.00    +0.002 C 
ATOM     28  C   UNL     1      11.225  -2.804  -4.187  0.00  0.00    +0.000 C 
ATOM     29  C   UNL     1      11.712  -2.355  -5.566  0.00  0.00    +0.000 C 
ATOM     30  C   UNL     1      10.509  -2.004  -6.443  0.00  0.00    +0.000 C 
ATOM     31  C   UNL     1       9.714  -0.872  -5.790  0.00  0.00    +0.002 C 
ENDBRANCH  25  26
ENDBRANCH   8  25
TORSDOF 5
