REMARK  Name = ZINC22397172
REMARK  11 active torsions:
REMARK  status: ('A' for Active; 'I' for Inactive)
REMARK    1  A    between atoms: C_1  and  C_2
REMARK    2  A    between atoms: N_6  and  C_7
REMARK    3  A    between atoms: C_10  and  C_13
REMARK    4  A    between atoms: C_13  and  N_14
REMARK    5  A    between atoms: C_15  and  C_17
REMARK    6  A    between atoms: C_17  and  N_18
REMARK    7  A    between atoms: N_18  and  C_19
REMARK    8  A    between atoms: N_18  and  S_26
REMARK    9  A    between atoms: S_26  and  C_29
REMARK   10  A    between atoms: C_32  and  S_35
REMARK   11  A    between atoms: S_35  and  C_36
REMARK                            x       y       z     vdW  Elec       q    Type
REMARK                         _______ _______ _______ _____ _____    ______ ____
ROOT
ATOM      1  C   UNL     1       7.436   8.352  -2.340  0.00  0.00    +0.227 C 
ENDROOT
BRANCH   1   3
ATOM      2  N   UNL     1       5.493   6.835  -2.143  0.00  0.00    -0.310 N 
ATOM      3  C   UNL     1       6.024   8.052  -1.910  0.00  0.00    +0.232 C 
ATOM      4  O   UNL     1       5.364   8.905  -1.354  0.00  0.00    -0.274 OA
ATOM      5  H   UNL     1       6.091   6.061  -2.647  0.00  0.00    +0.149 HD
BRANCH   2   6
ATOM      6  C   UNL     1       4.120   6.543  -1.724  0.00  0.00    +0.139 C 
BRANCH   6  10
ATOM      7  C   UNL     1       3.132   2.522  -2.785  0.00  0.00    +0.048 A 
ATOM      8  C   UNL     1       2.893   3.556  -3.680  0.00  0.00    +0.026 A 
ATOM      9  C   UNL     1       3.208   4.855  -3.332  0.00  0.00    +0.007 A 
ATOM     10  C   UNL     1       3.772   5.125  -2.099  0.00  0.00    -0.030 A 
ATOM     11  C   UNL     1       4.017   4.096  -1.208  0.00  0.00    +0.007 A 
ATOM     12  C   UNL     1       3.699   2.796  -1.548  0.00  0.00    +0.026 A 
BRANCH   7  18
ATOM     13  C   UNL     1       0.414   1.625  -3.902  0.00  0.00    +0.084 C 
ATOM     14  C   UNL     1       1.622   0.766  -3.629  0.00  0.00    +0.088 A 
ATOM     15  N   UNL     1       1.704  -0.520  -3.833  0.00  0.00    -0.350 N 
ATOM     16  C   UNL     1       2.923  -0.950  -3.474  0.00  0.00    +0.102 A 
ATOM     17  C   UNL     1       3.630   0.109  -3.037  0.00  0.00    +0.110 A 
ATOM     18  N   UNL     1       2.809   1.203  -3.133  0.00  0.00    -0.305 N 
ATOM     19  H   UNL     1       0.842  -1.068  -4.242  0.00  0.00    +0.166 HD
ENDBRANCH   7  18
ENDBRANCH   6  10
ENDBRANCH   2   6
ENDBRANCH   1   3
BRANCH   1  20
ATOM     20  N   UNL     1       7.774   9.731  -1.976  0.00  0.00    -0.194 N 
BRANCH  20  21
ATOM     21  C   UNL     1       7.433  10.782  -2.830  0.00  0.00    +0.055 A 
ATOM     22  C   UNL     1       6.106  10.984  -3.189  0.00  0.00    +0.025 A 
ATOM     23  C   UNL     1       5.770  12.024  -4.034  0.00  0.00    +0.005 A 
ATOM     24  C   UNL     1       6.753  12.866  -4.522  0.00  0.00    +0.038 A 
ATOM     25  C   UNL     1       8.077  12.668  -4.166  0.00  0.00    +0.125 A 
ATOM     26  C   UNL     1       8.418  11.631  -3.317  0.00  0.00    +0.063 A 
ATOM     27  F   UNL     1       9.034  13.492  -4.645  0.00  0.00    -0.205 F 
ENDBRANCH  20  21
BRANCH  20  28
ATOM     28  S   UNL     1       8.562  10.042  -0.553  0.00  0.00    +0.075 S 
ATOM     29  O   UNL     1       8.378  11.425  -0.281  0.00  0.00    -0.150 OA
ATOM     30  O   UNL     1       8.167   9.027   0.360  0.00  0.00    -0.150 OA
BRANCH  28  31
ATOM     31  C   UNL     1      10.283   9.812  -0.849  0.00  0.00    +0.109 A 
ATOM     32  C   UNL     1      10.834   8.546  -0.768  0.00  0.00    +0.030 A 
ATOM     33  C   UNL     1      12.181   8.360  -1.005  0.00  0.00    +0.016 A 
ATOM     34  C   UNL     1      12.987   9.450  -1.313  0.00  0.00    +0.008 A 
ATOM     35  C   UNL     1      12.431  10.722  -1.388  0.00  0.00    +0.016 A 
ATOM     36  C   UNL     1      11.082  10.898  -1.155  0.00  0.00    +0.030 A 
BRANCH  34  37
ATOM     37  S   UNL     1      14.709   9.220  -1.610  0.00  0.00    -0.129 S 
ATOM     38  C   UNL     1      14.954   7.434  -1.403  0.00  0.00    +0.090 C 
ENDBRANCH  34  37
ENDBRANCH  28  31
ENDBRANCH  20  28
ENDBRANCH   1  20
TORSDOF 9
