REMARK  Name = ZINC31816590
REMARK  11 active torsions:
REMARK  status: ('A' for Active; 'I' for Inactive)
REMARK    1  A    between atoms: C_1  and  C_2
REMARK    2  A    between atoms: C_3  and  C_16
REMARK    3  A    between atoms: N_14  and  C_15
REMARK    4  A    between atoms: C_16  and  C_17
REMARK    5  A    between atoms: C_17  and  C_18
REMARK    6  A    between atoms: N_20  and  C_21
REMARK    7  A    between atoms: C_21  and  C_22
REMARK    8  A    between atoms: C_27  and  C_28
REMARK    9  A    between atoms: C_28  and  N_29
REMARK   10  A    between atoms: N_29  and  C_30
REMARK   11  A    between atoms: N_29  and  C_31
REMARK                            x       y       z     vdW  Elec       q    Type
REMARK                         _______ _______ _______ _____ _____    ______ ____
ROOT
ATOM      1  C   UNL     1       1.222   7.408  -1.407  0.00  0.00    +0.100 C 
ENDROOT
BRANCH   1   2
ATOM      2  C   UNL     1       1.880   8.764  -1.405  0.00  0.00    +0.214 C 
ATOM      3  O   UNL     1       2.238   9.263  -0.359  0.00  0.00    -0.276 OA
ATOM      4  N   UNL     1       2.072   9.421  -2.566  0.00  0.00    -0.311 N 
ATOM      5  H   UNL     1       1.748   8.968  -3.514  0.00  0.00    +0.149 HD
BRANCH   4   6
ATOM      6  C   UNL     1       2.713  10.739  -2.564  0.00  0.00    +0.139 C 
BRANCH   6   7
ATOM      7  C   UNL     1       2.808  11.253  -3.978  0.00  0.00    -0.029 A 
ATOM      8  C   UNL     1       4.000  11.154  -4.671  0.00  0.00    +0.005 A 
ATOM      9  C   UNL     1       4.085  11.621  -5.969  0.00  0.00    +0.000 A 
ATOM     10  C   UNL     1       2.982  12.197  -6.570  0.00  0.00    +0.000 A 
ATOM     11  C   UNL     1       1.791  12.300  -5.876  0.00  0.00    +0.002 A 
ATOM     12  C   UNL     1       1.704  11.828  -4.579  0.00  0.00    -0.059 A 
BRANCH  12  13
ATOM     13  C   UNL     1       0.406  11.941  -3.821  0.00  0.00    -0.043 C 
BRANCH  13  14
ATOM     14  N   UNL     1       0.468  13.095  -2.915  0.00  0.00    +0.379 N 
ATOM     15  C   UNL     1       0.543  14.354  -3.668  0.00  0.00    -0.096 C 
ATOM     16  C   UNL     1      -0.676  13.102  -1.992  0.00  0.00    -0.096 C 
ATOM     17  H   UNL     1       1.386  13.005  -2.315  0.00  0.00    -0.082 HD
ENDBRANCH  13  14
ENDBRANCH  12  13
ENDBRANCH   6   7
ENDBRANCH   4   6
ENDBRANCH   1   2
BRANCH   1  18
ATOM     18  C   UNL     1       1.125   6.886   0.029  0.00  0.00    +0.050 C 
BRANCH  18  21
ATOM     19  C   UNL     1       2.732   4.491  -0.001  0.00  0.00    +0.045 C 
ATOM     20  C   UNL     1       1.228   4.400   0.014  0.00  0.00    -0.026 A 
ATOM     21  C   UNL     1       0.467   5.531   0.027  0.00  0.00    +0.021 A 
ATOM     22  C   UNL     1      -0.933   5.428   0.040  0.00  0.00    +0.254 A 
ATOM     23  O   UNL     1      -1.611   6.443   0.052  0.00  0.00    -0.268 OA
ATOM     24  N   UNL     1      -1.539   4.227   0.039  0.00  0.00    -0.307 N 
ATOM     25  H   UNL     1      -2.637   4.164   0.049  0.00  0.00    +0.170 HD
ATOM     26  C   UNL     1      -0.809   3.080   0.026  0.00  0.00    +0.141 A 
ATOM     27  C   UNL     1       0.588   3.148   0.013  0.00  0.00    +0.086 A 
ATOM     28  C   UNL     1       1.077   1.764   0.001  0.00  0.00    +0.274 A 
ATOM     29  O   UNL     1       2.240   1.405  -0.012  0.00  0.00    -0.266 OA
ATOM     30  N   UNL     1      -0.011   0.966   0.007  0.00  0.00    -0.262 N 
ATOM     31  H   UNL     1       0.108  -0.128   0.005  0.00  0.00    +0.190 HD
ATOM     32  N   UNL     1      -1.161   1.762   0.017  0.00  0.00    -0.271 N 
ATOM     33  C   UNL     1      -2.536   1.256   0.020  0.00  0.00    +0.172 C 
ENDBRANCH  18  21
ENDBRANCH   1  18
TORSDOF 7
