REMARK  Name = ZINC40720520
REMARK  14 active torsions:
REMARK  status: ('A' for Active; 'I' for Inactive)
REMARK    1  A    between atoms: C_1  and  C_2
REMARK    2  A    between atoms: C_2  and  O_3
REMARK    3  A    between atoms: O_3  and  C_4
REMARK    4  A    between atoms: C_6  and  C_21
REMARK    5  A    between atoms: C_9  and  O_10
REMARK    6  A    between atoms: O_10  and  C_11
REMARK    7  A    between atoms: C_11  and  C_12
REMARK    8  A    between atoms: C_21  and  N_22
REMARK    9  A    between atoms: N_22  and  C_23
REMARK   10  A    between atoms: C_23  and  C_24
REMARK   11  A    between atoms: C_24  and  N_25
REMARK   12  A    between atoms: N_25  and  C_26
REMARK   13  A    between atoms: C_26  and  C_27
REMARK   14  A    between atoms: C_27  and  O_28
REMARK                            x       y       z     vdW  Elec       q    Type
REMARK                         _______ _______ _______ _____ _____    ______ ____
ROOT
ATOM      1  C   UNL     1       0.777  -1.811  -1.336  0.00  0.00    +0.164 A 
ATOM      2  C   UNL     1       0.243  -2.669  -0.388  0.00  0.00    +0.051 A 
ATOM      3  C   UNL     1       0.352  -4.037  -0.554  0.00  0.00    -0.059 A 
ATOM      4  C   UNL     1       0.992  -4.553  -1.665  0.00  0.00    +0.025 A 
ATOM      5  C   UNL     1       1.527  -3.703  -2.616  0.00  0.00    +0.086 A 
ATOM      6  C   UNL     1       1.416  -2.329  -2.458  0.00  0.00    +0.181 A 
ATOM      7 CL   UNL     1       2.331  -4.354  -4.010  0.00  0.00    -0.080 Cl
ENDROOT
BRANCH   1   8
ATOM      8  O   UNL     1       0.671  -0.465  -1.174  0.00  0.00    -0.489 OA
BRANCH   8  10
ATOM      9  C   UNL     1      -0.019   1.526   0.010  0.00  0.00    +0.048 C 
ATOM     10  C   UNL     1       0.002  -0.004   0.002  0.00  0.00    +0.226 C 
ENDBRANCH   8  10
ENDBRANCH   1   8
BRANCH   6  11
ATOM     11  O   UNL     1       1.936  -1.491  -3.395  0.00  0.00    -0.482 OA
BRANCH  11  12
ATOM     12  C   UNL     1       3.292  -1.079  -3.215  0.00  0.00    +0.267 C 
BRANCH  12  13
ATOM     13  C   UNL     1       3.691  -0.161  -4.341  0.00  0.00    +0.026 A 
ATOM     14  C   UNL     1       4.240  -0.683  -5.499  0.00  0.00    +0.049 A 
ATOM     15  C   UNL     1       4.606   0.162  -6.532  0.00  0.00    +0.020 A 
ATOM     16  C   UNL     1       4.424   1.526  -6.408  0.00  0.00    +0.003 A 
ATOM     17  C   UNL     1       3.876   2.048  -5.252  0.00  0.00    +0.020 A 
ATOM     18  C   UNL     1       3.504   1.204  -4.220  0.00  0.00    +0.049 A 
ATOM     19 CL   UNL     1       2.808   1.860  -2.771  0.00  0.00    -0.083 Cl
ATOM     20 CL   UNL     1       4.469  -2.396  -5.655  0.00  0.00    -0.083 Cl
ENDBRANCH  12  13
ENDBRANCH  11  12
ENDBRANCH   6  11
BRANCH   3  21
ATOM     21  C   UNL     1      -0.229  -4.968   0.479  0.00  0.00    -0.047 C 
BRANCH  21  22
ATOM     22  N   UNL     1      -1.621  -5.282   0.128  0.00  0.00    +0.383 N 
ATOM     23  H   UNL     1      -2.161  -4.431   0.101  0.00  0.00    -0.085 HD
ATOM     24  H   UNL     1      -1.647  -5.726  -0.778  0.00  0.00    -0.085 HD
BRANCH  22  25
ATOM     25  C   UNL     1      -2.187  -6.190   1.135  0.00  0.00    -0.067 C 
BRANCH  25  26
ATOM     26  C   UNL     1      -3.636  -6.517   0.769  0.00  0.00    +0.062 C 
BRANCH  26  27
ATOM     27  N   UNL     1      -4.202  -7.425   1.776  0.00  0.00    -0.316 NA
ATOM     28  H   UNL     1      -3.641  -8.258   1.868  0.00  0.00    +0.122 HD
BRANCH  27  29
ATOM     29  C   UNL     1      -5.596  -7.761   1.457  0.00  0.00    +0.108 C 
BRANCH  29  30
ATOM     30  C   UNL     1      -6.150  -8.706   2.525  0.00  0.00    +0.171 C 
BRANCH  30  31
ATOM     31  O   UNL     1      -6.203  -8.026   3.781  0.00  0.00    -0.394 OA
ATOM     32  H   UNL     1      -6.546  -8.566   4.506  0.00  0.00    +0.209 HD
ENDBRANCH  30  31
ENDBRANCH  29  30
ENDBRANCH  27  29
ENDBRANCH  26  27
ENDBRANCH  25  26
ENDBRANCH  22  25
ENDBRANCH  21  22
ENDBRANCH   3  21
TORSDOF 13
