REMARK  Name = ZINC09277296
REMARK  9 active torsions:
REMARK  status: ('A' for Active; 'I' for Inactive)
REMARK    1  A    between atoms: C_7  and  S_24
REMARK    2  A    between atoms: N_9  and  C_10
REMARK    3  A    between atoms: C_10  and  C_11
REMARK    4  A    between atoms: C_11  and  N_12
REMARK    5  A    between atoms: C_13  and  C_15
REMARK    6  A    between atoms: C_18  and  N_21
REMARK    7  A    between atoms: S_24  and  C_25
REMARK    8  A    between atoms: C_25  and  C_26
REMARK    9  A    between atoms: N_28  and  C_29
REMARK                            x       y       z     vdW  Elec       q    Type
REMARK                         _______ _______ _______ _____ _____    ______ ____
ROOT
ATOM      1  C   UNL     1       3.710  -9.080  -3.040  0.00  0.00    +0.001 A 
ATOM      2  C   UNL     1       3.653  -7.758  -3.461  0.00  0.00    +0.002 A 
ATOM      3  C   UNL     1       3.729  -6.727  -2.551  0.00  0.00    +0.026 A 
ATOM      4  C   UNL     1       3.864  -7.011  -1.195  0.00  0.00    +0.050 A 
ATOM      5  C   UNL     1       3.921  -8.352  -0.774  0.00  0.00    +0.013 A 
ATOM      6  C   UNL     1       3.843  -9.381  -1.714  0.00  0.00    +0.011 A 
ATOM      7  C   UNL     1       4.063  -8.316   0.686  0.00  0.00    +0.034 A 
ATOM      8  C   UNL     1       4.087  -7.018   1.047  0.00  0.00    +0.101 A 
ATOM      9  N   UNL     1       3.964  -6.224  -0.070  0.00  0.00    -0.344 N 
ENDROOT
BRANCH   9  10
ATOM     10  C   UNL     1       3.947  -4.759  -0.063  0.00  0.00    +0.140 C 
BRANCH  10  11
ATOM     11  C   UNL     1       2.499  -4.265  -0.048  0.00  0.00    +0.126 C 
BRANCH  11  12
ATOM     12  N   UNL     1       2.483  -2.800  -0.041  0.00  0.00    -0.310 N 
ATOM     13  C   UNL     1       1.308  -2.139  -0.027  0.00  0.00    +0.244 C 
ATOM     14  O   UNL     1       0.263  -2.759  -0.020  0.00  0.00    -0.270 OA
ATOM     15  H   UNL     1       3.318  -2.306  -0.046  0.00  0.00    +0.149 HD
BRANCH  13  16
ATOM     16  C   UNL     1       1.292  -0.661  -0.020  0.00  0.00    +0.037 A 
ATOM     17  C   UNL     1       0.077   0.026  -0.006  0.00  0.00    +0.015 A 
ATOM     18  C   UNL     1       0.069   1.406   0.001  0.00  0.00    +0.033 A 
ATOM     19  C   UNL     1       1.261   2.108  -0.006  0.00  0.00    +0.126 A 
ATOM     20  C   UNL     1       2.468   1.433  -0.021  0.00  0.00    +0.033 A 
ATOM     21  C   UNL     1       2.491   0.053  -0.028  0.00  0.00    +0.015 A 
BRANCH  19  22
ATOM     22  N   UNL     1       1.244   3.588   0.000  0.00  0.00    +0.056 N 
ATOM     23  O   UNL     1       0.183   4.185   0.013  0.00  0.00    -0.126 OA
ATOM     24  O   UNL     1       2.292   4.209  -0.006  0.00  0.00    -0.126 OA
ENDBRANCH  19  22
ENDBRANCH  13  16
ENDBRANCH  11  12
ENDBRANCH  10  11
ENDBRANCH   9  10
BRANCH   7  25
ATOM     25  S   UNL     1       4.185  -9.705   1.763  0.00  0.00    -0.114 S 
BRANCH  25  26
ATOM     26  C   UNL     1       4.336  -8.970   3.414  0.00  0.00    +0.170 C 
BRANCH  26  27
ATOM     27  C   UNL     1       4.449 -10.065   4.443  0.00  0.00    +0.227 C 
ATOM     28  O   UNL     1       4.430 -11.227   4.097  0.00  0.00    -0.275 OA
ATOM     29  N   UNL     1       4.573  -9.752   5.748  0.00  0.00    -0.285 N 
ATOM     30  H   UNL     1       4.656  -8.825   6.019  0.00  0.00    +0.155 HD
BRANCH  29  31
ATOM     31  C   UNL     1       4.581 -10.766   6.713  0.00  0.00    +0.035 A 
ATOM     32  C   UNL     1       4.003 -10.548   7.957  0.00  0.00    +0.023 A 
ATOM     33  C   UNL     1       4.007 -11.552   8.905  0.00  0.00    +0.003 A 
ATOM     34  C   UNL     1       4.596 -12.771   8.621  0.00  0.00    +0.020 A 
ATOM     35  C   UNL     1       5.177 -12.990   7.385  0.00  0.00    +0.043 A 
ATOM     36  C   UNL     1       5.171 -11.990   6.430  0.00  0.00    +0.043 A 
ATOM     37 CL   UNL     1       5.915 -14.521   7.033  0.00  0.00    -0.083 Cl
ENDBRANCH  29  31
ENDBRANCH  26  27
ENDBRANCH  25  26
ENDBRANCH   7  25
TORSDOF 9
