REMARK  Name = ZINC65770657
REMARK  9 active torsions:
REMARK  status: ('A' for Active; 'I' for Inactive)
REMARK    1  A    between atoms: C_1  and  C_2
REMARK    2  A    between atoms: C_2  and  C_3
REMARK    3  A    between atoms: C_2  and  N_10
REMARK    4  A    between atoms: C_3  and  C_4
REMARK    5  A    between atoms: C_4  and  C_5
REMARK    6  A    between atoms: N_13  and  C_14
REMARK    7  A    between atoms: C_18  and  C_20
REMARK    8  A    between atoms: C_20  and  N_21
REMARK    9  A    between atoms: C_25  and  C_26
REMARK                            x       y       z     vdW  Elec       q    Type
REMARK                         _______ _______ _______ _____ _____    ______ ____
ROOT
ATOM      1  C   UNL     1       0.087  -1.162   4.701  0.00  0.00    +0.035 A 
ATOM      2  C   UNL     1      -1.266  -0.876   4.832  0.00  0.00    +0.023 A 
ATOM      3  C   UNL     1      -1.870  -0.958   6.071  0.00  0.00    +0.002 A 
ATOM      4  C   UNL     1      -1.130  -1.324   7.181  0.00  0.00    +0.002 A 
ATOM      5  C   UNL     1       0.217  -1.608   7.054  0.00  0.00    -0.062 A 
ATOM      6  C   UNL     1       0.826  -1.534   5.816  0.00  0.00    +0.025 A 
ENDROOT
BRANCH   1  10
ATOM      7  N   UNL     1       0.973   0.006   1.398  0.00  0.00    -0.297 N 
ATOM      8  C   UNL     1       0.319  -0.134   2.568  0.00  0.00    +0.304 C 
ATOM      9  O   UNL     1      -0.619   0.595   2.830  0.00  0.00    -0.253 OA
ATOM     10  N   UNL     1       0.703  -1.080   3.447  0.00  0.00    -0.269 N 
ATOM     11  H   UNL     1       1.721  -0.575   1.189  0.00  0.00    +0.151 HD
ATOM     12  H   UNL     1       1.407  -1.704   3.211  0.00  0.00    +0.156 HD
BRANCH   7  14
ATOM     13  C   UNL     1       1.218   2.365   0.804  0.00  0.00    +0.028 C 
ATOM     14  C   UNL     1       0.555   1.034   0.443  0.00  0.00    +0.072 C 
BRANCH  14  15
ATOM     15  C   UNL     1       0.977   0.621  -0.969  0.00  0.00    +0.030 C 
BRANCH  15  16
ATOM     16  C   UNL     1       0.219  -0.644  -1.378  0.00  0.00    +0.076 C 
BRANCH  16  17
ATOM     17  C   UNL     1       0.634  -1.051  -2.768  0.00  0.00    +0.105 A 
ATOM     18  C   UNL     1       1.647  -1.882  -3.075  0.00  0.00    +0.044 A 
ATOM     19  C   UNL     1       1.681  -1.983  -4.484  0.00  0.00    +0.041 A 
ATOM     20  C   UNL     1       0.687  -1.208  -4.955  0.00  0.00    +0.195 A 
ATOM     21  O   UNL     1       0.053  -0.650  -3.910  0.00  0.00    -0.468 OA
ENDBRANCH  16  17
ENDBRANCH  15  16
ENDBRANCH  14  15
ENDBRANCH   7  14
ENDBRANCH   1  10
BRANCH   5  22
ATOM     22  C   UNL     1       1.020  -2.005   8.266  0.00  0.00    -0.042 C 
BRANCH  22  23
ATOM     23  N   UNL     1       0.977  -3.465   8.424  0.00  0.00    +0.390 N 
ATOM     24  C   UNL     1      -0.403  -3.892   8.738  0.00  0.00    -0.077 C 
ATOM     25  C   UNL     1      -0.237  -5.069   9.731  0.00  0.00    -0.020 C 
ATOM     26  C   UNL     1       0.979  -4.601  10.572  0.00  0.00    -0.008 C 
ATOM     27  C   UNL     1       1.858  -3.869   9.536  0.00  0.00    +0.019 C 
ATOM     28  H   UNL     1       1.282  -3.909   7.571  0.00  0.00    -0.080 HD
BRANCH  27  29
ATOM     29  C   UNL     1       2.932  -4.796   9.028  0.00  0.00    +0.197 C 
ATOM     30  O   UNL     1       2.968  -5.097   7.854  0.00  0.00    -0.278 OA
ATOM     31  N   UNL     1       3.852  -5.291   9.880  0.00  0.00    -0.331 N 
ATOM     32  H   UNL     1       3.823  -5.050  10.819  0.00  0.00    +0.145 HD
ATOM     33  H   UNL     1       4.544  -5.888   9.553  0.00  0.00    +0.145 HD
ENDBRANCH  27  29
ENDBRANCH  22  23
ENDBRANCH   5  22
TORSDOF 8
