REMARK  Name = ZINC35374498
REMARK  7 active torsions:
REMARK  status: ('A' for Active; 'I' for Inactive)
REMARK    1  A    between atoms: C_1  and  C_2
REMARK    2  A    between atoms: C_2  and  C_3
REMARK    3  A    between atoms: C_3  and  C_5
REMARK    4  A    between atoms: C_3  and  C_6
REMARK    5  A    between atoms: C_6  and  N_7
REMARK    6  A    between atoms: C_8  and  C_10
REMARK    7  A    between atoms: C_21  and  C_23
REMARK                            x       y       z     vdW  Elec       q    Type
REMARK                         _______ _______ _______ _____ _____    ______ ____
ROOT
ATOM      1  C   UNL     1      -6.638  -4.487   0.245  0.00  0.00    +0.028 C 
ATOM      2  C   UNL     1      -7.928  -4.434   1.118  0.00  0.00    +0.061 C 
ATOM      3  S   UNL     1      -8.829  -5.881   0.407  0.00  0.00    -0.174 S 
ATOM      4  C   UNL     1      -7.392  -6.740  -0.347  0.00  0.00    -0.016 C 
ATOM      5  N   UNL     1      -6.249  -5.900   0.063  0.00  0.00    +0.397 N 
ATOM      6  C   UNL     1      -7.271  -8.143   0.228  0.00  0.00    +0.017 C 
ATOM      7  C   UNL     1      -6.052  -8.844  -0.385  0.00  0.00    +0.107 C 
ATOM      8  N   UNL     1      -6.155  -8.772  -1.849  0.00  0.00    -0.301 N 
ATOM      9  C   UNL     1      -6.324  -7.458  -2.484  0.00  0.00    +0.107 C 
ATOM     10  C   UNL     1      -7.542  -6.764  -1.860  0.00  0.00    +0.017 C 
ATOM     11  C   UNL     1      -6.094  -9.892  -2.596  0.00  0.00    +0.219 C 
ATOM     12  O   UNL     1      -6.258  -9.829  -3.796  0.00  0.00    -0.275 OA
ATOM     13  H   UNL     1      -5.533  -5.955  -0.646  0.00  0.00    -0.083 HD
ATOM     14  H   UNL     1      -5.876  -6.252   0.932  0.00  0.00    -0.083 HD
ENDROOT
BRANCH  11  15
ATOM     15  C   UNL     1      -5.821 -11.221  -1.941  0.00  0.00    +0.075 C 
ATOM     16  C   UNL     1      -4.316 -11.384  -1.724  0.00  0.00    +0.013 C 
ATOM     17  C   UNL     1      -4.039 -12.733  -1.059  0.00  0.00    +0.001 C 
ATOM     18  C   UNL     1      -4.549 -13.860  -1.959  0.00  0.00    +0.000 C 
ATOM     19  C   UNL     1      -6.055 -13.697  -2.176  0.00  0.00    +0.001 C 
ATOM     20  C   UNL     1      -6.332 -12.348  -2.841  0.00  0.00    +0.013 C 
ENDBRANCH  11  15
BRANCH   1  22
ATOM     21  N   UNL     1      -5.662  -2.426   1.202  0.00  0.00    -0.316 N 
ATOM     22  C   UNL     1      -5.527  -3.740   0.937  0.00  0.00    +0.200 C 
ATOM     23  O   UNL     1      -4.512  -4.322   1.255  0.00  0.00    -0.278 OA
ATOM     24  H   UNL     1      -6.474  -1.960   0.947  0.00  0.00    +0.149 HD
BRANCH  21  25
ATOM     25  C   UNL     1      -4.582  -1.700   1.875  0.00  0.00    +0.107 C 
BRANCH  25  26
ATOM     26  C   UNL     1      -4.987  -0.235   2.054  0.00  0.00    +0.003 C 
ATOM     27  C   UNL     1      -6.184  -0.149   3.002  0.00  0.00    +0.009 C 
BRANCH  26  29
ATOM     28  C   UNL     1      -4.173   2.035   2.706  0.00  0.00    +0.004 C 
ATOM     29  C   UNL     1      -3.813   0.550   2.643  0.00  0.00    +0.001 C 
ENDBRANCH  26  29
ENDBRANCH  25  26
ENDBRANCH  21  25
ENDBRANCH   1  22
TORSDOF 5
