REMARK  Name = ZINC22804505
REMARK  10 active torsions:
REMARK  status: ('A' for Active; 'I' for Inactive)
REMARK    1  A    between atoms: C_1  and  C_2
REMARK    2  A    between atoms: C_6  and  N_9
REMARK    3  A    between atoms: C_7  and  C_8
REMARK    4  A    between atoms: C_10  and  C_12
REMARK    5  A    between atoms: C_12  and  N_13
REMARK    6  A    between atoms: N_16  and  C_19
REMARK    7  A    between atoms: C_19  and  C_21
REMARK    8  A    between atoms: C_19  and  C_22
REMARK    9  A    between atoms: N_28  and  C_29
REMARK   10  A    between atoms: N_28  and  C_30
REMARK                            x       y       z     vdW  Elec       q    Type
REMARK                         _______ _______ _______ _____ _____    ______ ____
ROOT
ATOM      1  N   UNL     1      -0.208  -6.339   3.410  0.00  0.00    -0.298 NA
ATOM      2  C   UNL     1       1.044  -6.832   2.818  0.00  0.00    +0.066 C 
ATOM      3  C   UNL     1       0.900  -8.319   2.491  0.00  0.00    -0.062 C 
ATOM      4  N   UNL     1       0.594  -9.063   3.720  0.00  0.00    +0.388 N 
ATOM      5  C   UNL     1      -0.672  -8.577   4.286  0.00  0.00    -0.062 C 
ATOM      6  C   UNL     1      -0.540  -7.091   4.628  0.00  0.00    +0.066 C 
ATOM      7  H   UNL     1       1.336  -8.926   4.390  0.00  0.00    -0.081 HD
ENDROOT
BRANCH   4   8
ATOM      8  C   UNL     1       0.473 -10.494   3.409  0.00  0.00    -0.002 C 
ATOM      9  C   UNL     1       0.154 -11.269   4.689  0.00  0.00    -0.005 C 
BRANCH   8  10
ATOM     10  C   UNL     1       1.772 -10.993   2.830  0.00  0.00    +0.123 A 
ATOM     11  N   UNL     1       2.918 -10.658   3.397  0.00  0.00    -0.201 NA
ATOM     12  C   UNL     1       4.067 -11.098   2.888  0.00  0.00    +0.217 A 
ATOM     13  N   UNL     1       4.060 -11.874   1.810  0.00  0.00    -0.181 NA
ATOM     14  C   UNL     1       2.906 -12.209   1.244  0.00  0.00    +0.222 A 
ATOM     15  N   UNL     1       1.761 -11.770   1.761  0.00  0.00    -0.201 NA
ATOM     16  N   UNL     1       2.894 -13.015   0.124  0.00  0.00    -0.306 N 
ATOM     17  C   UNL     1       4.155 -13.502  -0.441  0.00  0.00    +0.132 C 
ATOM     18  C   UNL     1       1.621 -13.384  -0.500  0.00  0.00    +0.132 C 
ATOM     19  N   UNL     1       5.263 -10.747   3.480  0.00  0.00    -0.327 N 
ATOM     20  H   UNL     1       5.267 -10.179   4.267  0.00  0.00    +0.145 HD
ATOM     21  H   UNL     1       6.100 -11.067   3.109  0.00  0.00    +0.145 HD
ENDBRANCH   8  10
ENDBRANCH   4   8
BRANCH   1  22
ATOM     22  C   UNL     1      -0.129  -4.898   3.686  0.00  0.00    +0.180 C 
BRANCH  22  24
ATOM     23  N   UNL     1       0.052  -2.797   2.393  0.00  0.00    -0.284 N 
ATOM     24  C   UNL     1      -0.031  -4.143   2.385  0.00  0.00    +0.231 C 
ATOM     25  O   UNL     1      -0.028  -4.745   1.333  0.00  0.00    -0.274 OA
ATOM     26  H   UNL     1       0.130  -2.321   3.234  0.00  0.00    +0.155 HD
BRANCH  23  32
ATOM     27  C   UNL     1       1.206   1.236  -0.172  0.00  0.00    +0.044 C 
ATOM     28  C   UNL     1       0.577  -0.131  -0.084  0.00  0.00    -0.046 A 
ATOM     29  C   UNL     1      -0.027  -0.686  -1.198  0.00  0.00    +0.004 A 
ATOM     30  C   UNL     1      -0.605  -1.940  -1.122  0.00  0.00    +0.002 A 
ATOM     31  C   UNL     1      -0.580  -2.642   0.067  0.00  0.00    +0.023 A 
ATOM     32  C   UNL     1       0.026  -2.088   1.187  0.00  0.00    +0.037 A 
ATOM     33  C   UNL     1       0.610  -0.831   1.106  0.00  0.00    -0.026 A 
ATOM     34  C   UNL     1       1.274  -0.228   2.317  0.00  0.00    +0.046 C 
ENDBRANCH  23  32
ENDBRANCH  22  24
ENDBRANCH   1  22
TORSDOF 5
