REMARK  Name = ZINC51768416
REMARK  5 active torsions:
REMARK  status: ('A' for Active; 'I' for Inactive)
REMARK    1  A    between atoms: C_1  and  N_2
REMARK    2  A    between atoms: N_5  and  S_8
REMARK    3  A    between atoms: S_8  and  N_11
REMARK    4  A    between atoms: N_14  and  C_17
REMARK    5  A    between atoms: C_17  and  C_18
REMARK                            x       y       z     vdW  Elec       q    Type
REMARK                         _______ _______ _______ _____ _____    ______ ____
ROOT
ATOM      1  N   UNL     1       3.597  -3.157  -0.182  0.00  0.00    -0.164 NA
ATOM      2  C   UNL     1       4.221  -2.832  -1.474  0.00  0.00    +0.126 C 
ATOM      3  C   UNL     1       4.692  -1.375  -1.433  0.00  0.00    +0.102 C 
ATOM      4  N   UNL     1       5.553  -1.174  -0.260  0.00  0.00    -0.291 NA
ATOM      5  C   UNL     1       4.811  -1.398   0.989  0.00  0.00    +0.102 C 
ATOM      6  C   UNL     1       4.342  -2.850   1.048  0.00  0.00    +0.126 C 
ENDROOT
BRANCH   1   7
ATOM      7  S   UNL     1       2.092  -3.845  -0.115  0.00  0.00    +0.100 S 
ATOM      8  O   UNL     1       2.009  -4.521   1.132  0.00  0.00    -0.141 OA
ATOM      9  O   UNL     1       1.892  -4.508  -1.356  0.00  0.00    -0.141 OA
BRANCH   7  14
ATOM     10  C   UNL     1      -0.018   1.465   0.010  0.00  0.00    +0.105 C 
ATOM     11  N   UNL     1       0.002  -0.004   0.002  0.00  0.00    -0.303 NA
ATOM     12  C   UNL     1       0.592  -0.516  -1.242  0.00  0.00    +0.101 C 
ATOM     13  C   UNL     1       0.430  -2.039  -1.292  0.00  0.00    +0.126 C 
ATOM     14  N   UNL     1       0.991  -2.608  -0.057  0.00  0.00    -0.164 NA
ATOM     15  C   UNL     1       0.549  -2.051   1.230  0.00  0.00    +0.126 C 
ATOM     16  C   UNL     1       0.706  -0.527   1.180  0.00  0.00    +0.101 C 
ENDBRANCH   7  14
ENDBRANCH   1   7
BRANCH   4  17
ATOM     17  C   UNL     1       6.163   0.162  -0.277  0.00  0.00    +0.180 C 
BRANCH  17  18
ATOM     18  C   UNL     1       7.219   0.246   0.795  0.00  0.00    +0.225 C 
ATOM     19  O   UNL     1       7.440  -0.713   1.504  0.00  0.00    -0.275 OA
ATOM     20  N   UNL     1       7.917   1.386   0.967  0.00  0.00    -0.328 N 
ATOM     21  H   UNL     1       7.739   2.153   0.400  0.00  0.00    +0.145 HD
ATOM     22  H   UNL     1       8.596   1.440   1.657  0.00  0.00    +0.145 HD
ENDBRANCH  17  18
ENDBRANCH   4  17
TORSDOF 4
