REMARK  Name = ZINC65968048
REMARK  6 active torsions:
REMARK  status: ('A' for Active; 'I' for Inactive)
REMARK    1  A    between atoms: C_1  and  C_2
REMARK    2  A    between atoms: C_2  and  C_3
REMARK    3  A    between atoms: C_2  and  N_16
REMARK    4  A    between atoms: N_5  and  C_6
REMARK    5  A    between atoms: C_10  and  S_12
REMARK    6  A    between atoms: S_12  and  N_15
REMARK                            x       y       z     vdW  Elec       q    Type
REMARK                         _______ _______ _______ _____ _____    ______ ____
ROOT
ATOM      1  C   UNL     1       0.841  -0.734  -1.378  0.00  0.00    +0.203 C 
ATOM      2  O   UNL     1       1.716  -1.569  -1.286  0.00  0.00    -0.277 OA
ATOM      3  N   UNL     1       0.549  -0.193  -2.577  0.00  0.00    -0.287 N 
ATOM      4  H   UNL     1      -0.192   0.426  -2.662  0.00  0.00    +0.155 HD
ENDROOT
BRANCH   3   5
ATOM      5  C   UNL     1       1.317  -0.523  -3.699  0.00  0.00    +0.035 A 
ATOM      6  C   UNL     1       0.721  -0.606  -4.950  0.00  0.00    +0.023 A 
ATOM      7  C   UNL     1       1.481  -0.933  -6.056  0.00  0.00    +0.004 A 
ATOM      8  C   UNL     1       2.835  -1.177  -5.918  0.00  0.00    +0.028 A 
ATOM      9  C   UNL     1       3.432  -1.096  -4.673  0.00  0.00    +0.107 A 
ATOM     10  C   UNL     1       2.678  -0.763  -3.565  0.00  0.00    +0.051 A 
BRANCH   9  11
ATOM     11  S   UNL     1       5.157  -1.409  -4.503  0.00  0.00    +0.056 S 
ATOM     12  O   UNL     1       5.367  -1.803  -3.154  0.00  0.00    -0.153 OA
ATOM     13  O   UNL     1       5.532  -2.228  -5.602  0.00  0.00    -0.153 OA
BRANCH  11  14
ATOM     14  N   UNL     1       5.940   0.037  -4.700  0.00  0.00    -0.204 NA
ATOM     15  H   UNL     1       6.780   0.200  -4.245  0.00  0.00    +0.144 HD
ATOM     16  H   UNL     1       5.557   0.721  -5.272  0.00  0.00    +0.144 HD
ENDBRANCH  11  14
ENDBRANCH   9  11
ENDBRANCH   3   5
BRANCH   1  18
ATOM     17  C   UNL     1       0.840   0.822   0.553  0.00  0.00    -0.004 C 
ATOM     18  C   UNL     1       0.079  -0.303  -0.151  0.00  0.00    +0.017 C 
BRANCH  18  19
ATOM     19  N   UNL     1      -0.064  -1.445   0.763  0.00  0.00    +0.389 N 
ATOM     20  C   UNL     1      -0.603  -2.544   0.019  0.00  0.00    -0.074 C 
ATOM     21  C   UNL     1      -1.286  -3.601   0.831  0.00  0.00    -0.027 C 
ATOM     22  C   UNL     1      -0.575  -3.967   2.116  0.00  0.00    +0.005 C 
ATOM     23  C   UNL     1      -0.932  -3.078   3.294  0.00  0.00    -0.012 C 
ATOM     24  C   UNL     1      -2.450  -2.936   3.433  0.00  0.00    +0.007 C 
ATOM     25  C   UNL     1      -2.993  -2.354   2.127  0.00  0.00    -0.012 C 
ATOM     26  C   UNL     1      -2.771  -3.382   1.013  0.00  0.00    +0.005 C 
ATOM     27  C   UNL     1      -2.318  -1.045   1.776  0.00  0.00    -0.012 C 
ATOM     28  C   UNL     1      -0.824  -1.009   1.905  0.00  0.00    -0.067 C 
ATOM     29  C   UNL     1      -0.319  -1.687   3.175  0.00  0.00    -0.012 C 
ATOM     30  H   UNL     1       0.858  -1.704   1.081  0.00  0.00    -0.080 HD
ENDBRANCH  18  19
ENDBRANCH   1  18
TORSDOF 5
