REMARK  Name = ZINC47586749
REMARK  13 active torsions:
REMARK  status: ('A' for Active; 'I' for Inactive)
REMARK    1  A    between atoms: C_1  and  C_2
REMARK    2  A    between atoms: C_2  and  C_3
REMARK    3  A    between atoms: C_2  and  C_4
REMARK    4  A    between atoms: C_2  and  N_5
REMARK    5  A    between atoms: C_6  and  C_8
REMARK    6  A    between atoms: C_12  and  N_14
REMARK    7  A    between atoms: N_17  and  C_18
REMARK    8  A    between atoms: C_18  and  C_19
REMARK    9  A    between atoms: C_19  and  C_20
REMARK   10  A    between atoms: C_20  and  N_21
REMARK   11  A    between atoms: N_21  and  C_22
REMARK   12  A    between atoms: N_21  and  C_23
REMARK   13  A    between atoms: C_23  and  C_24
REMARK                            x       y       z     vdW  Elec       q    Type
REMARK                         _______ _______ _______ _____ _____    ______ ____
ROOT
ATOM      1  N   UNL     1       5.971  -0.362  -4.253  0.00  0.00    -0.269 N 
ATOM      2  C   UNL     1       6.626  -0.882  -5.310  0.00  0.00    +0.304 C 
ATOM      3  O   UNL     1       6.033  -1.580  -6.109  0.00  0.00    -0.253 OA
ATOM      4  N   UNL     1       7.939  -0.627  -5.481  0.00  0.00    -0.299 N 
ATOM      5  H   UNL     1       6.423   0.257  -3.659  0.00  0.00    +0.156 HD
ATOM      6  H   UNL     1       8.412  -0.070  -4.844  0.00  0.00    +0.150 HD
ENDROOT
BRANCH   1  11
ATOM      7  C   UNL     1       2.861  -2.335  -4.092  0.00  0.00    +0.038 A 
ATOM      8  C   UNL     1       1.990  -1.399  -3.531  0.00  0.00    +0.013 A 
ATOM      9  C   UNL     1       2.446  -0.135  -3.216  0.00  0.00    +0.003 A 
ATOM     10  C   UNL     1       3.764   0.209  -3.455  0.00  0.00    +0.023 A 
ATOM     11  C   UNL     1       4.638  -0.715  -4.013  0.00  0.00    +0.035 A 
ATOM     12  C   UNL     1       4.191  -1.990  -4.327  0.00  0.00    +0.036 A 
BRANCH   7  14
ATOM     13  N   UNL     1       1.088  -4.021  -4.202  0.00  0.00    -0.307 N 
ATOM     14  C   UNL     1       2.375  -3.690  -4.431  0.00  0.00    +0.245 C 
ATOM     15  O   UNL     1       3.135  -4.505  -4.915  0.00  0.00    -0.270 OA
ATOM     16  H   UNL     1       0.481  -3.370  -3.816  0.00  0.00    +0.150 HD
BRANCH  13  18
ATOM     17  C   UNL     1       1.402  -6.403  -3.746  0.00  0.00    +0.031 C 
ATOM     18  C   UNL     1       0.607  -5.363  -4.538  0.00  0.00    +0.026 C 
ATOM     19  C   UNL     1       0.792  -5.612  -6.036  0.00  0.00    +0.031 C 
ATOM     20  C   UNL     1      -0.877  -5.476  -4.182  0.00  0.00    +0.031 C 
ENDBRANCH  13  18
ENDBRANCH   7  14
ENDBRANCH   1  11
BRANCH   4  21
ATOM     21  C   UNL     1       8.651  -1.192  -6.630  0.00  0.00    +0.104 C 
BRANCH  21  22
ATOM     22  C   UNL     1      10.116  -0.752  -6.589  0.00  0.00    +0.000 C 
BRANCH  22  23
ATOM     23  C   UNL     1      10.859  -1.342  -7.789  0.00  0.00    -0.077 C 
BRANCH  23  24
ATOM     24  N   UNL     1      12.266  -0.920  -7.748  0.00  0.00    +0.381 N 
ATOM     25  C   UNL     1      12.917  -1.498  -6.565  0.00  0.00    -0.096 C 
ATOM     26  H   UNL     1      12.314   0.086  -7.701  0.00  0.00    -0.082 HD
BRANCH  24  27
ATOM     27  C   UNL     1      12.951  -1.386  -8.961  0.00  0.00    -0.043 C 
BRANCH  27  28
ATOM     28  C   UNL     1      14.360  -0.850  -8.979  0.00  0.00    -0.064 A 
ATOM     29  C   UNL     1      14.627   0.371  -9.570  0.00  0.00    +0.002 A 
ATOM     30  C   UNL     1      15.919   0.862  -9.586  0.00  0.00    +0.000 A 
ATOM     31  C   UNL     1      16.943   0.133  -9.012  0.00  0.00    +0.000 A 
ATOM     32  C   UNL     1      16.676  -1.087  -8.421  0.00  0.00    +0.000 A 
ATOM     33  C   UNL     1      15.383  -1.577  -8.401  0.00  0.00    +0.002 A 
ENDBRANCH  27  28
ENDBRANCH  24  27
ENDBRANCH  23  24
ENDBRANCH  22  23
ENDBRANCH  21  22
ENDBRANCH   4  21
TORSDOF 9
