REMARK  Name = ZINC00076416
REMARK  4 active torsions:
REMARK  status: ('A' for Active; 'I' for Inactive)
REMARK    1  A    between atoms: C_3  and  C_6
REMARK    2  A    between atoms: C_9  and  C_20
REMARK    3  A    between atoms: C_15  and  N_19
REMARK    4  A    between atoms: C_16  and  C_17
REMARK                            x       y       z     vdW  Elec       q    Type
REMARK                         _______ _______ _______ _____ _____    ______ ____
ROOT
ATOM      1  C   UNL     1       3.599   0.625  -0.029  0.00  0.00    +0.137 C 
ATOM      2  C   UNL     1       4.078  -0.103  -1.259  0.00  0.00    +0.061 A 
ATOM      3  C   UNL     1       4.065   0.308  -2.585  0.00  0.00    +0.173 A 
ATOM      4  N   UNL     1       4.582  -0.651  -3.314  0.00  0.00    -0.167 NA
ATOM      5  N   UNL     1       4.942  -1.709  -2.465  0.00  0.00    -0.246 N 
ATOM      6  H   UNL     1       5.348  -2.548  -2.736  0.00  0.00    +0.192 HD
ATOM      7  C   UNL     1       4.627  -1.354  -1.209  0.00  0.00    +0.223 A 
ATOM      8  O   UNL     1       4.785  -2.038  -0.049  0.00  0.00    -0.423 OA
ATOM      9  C   UNL     1       4.642  -1.354   1.105  0.00  0.00    +0.201 C 
ATOM     10  C   UNL     1       4.103  -0.116   1.184  0.00  0.00    +0.101 C 
ENDROOT
BRANCH   1  13
ATOM     11  C   UNL     1      -0.016   1.341   0.009  0.00  0.00    +0.041 A 
ATOM     12  C   UNL     1       1.331   1.769  -0.001  0.00  0.00    +0.045 A 
ATOM     13  C   UNL     1       2.092   0.660  -0.014  0.00  0.00    +0.118 A 
ATOM     14  O   UNL     1       1.282  -0.411  -0.012  0.00  0.00    -0.467 OA
ATOM     15  C   UNL     1       0.002  -0.004   0.002  0.00  0.00    +0.195 A 
ENDBRANCH   1  13
BRANCH   3  16
ATOM     16  C   UNL     1       3.547   1.627  -3.097  0.00  0.00    +0.436 C 
ATOM     17  F   UNL     1       4.585   2.566  -3.103  0.00  0.00    -0.164 F 
ATOM     18  F   UNL     1       3.059   1.463  -4.398  0.00  0.00    -0.164 F 
ATOM     19  F   UNL     1       2.516   2.078  -2.266  0.00  0.00    -0.164 F 
ENDBRANCH   3  16
BRANCH   9  20
ATOM     20  N   UNL     1       5.068  -1.948   2.266  0.00  0.00    -0.328 N 
ATOM     21  H   UNL     1       5.458  -2.836   2.242  0.00  0.00    +0.145 HD
ATOM     22  H   UNL     1       4.978  -1.481   3.111  0.00  0.00    +0.145 HD
ENDBRANCH   9  20
BRANCH  10  23
ATOM     23  C   UNL     1       4.007   0.515   2.466  0.00  0.00    +0.101 C 
ATOM     24  N   UNL     1       3.931   1.015   3.483  0.00  0.00    -0.191 NA
ENDBRANCH  10  23
TORSDOF 4
