REMARK  Name = ZINC63479651
REMARK  8 active torsions:
REMARK  status: ('A' for Active; 'I' for Inactive)
REMARK    1  A    between atoms: C_1  and  C_2
REMARK    2  A    between atoms: C_6  and  N_8
REMARK    3  A    between atoms: C_9  and  N_11
REMARK    4  A    between atoms: C_16  and  C_21
REMARK    5  A    between atoms: C_18  and  C_20
REMARK    6  A    between atoms: N_22  and  C_23
REMARK    7  A    between atoms: C_23  and  C_24
REMARK    8  A    between atoms: C_24  and  C_25
REMARK                            x       y       z     vdW  Elec       q    Type
REMARK                         _______ _______ _______ _____ _____    ______ ____
ROOT
ATOM      1  N   UNL     1      -0.274  -5.790   5.052  0.00  0.00    -0.129 NA
ATOM      2  C   UNL     1      -1.078  -4.741   5.001  0.00  0.00    +0.198 C 
ATOM      3  N   UNL     1      -2.142  -4.736   4.141  0.00  0.00    -0.297 N 
ATOM      4  C   UNL     1      -3.412  -4.426   4.610  0.00  0.00    +0.231 A 
ATOM      5  N   UNL     1      -3.609  -4.315   5.915  0.00  0.00    -0.217 NA
ATOM      6  C   UNL     1      -4.806  -4.021   6.395  0.00  0.00    +0.044 A 
ATOM      7  C   UNL     1      -5.859  -3.829   5.514  0.00  0.00    +0.046 A 
ATOM      8  C   UNL     1      -5.617  -3.953   4.155  0.00  0.00    +0.044 A 
ATOM      9  N   UNL     1      -4.395  -4.244   3.742  0.00  0.00    -0.217 NA
ATOM     10  C   UNL     1      -6.731  -3.754   3.160  0.00  0.00    +0.066 C 
ATOM     11  C   UNL     1      -5.023  -3.896   7.881  0.00  0.00    +0.066 C 
ATOM     12  N   UNL     1      -0.846  -3.664   5.806  0.00  0.00    -0.357 N 
ATOM     13  H   UNL     1      -0.033  -3.619   6.332  0.00  0.00    +0.162 HD
ATOM     14  H   UNL     1      -2.010  -4.949   3.204  0.00  0.00    +0.171 HD
ENDROOT
BRANCH   1  16
ATOM     15  N   UNL     1       0.175  -8.013   4.525  0.00  0.00    -0.268 N 
ATOM     16  C   UNL     1      -0.603  -6.919   4.408  0.00  0.00    +0.330 C 
ATOM     17  O   UNL     1      -1.605  -6.956   3.716  0.00  0.00    -0.250 OA
ATOM     18  H   UNL     1       0.902  -8.025   5.168  0.00  0.00    +0.156 HD
BRANCH  15  24
ATOM     19  C   UNL     1       0.286 -12.890   3.915  0.00  0.00    +0.044 C 
ATOM     20  C   UNL     1      -0.019 -11.508   3.399  0.00  0.00    -0.049 A 
ATOM     21  C   UNL     1      -0.539 -11.344   2.128  0.00  0.00    +0.003 A 
ATOM     22  C   UNL     1      -0.821 -10.078   1.650  0.00  0.00    +0.002 A 
ATOM     23  C   UNL     1      -0.585  -8.971   2.443  0.00  0.00    +0.023 A 
ATOM     24  C   UNL     1      -0.065  -9.132   3.720  0.00  0.00    +0.035 A 
ATOM     25  C   UNL     1       0.213 -10.406   4.198  0.00  0.00    +0.026 A 
ENDBRANCH  15  24
ENDBRANCH   1  16
BRANCH  12  26
ATOM     26  C   UNL     1      -1.825  -2.577   5.874  0.00  0.00    +0.120 C 
BRANCH  26  27
ATOM     27  C   UNL     1      -1.195  -1.366   6.564  0.00  0.00    +0.054 C 
BRANCH  27  28
ATOM     28  C   UNL     1      -2.281  -0.496   7.143  0.00  0.00    -0.040 C 
ATOM     29  C   UNL     1      -2.184   0.812   7.476  0.00  0.00    -0.001 A 
ATOM     30  C   UNL     1      -1.081   1.778   7.403  0.00  0.00    +0.010 A 
ATOM     31  C   UNL     1      -1.292   3.046   7.822  0.00  0.00    +0.001 A 
ATOM     32  C   UNL     1      -2.534   3.461   8.322  0.00  0.00    +0.002 A 
ATOM     33  C   UNL     1      -3.594   2.632   8.420  0.00  0.00    +0.026 A 
ATOM     34  C   UNL     1      -3.486   1.275   8.008  0.00  0.00    +0.043 A 
ATOM     35  N   UNL     1      -4.353   0.292   8.004  0.00  0.00    -0.380 N 
ATOM     36  C   UNL     1      -3.701  -0.906   7.463  0.00  0.00    +0.144 C 
ATOM     37  H   UNL     1      -5.274   0.348   8.305  0.00  0.00    +0.160 HD
ENDBRANCH  27  28
ENDBRANCH  26  27
ENDBRANCH  12  26
TORSDOF 5
