REMARK  Name = ZINC40427296
REMARK  5 active torsions:
REMARK  status: ('A' for Active; 'I' for Inactive)
REMARK    1  A    between atoms: C_4  and  C_7
REMARK    2  A    between atoms: N_16  and  C_17
REMARK    3  A    between atoms: C_17  and  C_18
REMARK    4  A    between atoms: C_18  and  C_19
REMARK    5  A    between atoms: C_28  and  C_30
REMARK                            x       y       z     vdW  Elec       q    Type
REMARK                         _______ _______ _______ _____ _____    ______ ____
ROOT
ATOM      1  C   UNL     1       2.519  -2.281  -4.161  0.00  0.00    +0.214 C 
ATOM      2  O   UNL     1       2.542  -1.083  -4.344  0.00  0.00    -0.276 OA
ATOM      3  N   UNL     1       2.428  -3.122  -5.210  0.00  0.00    -0.300 N 
ATOM      4  C   UNL     1       2.361  -2.638  -6.545  0.00  0.00    +0.109 C 
ATOM      5  C   UNL     1       0.929  -2.228  -7.019  0.00  0.00    +0.038 C 
ATOM      6  C   UNL     1      -0.075  -3.261  -6.410  0.00  0.00    +0.109 C 
ATOM      7  N   UNL     1       0.400  -4.599  -6.375  0.00  0.00    -0.296 N 
ATOM      8  C   UNL     1       1.013  -5.066  -5.105  0.00  0.00    +0.127 C 
ATOM      9  C   UNL     1       2.397  -4.595  -5.024  0.00  0.00    +0.126 C 
ATOM     10  C   UNL     1       0.299  -5.410  -7.447  0.00  0.00    +0.247 C 
ATOM     11  O   UNL     1      -0.273  -5.025  -8.449  0.00  0.00    -0.270 OA
ENDROOT
BRANCH  10  12
ATOM     12  C   UNL     1       0.884  -6.763  -7.406  0.00  0.00    +0.045 A 
ATOM     13  C   UNL     1       0.500  -7.663  -6.423  0.00  0.00    +0.014 A 
ATOM     14  C   UNL     1       1.047  -8.939  -6.378  0.00  0.00    +0.001 A 
ATOM     15  C   UNL     1       1.972  -9.343  -7.295  0.00  0.00    +0.008 A 
ATOM     16  C   UNL     1       2.390  -8.464  -8.309  0.00  0.00    -0.017 A 
ATOM     17  C   UNL     1       1.839  -7.161  -8.374  0.00  0.00    -0.006 A 
ATOM     18  C   UNL     1       2.253  -6.288  -9.389  0.00  0.00    +0.009 A 
ATOM     19  C   UNL     1       3.174  -6.704 -10.303  0.00  0.00    +0.001 A 
ATOM     20  C   UNL     1       3.712  -7.987 -10.245  0.00  0.00    +0.001 A 
ATOM     21  C   UNL     1       3.342  -8.857  -9.265  0.00  0.00    +0.008 A 
ENDBRANCH  10  12
BRANCH   1  22
ATOM     22  C   UNL     1       2.594  -2.831  -2.760  0.00  0.00    +0.077 C 
BRANCH  22  23
ATOM     23  C   UNL     1       2.692  -1.674  -1.763  0.00  0.00    -0.068 C 
BRANCH  23  32
ATOM     24  C   UNL     1       2.737  -1.097   0.560  0.00  0.00    -0.006 C 
ATOM     25  C   UNL     1       2.917  -1.654   1.969  0.00  0.00    -0.047 A 
ATOM     26  C   UNL     1       2.563  -0.969   3.129  0.00  0.00    +0.010 A 
ATOM     27  C   UNL     1       2.756  -1.543   4.339  0.00  0.00    +0.045 A 
ATOM     28  S   UNL     1       3.467  -3.120   3.891  0.00  0.00    -0.101 S 
ATOM     29  C   UNL     1       3.454  -2.896   2.135  0.00  0.00    -0.010 A 
ATOM     30  C   UNL     1       3.914  -3.816   1.052  0.00  0.00    +0.024 C 
ATOM     31  C   UNL     1       3.997  -2.997  -0.248  0.00  0.00    -0.072 C 
ATOM     32  N   UNL     1       2.764  -2.210  -0.397  0.00  0.00    +0.388 N 
ATOM     33  H   UNL     1       1.969  -2.808  -0.233  0.00  0.00    -0.080 HD
BRANCH  24  37
ATOM     34  C   UNL     1      -1.011   0.934   0.287  0.00  0.00    +0.000 A 
ATOM     35  C   UNL     1       0.156   1.655   0.458  0.00  0.00    +0.000 A 
ATOM     36  C   UNL     1       1.369   0.998   0.546  0.00  0.00    +0.002 A 
ATOM     37  C   UNL     1       1.415  -0.381   0.465  0.00  0.00    -0.057 A 
ATOM     38  C   UNL     1       0.248  -1.103   0.295  0.00  0.00    +0.002 A 
ATOM     39  C   UNL     1      -0.965  -0.446   0.205  0.00  0.00    +0.000 A 
ENDBRANCH  24  37
ENDBRANCH  23  32
ENDBRANCH  22  23
ENDBRANCH   1  22
TORSDOF 5
