REMARK  Name = ZINC42954342
REMARK  12 active torsions:
REMARK  status: ('A' for Active; 'I' for Inactive)
REMARK    1  A    between atoms: C_1  and  C_2
REMARK    2  A    between atoms: C_2  and  C_3
REMARK    3  A    between atoms: C_3  and  N_4
REMARK    4  A    between atoms: N_4  and  C_5
REMARK    5  A    between atoms: N_4  and  C_8
REMARK    6  A    between atoms: C_5  and  C_6
REMARK    7  A    between atoms: C_6  and  O_7
REMARK    8  A    between atoms: C_8  and  C_10
REMARK    9  A    between atoms: C_8  and  C_17
REMARK   10  A    between atoms: C_17  and  C_19
REMARK   11  A    between atoms: C_17  and  N_21
REMARK   12  A    between atoms: C_19  and  C_20
REMARK                            x       y       z     vdW  Elec       q    Type
REMARK                         _______ _______ _______ _____ _____    ______ ____
ROOT
ATOM      1  C   UNL     1       1.481  -2.145  -2.625  0.00  0.00    -0.052 C 
ENDROOT
BRANCH   1   2
ATOM      2  C   UNL     1       0.770  -1.454  -3.760  0.00  0.00    -0.062 A 
ATOM      3  C   UNL     1      -0.612  -1.429  -3.797  0.00  0.00    +0.003 A 
ATOM      4  C   UNL     1      -1.264  -0.794  -4.838  0.00  0.00    +0.015 A 
ATOM      5  C   UNL     1      -0.534  -0.184  -5.842  0.00  0.00    +0.018 A 
ATOM      6  C   UNL     1       0.849  -0.209  -5.804  0.00  0.00    +0.015 A 
ATOM      7  C   UNL     1       1.500  -0.839  -4.761  0.00  0.00    +0.003 A 
ATOM      8 BR   UNL     1      -1.425   0.683  -7.266  0.00  0.00    -0.050 Br
ENDBRANCH   1   2
BRANCH   1   9
ATOM      9  N   UNL     1       0.773  -1.873  -1.367  0.00  0.00    +0.385 N 
ATOM     10  H   UNL     1      -0.173  -2.219  -1.431  0.00  0.00    -0.081 HD
BRANCH   9  11
ATOM     11  C   UNL     1       0.750  -0.425  -1.120  0.00  0.00    -0.078 C 
BRANCH  11  13
ATOM     12  C   UNL     1       2.162   1.605  -0.763  0.00  0.00    +0.002 C 
ATOM     13  C   UNL     1       2.184   0.090  -0.978  0.00  0.00    -0.022 C 
ENDBRANCH  11  13
ENDBRANCH   9  11
BRANCH   9  14
ATOM     14  C   UNL     1       1.466  -2.547  -0.260  0.00  0.00    -0.050 C 
BRANCH  14  15
ATOM     15  C   UNL     1       0.663  -2.368   1.029  0.00  0.00    +0.137 C 
BRANCH  15  16
ATOM     16  O   UNL     1      -0.601  -3.022   0.899  0.00  0.00    -0.397 OA
ATOM     17  H   UNL     1      -1.164  -2.949   1.681  0.00  0.00    +0.209 HD
ENDBRANCH  15  16
ENDBRANCH  14  15
ENDBRANCH   9  14
ENDBRANCH   1   9
BRANCH   1  18
ATOM     18  C   UNL     1       1.504  -3.653  -2.882  0.00  0.00    -0.085 C 
BRANCH  18  19
ATOM     19  N   UNL     1       2.105  -3.917  -4.196  0.00  0.00    +0.379 N 
ATOM     20  H   UNL     1       1.559  -3.462  -4.913  0.00  0.00    -0.090 HD
ATOM     21  H   UNL     1       3.048  -3.558  -4.213  0.00  0.00    -0.090 HD
ATOM     22  H   UNL     1       2.121  -4.912  -4.365  0.00  0.00    -0.090 HD
ENDBRANCH  18  19
BRANCH  18  23
ATOM     23  C   UNL     1       0.075  -4.198  -2.856  0.00  0.00    -0.021 C 
ATOM     24  C   UNL     1       0.107  -5.721  -2.988  0.00  0.00    +0.002 C 
ENDBRANCH  18  23
ENDBRANCH   1  18
TORSDOF 10
