REMARK  Name = ZINC12864980
REMARK  10 active torsions:
REMARK  status: ('A' for Active; 'I' for Inactive)
REMARK    1  A    between atoms: C_1  and  C_2
REMARK    2  A    between atoms: C_7  and  N_8
REMARK    3  A    between atoms: C_9  and  N_14
REMARK    4  A    between atoms: C_11  and  C_13
REMARK    5  A    between atoms: C_15  and  C_17
REMARK    6  A    between atoms: C_17  and  N_54
REMARK    7  A    between atoms: C_18  and  N_54
REMARK    8  A    between atoms: C_19  and  C_20
REMARK    9  A    between atoms: C_19  and  N_54
REMARK   10  A    between atoms: N_22  and  C_23
REMARK                            x       y       z     vdW  Elec       q    Type
REMARK                         _______ _______ _______ _____ _____    ______ ____
ROOT
ATOM      1  N   UNL     1       2.975   1.102   2.151  0.00  0.00    -0.272 N 
ATOM      2  C   UNL     1       4.310   0.915   2.117  0.00  0.00    +0.202 C 
ATOM      3  O   UNL     1       5.050   1.740   2.611  0.00  0.00    -0.278 OA
ATOM      4  H   UNL     1       2.383   0.443   1.756  0.00  0.00    +0.156 HD
ENDROOT
BRANCH   1   6
ATOM      5  N   UNL     1       1.127   2.502   2.967  0.00  0.00    -0.218 N 
ATOM      6  C   UNL     1       2.446   2.243   2.753  0.00  0.00    +0.129 A 
ATOM      7  C   UNL     1       3.153   3.302   3.234  0.00  0.00    +0.068 A 
ATOM      8  C   UNL     1       2.243   4.226   3.754  0.00  0.00    +0.062 A 
ATOM      9  N   UNL     1       1.033   3.753   3.590  0.00  0.00    -0.170 NA
ATOM     10  C   UNL     1       2.594   5.547   4.389  0.00  0.00    +0.067 C 
BRANCH   5  17
ATOM     11  C   UNL     1      -0.851   1.964   4.942  0.00  0.00    +0.046 C 
ATOM     12  C   UNL     1      -0.932   1.381   3.554  0.00  0.00    -0.025 A 
ATOM     13  C   UNL     1      -1.988   0.560   3.210  0.00  0.00    +0.005 A 
ATOM     14  C   UNL     1      -2.066   0.030   1.935  0.00  0.00    +0.000 A 
ATOM     15  C   UNL     1      -1.082   0.311   1.005  0.00  0.00    +0.002 A 
ATOM     16  C   UNL     1      -0.024   1.131   1.343  0.00  0.00    +0.028 A 
ATOM     17  C   UNL     1       0.055   1.669   2.621  0.00  0.00    +0.070 A 
ENDBRANCH   5  17
ENDBRANCH   1   6
BRANCH   2  18
ATOM     18  C   UNL     1       4.882  -0.317   1.466  0.00  0.00    +0.019 C 
BRANCH  18  20
ATOM     19  C   UNL     1       6.902   0.819   0.765  0.00  0.00    -0.095 C 
ATOM     20  N   UNL     1       6.354  -0.281   1.587  0.00  0.00    +0.389 N 
ATOM     21  H   UNL     1       6.604  -0.119   2.570  0.00  0.00    -0.081 HD
BRANCH  20  22
ATOM     22  C   UNL     1       6.929  -1.571   1.153  0.00  0.00    +0.019 C 
BRANCH  22  23
ATOM     23  C   UNL     1       8.397  -1.588   1.491  0.00  0.00    +0.201 C 
ATOM     24  O   UNL     1       8.909  -0.624   2.020  0.00  0.00    -0.278 OA
ATOM     25  N   UNL     1       9.142  -2.675   1.207  0.00  0.00    -0.285 N 
ATOM     26  H   UNL     1       8.754  -3.413   0.712  0.00  0.00    +0.155 HD
BRANCH  25  27
ATOM     27  C   UNL     1      10.477  -2.738   1.625  0.00  0.00    +0.070 A 
ATOM     28  C   UNL     1      11.351  -1.701   1.324  0.00  0.00    +0.064 A 
ATOM     29  C   UNL     1      12.667  -1.764   1.742  0.00  0.00    +0.022 A 
ATOM     30  C   UNL     1      13.116  -2.863   2.451  0.00  0.00    +0.003 A 
ATOM     31  C   UNL     1      12.251  -3.900   2.748  0.00  0.00    +0.022 A 
ATOM     32  C   UNL     1      10.932  -3.841   2.337  0.00  0.00    +0.064 A 
ATOM     33 CL   UNL     1       9.847  -5.143   2.710  0.00  0.00    -0.082 Cl
ATOM     34 CL   UNL     1      10.789  -0.323   0.429  0.00  0.00    -0.082 Cl
ENDBRANCH  25  27
ENDBRANCH  22  23
ENDBRANCH  20  22
ENDBRANCH  18  20
ENDBRANCH   2  18
TORSDOF 7
