REMARK  Name = ZINC16439297
REMARK  12 active torsions:
REMARK  status: ('A' for Active; 'I' for Inactive)
REMARK    1  A    between atoms: C_1  and  C_2
REMARK    2  A    between atoms: C_2  and  O_3
REMARK    3  A    between atoms: O_3  and  C_4
REMARK    4  A    between atoms: C_6  and  C_15
REMARK    5  A    between atoms: C_9  and  O_10
REMARK    6  A    between atoms: O_10  and  C_11
REMARK    7  A    between atoms: C_11  and  C_12
REMARK    8  A    between atoms: C_16  and  C_17
REMARK    9  A    between atoms: C_16  and  C_19
REMARK   10  A    between atoms: N_21  and  C_22
REMARK   11  A    between atoms: C_26  and  C_29
REMARK   12  A    between atoms: C_27  and  C_28
REMARK                            x       y       z     vdW  Elec       q    Type
REMARK                         _______ _______ _______ _____ _____    ______ ____
ROOT
ATOM      1  C   UNL     1      -0.030  -4.981   0.563  0.00  0.00    +0.032 C 
ATOM      2  C   UNL     1      -0.074  -6.332   0.299  0.00  0.00    +0.114 C 
ENDROOT
BRANCH   1   5
ATOM      3  C   UNL     1       1.210  -1.964  -1.282  0.00  0.00    +0.164 A 
ATOM      4  C   UNL     1       0.411  -2.786  -0.515  0.00  0.00    +0.057 A 
ATOM      5  C   UNL     1       0.814  -4.103  -0.251  0.00  0.00    -0.019 A 
ATOM      6  C   UNL     1       2.028  -4.577  -0.770  0.00  0.00    +0.027 A 
ATOM      7  C   UNL     1       2.818  -3.748  -1.534  0.00  0.00    +0.064 A 
ATOM      8  C   UNL     1       2.414  -2.444  -1.799  0.00  0.00    +0.176 A 
ATOM      9 BR   UNL     1       4.455  -4.388  -2.233  0.00  0.00    -0.046 Br
BRANCH   3  10
ATOM     10  O   UNL     1       0.822  -0.686  -1.539  0.00  0.00    -0.489 OA
BRANCH  10  12
ATOM     11  C   UNL     1      -0.687   1.194  -1.373  0.00  0.00    +0.048 C 
ATOM     12  C   UNL     1      -0.421  -0.260  -0.979  0.00  0.00    +0.226 C 
ENDBRANCH  10  12
ENDBRANCH   3  10
BRANCH   8  13
ATOM     13  O   UNL     1       3.195  -1.635  -2.558  0.00  0.00    -0.483 OA
BRANCH  13  14
ATOM     14  C   UNL     1       4.176  -0.852  -1.875  0.00  0.00    +0.256 C 
BRANCH  14  15
ATOM     15  C   UNL     1       4.941  -0.022  -2.873  0.00  0.00    +0.006 C 
ATOM     16  C   UNL     1       5.181   1.242  -2.627  0.00  0.00    +0.007 C 
ENDBRANCH  14  15
ENDBRANCH  13  14
ENDBRANCH   8  13
ENDBRANCH   1   5
BRANCH   2  17
ATOM     17  C   UNL     1      -0.786  -7.238   1.214  0.00  0.00    +0.259 C 
ATOM     18  O   UNL     1      -1.337  -6.793   2.203  0.00  0.00    -0.269 OA
ATOM     19  N   UNL     1      -0.830  -8.560   0.955  0.00  0.00    -0.281 N 
ATOM     20  H   UNL     1      -0.364  -8.919   0.184  0.00  0.00    +0.155 HD
BRANCH  19  21
ATOM     21  C   UNL     1      -1.545  -9.414   1.800  0.00  0.00    +0.037 A 
ATOM     22  C   UNL     1      -1.656  -9.122   3.154  0.00  0.00    +0.023 A 
ATOM     23  C   UNL     1      -2.364  -9.968   3.985  0.00  0.00    +0.002 A 
ATOM     24  C   UNL     1      -2.962 -11.104   3.471  0.00  0.00    +0.004 A 
ATOM     25  C   UNL     1      -2.854 -11.397   2.124  0.00  0.00    -0.046 A 
ATOM     26  C   UNL     1      -2.152 -10.553   1.286  0.00  0.00    -0.026 A 
ATOM     27  C   UNL     1      -2.040 -10.870  -0.183  0.00  0.00    +0.046 C 
ATOM     28  C   UNL     1      -3.507 -12.637   1.569  0.00  0.00    +0.044 C 
ENDBRANCH  19  21
ENDBRANCH   2  17
BRANCH   2  29
ATOM     29  C   UNL     1       0.574  -6.856  -0.866  0.00  0.00    +0.104 C 
ATOM     30  N   UNL     1       1.087  -7.272  -1.790  0.00  0.00    -0.191 NA
ENDBRANCH   2  29
TORSDOF 9
