REMARK  Name = ZINC14966499
REMARK  6 active torsions:
REMARK  status: ('A' for Active; 'I' for Inactive)
REMARK    1  A    between atoms: C_1  and  C_2
REMARK    2  A    between atoms: C_6  and  C_7
REMARK    3  A    between atoms: C_7  and  N_65
REMARK    4  A    between atoms: C_10  and  C_13
REMARK    5  A    between atoms: C_10  and  O_34
REMARK    6  A    between atoms: C_20  and  C_22
REMARK                            x       y       z     vdW  Elec       q    Type
REMARK                         _______ _______ _______ _____ _____    ______ ____
ROOT
ATOM      1  C   UNL     1      -0.826  -0.292  -0.903  0.00  0.00    -0.015 A 
ATOM      2  C   UNL     1      -2.005  -0.783  -1.447  0.00  0.00    +0.010 A 
ATOM      3  C   UNL     1      -2.218  -2.140  -1.557  0.00  0.00    +0.047 A 
ATOM      4  C   UNL     1      -1.245  -3.032  -1.119  0.00  0.00    +0.136 A 
ATOM      5  C   UNL     1      -0.051  -2.528  -0.570  0.00  0.00    +0.021 A 
ATOM      6  C   UNL     1       0.148  -1.149  -0.472  0.00  0.00    +0.018 A 
ATOM      7  C   UNL     1       0.747  -3.701  -0.215  0.00  0.00    +0.063 A 
ATOM      8  C   UNL     1       0.003  -4.782  -0.564  0.00  0.00    +0.191 A 
ATOM      9  O   UNL     1      -1.169  -4.376  -1.096  0.00  0.00    -0.450 OA
ENDROOT
BRANCH   8  10
ATOM     10  C   UNL     1       0.413  -6.183  -0.390  0.00  0.00    +0.282 C 
ATOM     11  O   UNL     1       1.546  -6.445  -0.031  0.00  0.00    -0.267 OA
ATOM     12  N   UNL     1      -0.466  -7.177  -0.627  0.00  0.00    -0.290 N 
ATOM     13  C   UNL     1      -0.106  -8.587  -0.403  0.00  0.00    +0.113 C 
ATOM     14  C   UNL     1      -1.005  -9.122   0.718  0.00  0.00    +0.054 C 
ATOM     15  C   UNL     1      -2.444  -8.754   0.472  0.00  0.00    -0.041 A 
ATOM     16  C   UNL     1      -3.419  -9.490   1.133  0.00  0.00    +0.004 A 
ATOM     17  C   UNL     1      -4.756  -9.197   0.962  0.00  0.00    +0.000 A 
ATOM     18  C   UNL     1      -5.132  -8.162   0.126  0.00  0.00    +0.000 A 
ATOM     19  C   UNL     1      -4.166  -7.432  -0.535  0.00  0.00    +0.005 A 
ATOM     20  C   UNL     1      -2.820  -7.728  -0.367  0.00  0.00    -0.027 A 
ATOM     21  C   UNL     1      -1.817  -6.897  -1.126  0.00  0.00    +0.143 C 
ENDBRANCH   8  10
BRANCH   1  24
ATOM     22  C   UNL     1      -1.201   3.418  -1.770  0.00  0.00    -0.075 C 
ATOM     23  C   UNL     1      -1.369   1.904  -1.922  0.00  0.00    +0.021 C 
ATOM     24  C   UNL     1      -0.615   1.196  -0.793  0.00  0.00    +0.088 C 
ATOM     25  C   UNL     1      -1.147   1.690   0.555  0.00  0.00    +0.021 C 
ATOM     26  C   UNL     1      -0.987   3.210   0.635  0.00  0.00    -0.075 C 
ATOM     27  N   UNL     1      -1.756   3.833  -0.464  0.00  0.00    +0.383 N 
ATOM     28  H   UNL     1      -2.733   3.524  -0.403  0.00  0.00    -0.081 HD
BRANCH  24  29
ATOM     29  O   UNL     1       0.780   1.490  -0.893  0.00  0.00    -0.384 OA
ATOM     30  H   UNL     1       1.319   1.074  -0.206  0.00  0.00    +0.211 HD
ENDBRANCH  24  29
BRANCH  27  31
ATOM     31  C   UNL     1      -1.710   5.304  -0.341  0.00  0.00    -0.035 C 
BRANCH  31  37
ATOM     32  C   UNL     1      -4.603   5.636   0.637  0.00  0.00    +0.044 C 
ATOM     33  C   UNL     1      -3.408   5.855   1.528  0.00  0.00    -0.042 A 
ATOM     34  C   UNL     1      -3.577   6.219   2.851  0.00  0.00    +0.011 A 
ATOM     35  C   UNL     1      -2.481   6.415   3.624  0.00  0.00    +0.045 A 
ATOM     36  S   UNL     1      -1.155   6.076   2.478  0.00  0.00    -0.103 S 
ATOM     37  C   UNL     1      -2.151   5.695   1.046  0.00  0.00    -0.024 A 
ENDBRANCH  31  37
ENDBRANCH  27  31
ENDBRANCH   1  24
TORSDOF 5
