REMARK  Name = ZINC42866626
REMARK  8 active torsions:
REMARK  status: ('A' for Active; 'I' for Inactive)
REMARK    1  A    between atoms: C_1  and  C_2
REMARK    2  A    between atoms: C_8  and  C_10
REMARK    3  A    between atoms: C_10  and  N_11
REMARK    4  A    between atoms: N_11  and  S_12
REMARK    5  A    between atoms: S_12  and  C_15
REMARK    6  A    between atoms: C_15  and  C_16
REMARK    7  A    between atoms: C_21  and  C_22
REMARK    8  A    between atoms: C_22  and  N_23
REMARK                            x       y       z     vdW  Elec       q    Type
REMARK                         _______ _______ _______ _____ _____    ______ ____
ROOT
ATOM      1  S   UNL     1       4.574  -0.471   2.385  0.00  0.00    +0.033 S 
ATOM      2  O   UNL     1       4.950  -1.144   3.579  0.00  0.00    -0.158 OA
ATOM      3  O   UNL     1       4.989  -0.959   1.117  0.00  0.00    -0.158 OA
ENDROOT
BRANCH   1   4
ATOM      4  N   UNL     1       2.921  -0.562   2.352  0.00  0.00    -0.194 NA
ATOM      5  H   UNL     1       2.444  -0.999   3.075  0.00  0.00    +0.148 HD
BRANCH   4   6
ATOM      6  C   UNL     1       2.178   0.019   1.231  0.00  0.00    +0.109 C 
BRANCH   6  13
ATOM      7  C   UNL     1      -0.019   1.526   0.010  0.00  0.00    +0.008 C 
ATOM      8  C   UNL     1       0.002  -0.004   0.002  0.00  0.00    -0.010 C 
ATOM      9  C   UNL     1      -1.433  -0.534   0.013  0.00  0.00    +0.003 C 
ATOM     10  C   UNL     1      -2.149  -0.040   1.272  0.00  0.00    +0.000 C 
ATOM     11  C   UNL     1      -1.409  -0.547   2.511  0.00  0.00    +0.000 C 
ATOM     12  C   UNL     1       0.026  -0.018   2.500  0.00  0.00    +0.005 C 
ATOM     13  C   UNL     1       0.742  -0.511   1.242  0.00  0.00    +0.007 C 
ENDBRANCH   6  13
ENDBRANCH   4   6
ENDBRANCH   1   4
BRANCH   1  14
ATOM     14  C   UNL     1       4.941   1.300   2.524  0.00  0.00    +0.220 C 
BRANCH  14  15
ATOM     15  C   UNL     1       6.434   1.502   2.563  0.00  0.00    -0.024 A 
ATOM     16  C   UNL     1       7.101   1.499   3.774  0.00  0.00    +0.005 A 
ATOM     17  C   UNL     1       8.470   1.684   3.810  0.00  0.00    +0.000 A 
ATOM     18  C   UNL     1       9.173   1.872   2.635  0.00  0.00    +0.000 A 
ATOM     19  C   UNL     1       8.507   1.874   1.424  0.00  0.00    +0.002 A 
ATOM     20  C   UNL     1       7.137   1.684   1.388  0.00  0.00    -0.060 A 
BRANCH  20  21
ATOM     21  C   UNL     1       6.412   1.681   0.067  0.00  0.00    -0.050 C 
BRANCH  21  22
ATOM     22  N   UNL     1       5.783   2.991  -0.149  0.00  0.00    +0.381 N 
ATOM     23  H   UNL     1       5.127   3.176   0.595  0.00  0.00    -0.090 HD
ATOM     24  H   UNL     1       6.493   3.708  -0.157  0.00  0.00    -0.090 HD
ATOM     25  H   UNL     1       5.297   2.989  -1.033  0.00  0.00    -0.090 HD
ENDBRANCH  21  22
ENDBRANCH  20  21
ENDBRANCH  14  15
ENDBRANCH   1  14
TORSDOF 7
