REMARK  Name = ZINC36828855
REMARK  5 active torsions:
REMARK  status: ('A' for Active; 'I' for Inactive)
REMARK    1  A    between atoms: C_4  and  O_19
REMARK    2  A    between atoms: C_5  and  N_7
REMARK    3  A    between atoms: N_7  and  S_8
REMARK    4  A    between atoms: S_8  and  C_11
REMARK    5  A    between atoms: O_19  and  C_20
REMARK                            x       y       z     vdW  Elec       q    Type
REMARK                         _______ _______ _______ _____ _____    ______ ____
ROOT
ATOM      1  N   UNL     1       1.235  -2.080  -0.021  0.00  0.00    -0.094 NA
ENDROOT
BRANCH   1   6
ATOM      2  C   UNL     1      -0.017   1.378   0.010  0.00  0.00    +0.002 A 
ATOM      3  C   UNL     1       1.169   2.089   0.002  0.00  0.00    +0.004 A 
ATOM      4  C   UNL     1       2.380   1.421  -0.013  0.00  0.00    +0.048 A 
ATOM      5  C   UNL     1       2.407   0.036  -0.021  0.00  0.00    +0.151 A 
ATOM      6  C   UNL     1       1.213  -0.681  -0.013  0.00  0.00    +0.116 A 
ATOM      7  C   UNL     1       0.002  -0.004   0.002  0.00  0.00    +0.030 A 
BRANCH   5   8
ATOM      8  O   UNL     1       3.598  -0.622  -0.036  0.00  0.00    -0.432 OA
BRANCH   8   9
ATOM      9  C   UNL     1       4.781   0.178  -0.044  0.00  0.00    +0.541 C 
ATOM     10  F   UNL     1       4.787   0.992  -1.182  0.00  0.00    -0.166 F 
ATOM     11  F   UNL     1       4.810   0.980   1.103  0.00  0.00    -0.166 F 
ENDBRANCH   8   9
ENDBRANCH   5   8
ENDBRANCH   1   6
BRANCH   1  12
ATOM     12  S   UNL     1      -0.186  -2.930  -0.012  0.00  0.00    +0.093 S 
ATOM     13  O   UNL     1      -0.806  -2.673   1.240  0.00  0.00    -0.148 OA
ATOM     14  O   UNL     1      -0.830  -2.659  -1.250  0.00  0.00    -0.148 OA
BRANCH  12  15
ATOM     15  C   UNL     1       0.231  -4.642  -0.026  0.00  0.00    +0.126 A 
ATOM     16  C   UNL     1       0.794  -5.218  -1.174  0.00  0.00    +0.035 A 
ATOM     17  C   UNL     1       1.111  -6.545  -1.167  0.00  0.00    +0.072 A 
ATOM     18  C   UNL     1       0.865  -7.305  -0.011  0.00  0.00    +0.249 A 
ATOM     19  O   UNL     1       1.145  -8.493   0.008  0.00  0.00    -0.268 OA
ATOM     20  N   UNL     1       0.323  -6.723   1.075  0.00  0.00    -0.327 N 
ATOM     21  H   UNL     1       0.156  -7.253   1.870  0.00  0.00    +0.168 HD
ATOM     22  C   UNL     1       0.012  -5.402   1.073  0.00  0.00    +0.114 A 
ENDBRANCH  12  15
ENDBRANCH   1  12
TORSDOF 5
