REMARK  Name = ZINC12123714
REMARK  8 active torsions:
REMARK  status: ('A' for Active; 'I' for Inactive)
REMARK    1  A    between atoms: C_1  and  O_2
REMARK    2  A    between atoms: O_2  and  C_3
REMARK    3  A    between atoms: C_7  and  C_9
REMARK    4  A    between atoms: C_9  and  N_10
REMARK    5  A    between atoms: C_21  and  N_58
REMARK    6  A    between atoms: C_25  and  C_26
REMARK    7  A    between atoms: C_25  and  N_58
REMARK    8  A    between atoms: C_26  and  C_27
REMARK                            x       y       z     vdW  Elec       q    Type
REMARK                         _______ _______ _______ _____ _____    ______ ____
ROOT
ATOM      1  N   UNL     1      -1.845   0.677   6.478  0.00  0.00    -0.294 N 
ATOM      2  C   UNL     1      -3.129   0.800   6.052  0.00  0.00    +0.203 A 
ATOM      3  N   UNL     1      -4.042  -0.067   6.399  0.00  0.00    -0.230 NA
ATOM      4  C   UNL     1      -3.744  -1.094   7.189  0.00  0.00    +0.116 A 
ATOM      5  C   UNL     1      -2.446  -1.302   7.683  0.00  0.00    +0.076 A 
ATOM      6  C   UNL     1      -1.467  -0.335   7.280  0.00  0.00    +0.263 A 
ATOM      7  O   UNL     1      -0.312  -0.429   7.657  0.00  0.00    -0.267 OA
ATOM      8  C   UNL     1      -2.267  -2.472   8.541  0.00  0.00    -0.023 A 
ATOM      9  C   UNL     1      -3.357  -3.233   8.773  0.00  0.00    -0.006 A 
ATOM     10  S   UNL     1      -4.667  -2.446   7.875  0.00  0.00    -0.073 S 
ATOM     11  C   UNL     1      -3.437  -4.474   9.610  0.00  0.00    +0.027 C 
ATOM     12  C   UNL     1      -2.171  -4.556  10.476  0.00  0.00    -0.067 C 
ATOM     13  C   UNL     1      -0.951  -4.301   9.586  0.00  0.00    -0.011 C 
ATOM     14  C   UNL     1      -0.918  -2.834   9.156  0.00  0.00    +0.035 C 
ENDROOT
BRANCH  12  15
ATOM     15  N   UNL     1      -2.067  -5.900  11.074  0.00  0.00    +0.381 N 
ATOM     16  H   UNL     1      -1.082  -6.102  11.282  0.00  0.00    -0.086 HD
ATOM     17  H   UNL     1      -2.427  -6.595  10.410  0.00  0.00    -0.086 HD
BRANCH  15  18
ATOM     18  C   UNL     1      -2.850  -5.967  12.322  0.00  0.00    -0.078 C 
BRANCH  18  19
ATOM     19  C   UNL     1      -2.723  -7.370  12.919  0.00  0.00    +0.016 C 
BRANCH  19  20
ATOM     20  C   UNL     1      -3.521  -7.447  14.195  0.00  0.00    -0.049 A 
ATOM     21  C   UNL     1      -2.925  -7.136  15.403  0.00  0.00    +0.006 A 
ATOM     22  C   UNL     1      -3.657  -7.202  16.573  0.00  0.00    +0.038 A 
ATOM     23  C   UNL     1      -4.986  -7.590  16.537  0.00  0.00    +0.123 A 
ATOM     24  C   UNL     1      -5.580  -7.907  15.327  0.00  0.00    +0.038 A 
ATOM     25  C   UNL     1      -4.848  -7.835  14.158  0.00  0.00    +0.006 A 
ATOM     26  F   UNL     1      -5.701  -7.660  17.680  0.00  0.00    -0.205 F 
ENDBRANCH  19  20
ENDBRANCH  18  19
ENDBRANCH  15  18
ENDBRANCH  12  15
BRANCH   1  27
ATOM     27  C   UNL     1      -0.852   1.671   6.060  0.00  0.00    +0.161 C 
BRANCH  27  32
ATOM     28  C   UNL     1      -0.149   1.182   2.380  0.00  0.00    +0.120 A 
ATOM     29  C   UNL     1       0.991   0.392   2.421  0.00  0.00    +0.045 A 
ATOM     30  C   UNL     1       1.534   0.028   3.637  0.00  0.00    +0.004 A 
ATOM     31  C   UNL     1       0.936   0.440   4.814  0.00  0.00    +0.005 A 
ATOM     32  C   UNL     1      -0.203   1.222   4.776  0.00  0.00    -0.024 A 
ATOM     33  C   UNL     1      -0.747   1.594   3.561  0.00  0.00    +0.051 A 
BRANCH  28  35
ATOM     34  C   UNL     1      -0.013   1.086   0.008  0.00  0.00    +0.277 C 
ATOM     35  O   UNL     1      -0.682   1.547   1.184  0.00  0.00    -0.495 OA
ENDBRANCH  28  35
ENDBRANCH  27  32
ENDBRANCH   1  27
TORSDOF 7
