REMARK  Name = ZINC06089402
REMARK  8 active torsions:
REMARK  status: ('A' for Active; 'I' for Inactive)
REMARK    1  A    between atoms: C_1  and  C_2
REMARK    2  A    between atoms: C_2  and  O_3
REMARK    3  A    between atoms: O_3  and  C_4
REMARK    4  A    between atoms: C_4  and  C_6
REMARK    5  A    between atoms: C_6  and  C_7
REMARK    6  A    between atoms: C_13  and  C_15
REMARK    7  A    between atoms: C_16  and  N_29
REMARK    8  A    between atoms: C_21  and  C_28
REMARK                            x       y       z     vdW  Elec       q    Type
REMARK                         _______ _______ _______ _____ _____    ______ ____
ROOT
ATOM      1  C   UNL     1      -1.657  -8.920   1.913  0.00  0.00    +0.097 A 
ATOM      2  C   UNL     1      -1.661 -10.294   1.851  0.00  0.00    +0.053 A 
ATOM      3  C   UNL     1      -2.941 -10.978   1.710  0.00  0.00    +0.028 A 
ATOM      4  C   UNL     1      -3.185 -12.360   1.627  0.00  0.00    +0.022 A 
ATOM      5  C   UNL     1      -4.503 -12.808   1.494  0.00  0.00    -0.001 A 
ATOM      6  C   UNL     1      -4.796 -14.183   1.407  0.00  0.00    +0.013 A 
ATOM      7  C   UNL     1      -6.087 -14.591   1.279  0.00  0.00    -0.050 A 
ATOM      8  C   UNL     1      -7.130 -13.667   1.231  0.00  0.00    +0.005 A 
ATOM      9  C   UNL     1      -6.887 -12.331   1.312  0.00  0.00    +0.026 A 
ATOM     10  C   UNL     1      -5.566 -11.868   1.445  0.00  0.00    +0.047 A 
ATOM     11  N   UNL     1      -5.301 -10.561   1.527  0.00  0.00    -0.349 N 
ATOM     12  C   UNL     1      -4.074 -10.120   1.652  0.00  0.00    +0.088 A 
ATOM     13  S   UNL     1      -3.381  -8.490   1.792  0.00  0.00    -0.064 S 
ATOM     14  C   UNL     1      -6.394 -16.063   1.187  0.00  0.00    +0.044 C 
ATOM     15  H   UNL     1      -6.032  -9.926   1.493  0.00  0.00    +0.166 HD
ENDROOT
BRANCH   1  22
ATOM     16  C   UNL     1       1.496  -3.885   2.424  0.00  0.00    +0.061 A 
ATOM     17  C   UNL     1       2.639  -4.612   2.482  0.00  0.00    +0.072 A 
ATOM     18  S   UNL     1       1.988  -6.269   2.346  0.00  0.00    -0.060 S 
ATOM     19  C   UNL     1       0.357  -5.869   2.232  0.00  0.00    +0.165 A 
ATOM     20  N   UNL     1       0.365  -4.555   2.303  0.00  0.00    -0.229 NA
ATOM     21  N   UNL     1      -0.733  -6.719   2.099  0.00  0.00    -0.260 N 
ATOM     22  C   UNL     1      -0.545  -8.053   2.049  0.00  0.00    +0.258 C 
ATOM     23  O   UNL     1       0.581  -8.512   2.119  0.00  0.00    -0.269 OA
ATOM     24  H   UNL     1      -1.630  -6.353   2.043  0.00  0.00    +0.157 HD
BRANCH  16  25
ATOM     25  C   UNL     1       1.516  -2.381   2.500  0.00  0.00    +0.176 C 
BRANCH  25  26
ATOM     26  C   UNL     1       0.801  -1.808   1.304  0.00  0.00    +0.313 C 
ATOM     27  O   UNL     1       0.324  -2.546   0.475  0.00  0.00    -0.250 OA
BRANCH  26  28
ATOM     28  O   UNL     1       0.693  -0.477   1.160  0.00  0.00    -0.465 OA
BRANCH  28  30
ATOM     29  C   UNL     1      -0.019   1.526   0.010  0.00  0.00    +0.048 C 
ATOM     30  C   UNL     1       0.002  -0.004   0.002  0.00  0.00    +0.229 C 
ENDBRANCH  28  30
ENDBRANCH  26  28
ENDBRANCH  25  26
ENDBRANCH  16  25
ENDBRANCH   1  22
BRANCH   2  31
ATOM     31  N   UNL     1      -0.476 -11.012   1.919  0.00  0.00    -0.356 N 
ATOM     32  H   UNL     1       0.369 -10.545   2.013  0.00  0.00    +0.142 HD
ATOM     33  H   UNL     1      -0.493 -11.981   1.873  0.00  0.00    +0.142 HD
ENDBRANCH   2  31
TORSDOF 6
