REMARK  Name = ZINC48558867
REMARK  9 active torsions:
REMARK  status: ('A' for Active; 'I' for Inactive)
REMARK    1  A    between atoms: C_1  and  C_2
REMARK    2  A    between atoms: C_6  and  C_8
REMARK    3  A    between atoms: C_12  and  C_15
REMARK    4  A    between atoms: C_15  and  N_16
REMARK    5  A    between atoms: N_19  and  C_20
REMARK    6  A    between atoms: C_20  and  C_21
REMARK    7  A    between atoms: C_21  and  N_22
REMARK    8  A    between atoms: N_22  and  S_23
REMARK    9  A    between atoms: S_23  and  C_26
REMARK                            x       y       z     vdW  Elec       q    Type
REMARK                         _______ _______ _______ _____ _____    ______ ____
ROOT
ATOM      1  C   UNL     1       0.024   1.508  -0.007  0.00  0.00    +0.039 C 
ATOM      2  C   UNL     1       0.027  -0.022  -0.001  0.00  0.00    +0.133 C 
ATOM      3  C   UNL     1      -1.417  -0.537   0.005  0.00  0.00    +0.137 C 
ATOM      4  N   UNL     1      -1.389  -1.995   0.200  0.00  0.00    -0.312 N 
ATOM      5  C   UNL     1      -0.594  -2.529   1.318  0.00  0.00    +0.137 C 
ATOM      6  C   UNL     1       0.810  -1.917   1.248  0.00  0.00    +0.133 C 
ATOM      7  O   UNL     1       0.700  -0.493   1.170  0.00  0.00    -0.371 OA
ATOM      8  C   UNL     1       1.597  -2.300   2.503  0.00  0.00    +0.039 C 
ATOM      9  C   UNL     1      -2.092  -2.844  -0.647  0.00  0.00    +0.099 A 
ATOM     10  C   UNL     1      -2.931  -2.308  -1.619  0.00  0.00    +0.042 A 
ATOM     11  C   UNL     1      -3.625  -3.164  -2.454  0.00  0.00    +0.010 A 
ATOM     12  C   UNL     1      -3.457  -4.533  -2.289  0.00  0.00    -0.014 A 
ATOM     13  C   UNL     1      -2.608  -4.996  -1.304  0.00  0.00    +0.089 A 
ATOM     14  N   UNL     1      -1.954  -4.155  -0.524  0.00  0.00    -0.349 N 
ATOM     15  H   UNL     1      -1.361  -4.507   0.158  0.00  0.00    +0.167 HD
ENDROOT
BRANCH  12  16
ATOM     16  C   UNL     1      -4.193  -5.503  -3.176  0.00  0.00    +0.142 C 
BRANCH  16  17
ATOM     17  N   UNL     1      -3.381  -5.796  -4.360  0.00  0.00    -0.295 N 
ATOM     18  C   UNL     1      -3.841  -6.645  -5.300  0.00  0.00    +0.300 C 
ATOM     19  O   UNL     1      -4.931  -7.168  -5.166  0.00  0.00    -0.253 OA
ATOM     20  N   UNL     1      -3.094  -6.915  -6.389  0.00  0.00    -0.298 N 
ATOM     21  H   UNL     1      -2.512  -5.379  -4.467  0.00  0.00    +0.151 HD
ATOM     22  H   UNL     1      -2.225  -6.497  -6.496  0.00  0.00    +0.150 HD
BRANCH  20  23
ATOM     23  C   UNL     1      -3.594  -7.838  -7.410  0.00  0.00    +0.122 C 
BRANCH  23  24
ATOM     24  C   UNL     1      -2.561  -7.967  -8.531  0.00  0.00    +0.124 C 
BRANCH  24  25
ATOM     25  N   UNL     1      -3.061  -8.890  -9.553  0.00  0.00    -0.193 NA
ATOM     26  H   UNL     1      -3.813  -9.470  -9.356  0.00  0.00    +0.148 HD
BRANCH  25  27
ATOM     27  S   UNL     1      -2.342  -8.944 -11.044  0.00  0.00    +0.027 S 
ATOM     28  O   UNL     1      -3.086  -9.912 -11.770  0.00  0.00    -0.158 OA
ATOM     29  O   UNL     1      -2.299  -7.590 -11.474  0.00  0.00    -0.158 OA
ATOM     30  C   UNL     1      -0.663  -9.553 -10.730  0.00  0.00    +0.214 C 
ENDBRANCH  25  27
ENDBRANCH  24  25
ENDBRANCH  23  24
ENDBRANCH  20  23
ENDBRANCH  16  17
ENDBRANCH  12  16
TORSDOF 6
