REMARK  Name = ZINC16026968
REMARK  11 active torsions:
REMARK  status: ('A' for Active; 'I' for Inactive)
REMARK    1  A    between atoms: C_1  and  C_2
REMARK    2  A    between atoms: C_2  and  O_3
REMARK    3  A    between atoms: O_3  and  C_4
REMARK    4  A    between atoms: C_4  and  C_6
REMARK    5  A    between atoms: C_9  and  N_12
REMARK    6  A    between atoms: C_13  and  C_15
REMARK    7  A    between atoms: C_18  and  C_32
REMARK    8  A    between atoms: C_24  and  C_31
REMARK    9  A    between atoms: C_25  and  C_30
REMARK   10  A    between atoms: C_32  and  C_34
REMARK   11  A    between atoms: C_32  and  O_35
REMARK                            x       y       z     vdW  Elec       q    Type
REMARK                         _______ _______ _______ _____ _____    ______ ____
ROOT
ATOM      1  C   UNL     1       1.378  -0.168  -0.944  0.00  0.00    +0.076 C 
ATOM      2  C   UNL     1       0.218   0.289  -0.017  0.00  0.00    -0.001 C 
ATOM      3  C   UNL     1       0.386   1.829  -0.039  0.00  0.00    -0.040 C 
ATOM      4  C   UNL     1       2.483   0.854  -0.636  0.00  0.00    +0.049 C 
ATOM      5  C   UNL     1       3.268   1.184  -1.878  0.00  0.00    -0.027 A 
ATOM      6  C   UNL     1       2.925   1.731  -3.094  0.00  0.00    +0.005 A 
ATOM      7  C   UNL     1       3.892   1.919  -4.065  0.00  0.00    +0.004 A 
ATOM      8  C   UNL     1       5.202   1.557  -3.811  0.00  0.00    -0.046 A 
ATOM      9  C   UNL     1       5.550   1.009  -2.594  0.00  0.00    -0.026 A 
ATOM     10  C   UNL     1       4.582   0.815  -1.611  0.00  0.00    +0.039 A 
ATOM     11  N   UNL     1       4.683   0.286  -0.323  0.00  0.00    -0.286 N 
ATOM     12  C   UNL     1       3.498   0.272   0.315  0.00  0.00    +0.211 C 
ATOM     13  O   UNL     1       3.286  -0.131   1.439  0.00  0.00    -0.277 OA
ATOM     14  C   UNL     1       6.980   0.618  -2.328  0.00  0.00    +0.046 C 
ATOM     15  C   UNL     1       6.255   1.762  -4.870  0.00  0.00    +0.044 C 
ATOM     16  H   UNL     1       5.511  -0.034   0.067  0.00  0.00    +0.155 HD
ATOM     17  N   UNL     1       1.845   2.043  -0.073  0.00  0.00    +0.395 N 
ATOM     18  H   UNL     1       2.193   2.203   0.880  0.00  0.00    -0.083 HD
ATOM     19  H   UNL     1       2.061   2.860  -0.657  0.00  0.00    -0.083 HD
ENDROOT
BRANCH   1  21
ATOM     20  N   UNL     1       1.514  -0.933  -3.292  0.00  0.00    -0.285 N 
ATOM     21  C   UNL     1       0.965  -0.094  -2.391  0.00  0.00    +0.220 C 
ATOM     22  O   UNL     1       0.139   0.720  -2.746  0.00  0.00    -0.275 OA
ATOM     23  H   UNL     1       2.125  -1.627  -2.999  0.00  0.00    +0.155 HD
BRANCH  20  27
ATOM     24  C   UNL     1       0.586  -0.547  -7.334  0.00  0.00    +0.059 A 
ATOM     25  C   UNL     1       1.874  -0.926  -6.944  0.00  0.00    +0.017 A 
ATOM     26  C   UNL     1       2.177  -1.052  -5.608  0.00  0.00    +0.024 A 
ATOM     27  C   UNL     1       1.204  -0.803  -4.645  0.00  0.00    +0.033 A 
ATOM     28  C   UNL     1      -0.081  -0.431  -5.030  0.00  0.00    +0.024 A 
ATOM     29  C   UNL     1      -0.390  -0.297  -6.364  0.00  0.00    +0.017 A 
BRANCH  24  30
ATOM     30  C   UNL     1       0.257  -0.409  -8.765  0.00  0.00    +0.339 C 
ATOM     31  O   UNL     1       1.106  -0.626  -9.607  0.00  0.00    -0.245 OA
BRANCH  30  32
ATOM     32  O   UNL     1      -0.985  -0.044  -9.139  0.00  0.00    -0.461 OA
BRANCH  32  34
ATOM     33  C   UNL     1      -2.689   0.493 -10.793  0.00  0.00    +0.048 C 
ATOM     34  C   UNL     1      -1.237   0.071 -10.565  0.00  0.00    +0.229 C 
ENDBRANCH  32  34
ENDBRANCH  30  32
ENDBRANCH  24  30
ENDBRANCH  20  27
ENDBRANCH   1  21
BRANCH   3  35
ATOM     35  C   UNL     1      -0.219   2.449   1.222  0.00  0.00    +0.098 C 
ATOM     36  C   UNL     1      -0.043   3.968   1.179  0.00  0.00    +0.036 C 
BRANCH  35  37
ATOM     37  O   UNL     1      -1.611   2.133   1.287  0.00  0.00    -0.394 OA
ATOM     38  H   UNL     1      -2.124   2.458   0.535  0.00  0.00    +0.210 HD
ENDBRANCH  35  37
ENDBRANCH   3  35
TORSDOF 7
