REMARK  Name = ZINC26849040
REMARK  8 active torsions:
REMARK  status: ('A' for Active; 'I' for Inactive)
REMARK    1  A    between atoms: C_1  and  C_2
REMARK    2  A    between atoms: N_10  and  N_14
REMARK    3  A    between atoms: C_15  and  C_17
REMARK    4  A    between atoms: C_17  and  N_18
REMARK    5  A    between atoms: N_18  and  C_19
REMARK    6  A    between atoms: N_18  and  C_20
REMARK    7  A    between atoms: C_20  and  C_21
REMARK    8  A    between atoms: N_23  and  C_24
REMARK                            x       y       z     vdW  Elec       q    Type
REMARK                         _______ _______ _______ _____ _____    ______ ____
ROOT
ATOM      1  N   UNL     1       3.318  -3.570   0.059  0.00  0.00    -0.225 N 
ATOM      2  C   UNL     1       2.967  -2.282  -0.132  0.00  0.00    +0.213 C 
ATOM      3  O   UNL     1       3.822  -1.437  -0.289  0.00  0.00    -0.276 OA
ATOM      4  H   UNL     1       2.542  -4.336   0.202  0.00  0.00    +0.173 HD
ENDROOT
BRANCH   1  14
ATOM      5  C   UNL     1      10.941  -5.673   0.726  0.00  0.00    +0.007 C 
ATOM      6  C   UNL     1       9.530  -5.351   1.220  0.00  0.00    -0.014 C 
ATOM      7  C   UNL     1       9.171  -3.913   0.837  0.00  0.00    +0.006 C 
ATOM      8  C   UNL     1       7.763  -3.588   1.342  0.00  0.00    +0.035 C 
ATOM      9  C   UNL     1       6.762  -4.560   0.728  0.00  0.00    +0.114 C 
ATOM     10  C   UNL     1       7.121  -5.999   1.081  0.00  0.00    +0.035 C 
ATOM     11  C   UNL     1       8.531  -6.315   0.577  0.00  0.00    +0.006 C 
ATOM     12  C   UNL     1       5.361  -4.237   1.194  0.00  0.00    +0.263 C 
ATOM     13  O   UNL     1       4.945  -4.250   2.332  0.00  0.00    -0.271 OA
ATOM     14  N   UNL     1       4.671  -3.932   0.075  0.00  0.00    -0.137 N 
ATOM     15  C   UNL     1       5.438  -4.023  -1.018  0.00  0.00    +0.326 C 
ATOM     16  O   UNL     1       5.040  -3.801  -2.144  0.00  0.00    -0.251 OA
ATOM     17  N   UNL     1       6.703  -4.386  -0.729  0.00  0.00    -0.284 N 
ATOM     18  H   UNL     1       7.601  -4.555  -1.340  0.00  0.00    +0.151 HD
ENDBRANCH   1  14
BRANCH   2  19
ATOM     19  C   UNL     1       1.511  -1.893  -0.149  0.00  0.00    +0.020 C 
BRANCH  19  20
ATOM     20  N   UNL     1       1.394  -0.446  -0.371  0.00  0.00    +0.389 N 
ATOM     21  C   UNL     1       1.870  -0.079  -1.712  0.00  0.00    -0.095 C 
ATOM     22  H   UNL     1       2.034   0.062   0.365  0.00  0.00    -0.081 HD
BRANCH  20  23
ATOM     23  C   UNL     1       0.013   0.009  -0.160  0.00  0.00    +0.019 C 
BRANCH  23  24
ATOM     24  C   UNL     1      -0.024   1.516  -0.154  0.00  0.00    +0.201 C 
ATOM     25  O   UNL     1       0.999   2.148  -0.310  0.00  0.00    -0.278 OA
ATOM     26  N   UNL     1      -1.195   2.161   0.019  0.00  0.00    -0.287 N 
ATOM     27  H   UNL     1      -2.134   1.591   0.072  0.00  0.00    +0.155 HD
BRANCH  26  28
ATOM     28  C   UNL     1      -1.215   3.556   0.133  0.00  0.00    +0.035 A 
ATOM     29  C   UNL     1      -0.159   4.220   0.743  0.00  0.00    +0.025 A 
ATOM     30  C   UNL     1      -0.178   5.597   0.848  0.00  0.00    +0.023 A 
ATOM     31  C   UNL     1      -1.255   6.314   0.357  0.00  0.00    +0.059 A 
ATOM     32  C   UNL     1      -2.312   5.655  -0.246  0.00  0.00    +0.061 A 
ATOM     33  C   UNL     1      -2.295   4.277  -0.359  0.00  0.00    +0.044 A 
ATOM     34 CL   UNL     1      -3.661   6.558  -0.860  0.00  0.00    -0.082 Cl
ATOM     35 CL   UNL     1      -1.279   8.045   0.498  0.00  0.00    -0.082 Cl
ENDBRANCH  26  28
ENDBRANCH  23  24
ENDBRANCH  20  23
ENDBRANCH  19  20
ENDBRANCH   2  19
TORSDOF 6
