REMARK  Name = ZINC08747104
REMARK  11 active torsions:
REMARK  status: ('A' for Active; 'I' for Inactive)
REMARK    1  A    between atoms: C_1  and  C_2
REMARK    2  A    between atoms: C_2  and  C_4
REMARK    3  A    between atoms: C_2  and  N_60
REMARK    4  A    between atoms: C_7  and  S_16
REMARK    5  A    between atoms: N_8  and  C_9
REMARK    6  A    between atoms: S_16  and  C_17
REMARK    7  A    between atoms: C_17  and  C_19
REMARK    8  A    between atoms: C_17  and  C_25
REMARK    9  A    between atoms: N_27  and  C_28
REMARK   10  A    between atoms: C_35  and  N_60
REMARK   11  A    between atoms: C_36  and  N_60
REMARK                            x       y       z     vdW  Elec       q    Type
REMARK                         _______ _______ _______ _____ _____    ______ ____
ROOT
ATOM      1  S   UNL     1       4.011  -4.876   0.329  0.00  0.00    -0.068 S 
ENDROOT
BRANCH   1   5
ATOM      2  C   UNL     1       3.903  -8.779   0.304  0.00  0.00    +0.125 A 
ATOM      3  N   UNL     1       2.717  -8.459  -0.133  0.00  0.00    -0.135 NA
ATOM      4  N   UNL     1       2.592  -7.181  -0.179  0.00  0.00    -0.122 NA
ATOM      5  C   UNL     1       3.704  -6.608   0.222  0.00  0.00    +0.197 A 
ATOM      6  N   UNL     1       4.576  -7.611   0.546  0.00  0.00    -0.275 N 
BRANCH   6   7
ATOM      7  C   UNL     1       5.886  -7.471   1.028  0.00  0.00    +0.050 A 
ATOM      8  C   UNL     1       6.957  -7.917   0.266  0.00  0.00    +0.029 A 
ATOM      9  C   UNL     1       8.247  -7.774   0.739  0.00  0.00    +0.040 A 
ATOM     10  C   UNL     1       8.472  -7.197   1.977  0.00  0.00    +0.124 A 
ATOM     11  C   UNL     1       7.404  -6.756   2.741  0.00  0.00    +0.040 A 
ATOM     12  C   UNL     1       6.113  -6.893   2.269  0.00  0.00    +0.029 A 
ATOM     13  F   UNL     1       9.734  -7.063   2.440  0.00  0.00    -0.205 F 
ENDBRANCH   6   7
BRANCH   2  15
ATOM     14  C   UNL     1       3.810 -10.782   1.762  0.00  0.00    -0.005 C 
ATOM     15  C   UNL     1       4.435 -10.174   0.505  0.00  0.00    -0.003 C 
BRANCH  15  18
ATOM     16  C   UNL     1       4.697 -12.336  -0.554  0.00  0.00    -0.096 C 
ATOM     17  C   UNL     1       2.637 -11.094  -0.831  0.00  0.00    -0.096 C 
ATOM     18  N   UNL     1       4.104 -10.988  -0.683  0.00  0.00    +0.382 N 
ATOM     19  H   UNL     1       4.491 -10.532  -1.518  0.00  0.00    -0.082 HD
ENDBRANCH  15  18
ENDBRANCH   2  15
ENDBRANCH   1   5
BRANCH   1  20
ATOM     20  C   UNL     1       2.421  -4.239  -0.258  0.00  0.00    +0.170 C 
BRANCH  20  21
ATOM     21  C   UNL     1       2.226  -4.628  -1.701  0.00  0.00    -0.025 A 
ATOM     22  C   UNL     1       3.126  -4.202  -2.660  0.00  0.00    +0.005 A 
ATOM     23  C   UNL     1       2.949  -4.563  -3.982  0.00  0.00    +0.000 A 
ATOM     24  C   UNL     1       1.867  -5.342  -4.347  0.00  0.00    +0.000 A 
ATOM     25  C   UNL     1       0.964  -5.763  -3.389  0.00  0.00    +0.000 A 
ATOM     26  C   UNL     1       1.143  -5.406  -2.066  0.00  0.00    +0.005 A 
ENDBRANCH  20  21
BRANCH  20  27
ATOM     27  C   UNL     1       2.407  -2.737  -0.137  0.00  0.00    +0.235 C 
ATOM     28  O   UNL     1       3.450  -2.118  -0.144  0.00  0.00    -0.274 OA
ATOM     29  N   UNL     1       1.236  -2.081  -0.021  0.00  0.00    -0.284 N 
ATOM     30  H   UNL     1       0.406  -2.579   0.053  0.00  0.00    +0.155 HD
BRANCH  29  31
ATOM     31  C   UNL     1       1.215  -0.681  -0.005  0.00  0.00    +0.034 A 
ATOM     32  C   UNL     1       0.161   0.005  -0.594  0.00  0.00    +0.026 A 
ATOM     33  C   UNL     1       0.143   1.386  -0.577  0.00  0.00    +0.040 A 
ATOM     34  C   UNL     1       1.174   2.086   0.025  0.00  0.00    +0.124 A 
ATOM     35  C   UNL     1       2.226   1.404   0.613  0.00  0.00    +0.040 A 
ATOM     36  C   UNL     1       2.249   0.023   0.598  0.00  0.00    +0.026 A 
ATOM     37  F   UNL     1       1.154   3.437   0.040  0.00  0.00    -0.205 F 
ENDBRANCH  29  31
ENDBRANCH  20  27
ENDBRANCH   1  20
TORSDOF 8
