REMARK  Name = ZINC20464601
REMARK  13 active torsions:
REMARK  status: ('A' for Active; 'I' for Inactive)
REMARK    1  A    between atoms: C_1  and  C_2
REMARK    2  A    between atoms: C_7  and  N_10
REMARK    3  A    between atoms: N_10  and  C_11
REMARK    4  A    between atoms: C_14  and  C_37
REMARK    5  A    between atoms: C_14  and  C_38
REMARK    6  A    between atoms: C_17  and  C_24
REMARK    7  A    between atoms: C_20  and  C_22
REMARK    8  A    between atoms: C_20  and  O_23
REMARK    9  A    between atoms: C_24  and  C_25
REMARK   10  A    between atoms: C_25  and  C_26
REMARK   11  A    between atoms: N_28  and  C_29
REMARK   12  A    between atoms: C_29  and  C_30
REMARK   13  A    between atoms: C_30  and  N_31
REMARK                            x       y       z     vdW  Elec       q    Type
REMARK                         _______ _______ _______ _____ _____    ______ ____
ROOT
ATOM      1  C   UNL     1      -2.737   1.008   3.219  0.00  0.00    -0.064 C 
ATOM      2  C   UNL     1      -1.487   1.346   4.054  0.00  0.00    -0.009 C 
ATOM      3  C   UNL     1      -2.018   2.045   5.332  0.00  0.00    -0.033 C 
ATOM      4  C   UNL     1      -3.458   1.560   5.505  0.00  0.00    +0.002 C 
ATOM      5  C   UNL     1      -3.868   0.820   4.251  0.00  0.00    -0.038 C 
ATOM      6  C   UNL     1      -4.183  -0.647   4.411  0.00  0.00    +0.008 C 
ATOM      7  C   UNL     1      -4.954  -0.936   5.691  0.00  0.00    +0.035 C 
ATOM      8  C   UNL     1      -4.145  -0.480   6.901  0.00  0.00    +0.064 C 
ATOM      9  C   UNL     1      -3.834   1.000   6.825  0.00  0.00    +0.039 C 
ATOM     10  C   UNL     1      -2.852  -1.286   7.007  0.00  0.00    +0.041 C 
ATOM     11  C   UNL     1      -1.096   1.699   6.505  0.00  0.00    +0.011 C 
ATOM     12  C   UNL     1      -1.998   3.571   5.126  0.00  0.00    +0.011 C 
ENDROOT
BRANCH   1  13
ATOM     13  N   UNL     1      -3.062   2.088   2.277  0.00  0.00    +0.383 N 
ATOM     14  H   UNL     1      -2.758   3.047   2.721  0.00  0.00    -0.085 HD
ATOM     15  H   UNL     1      -4.149   2.091   2.106  0.00  0.00    -0.085 HD
BRANCH  13  22
ATOM     16  C   UNL     1      -1.589   4.126  -3.424  0.00  0.00    +0.109 C 
ATOM     17  C   UNL     1      -0.690   3.692  -2.296  0.00  0.00    +0.212 C 
ATOM     18  O   UNL     1       0.435   4.138  -2.211  0.00  0.00    -0.276 OA
ATOM     19  N   UNL     1      -1.135   2.807  -1.381  0.00  0.00    -0.302 N 
ATOM     20  C   UNL     1      -0.270   2.375  -0.275  0.00  0.00    +0.106 C 
ATOM     21  C   UNL     1      -1.005   2.604   1.049  0.00  0.00    +0.003 C 
ATOM     22  C   UNL     1      -2.365   1.898   0.998  0.00  0.00    -0.069 C 
ATOM     23  C   UNL     1      -3.208   2.489  -0.135  0.00  0.00    +0.003 C 
ATOM     24  C   UNL     1      -2.495   2.259  -1.470  0.00  0.00    +0.106 C 
ENDBRANCH  13  22
ENDBRANCH   1  13
BRANCH   8  25
ATOM     25  O   UNL     1      -4.922  -0.715   8.083  0.00  0.00    -0.389 OA
ATOM     26  H   UNL     1      -4.514  -0.452   9.071  0.00  0.00    +0.210 HD
ENDBRANCH   8  25
BRANCH   5  27
ATOM     27  C   UNL     1      -5.116   1.510   3.693  0.00  0.00    +0.015 C 
BRANCH  27  28
ATOM     28  C   UNL     1      -5.598   0.763   2.447  0.00  0.00    +0.096 C 
BRANCH  28  29
ATOM     29  C   UNL     1      -6.734   1.524   1.813  0.00  0.00    +0.213 C 
ATOM     30  O   UNL     1      -7.120   2.562   2.309  0.00  0.00    -0.276 OA
ATOM     31  N   UNL     1      -7.321   1.051   0.696  0.00  0.00    -0.314 N 
ATOM     32  H   UNL     1      -6.971   0.110   0.247  0.00  0.00    +0.149 HD
BRANCH  31  33
ATOM     33  C   UNL     1      -8.425   1.791   0.080  0.00  0.00    +0.119 C 
BRANCH  33  34
ATOM     34  C   UNL     1      -8.907   1.044  -1.165  0.00  0.00    +0.103 C 
BRANCH  34  35
ATOM     35  N   UNL     1     -10.014   1.786  -1.784  0.00  0.00    -0.297 NA
ATOM     36  C   UNL     1     -11.196   1.793  -0.909  0.00  0.00    +0.112 C 
ATOM     37  C   UNL     1     -12.303   2.625  -1.563  0.00  0.00    +0.175 C 
ATOM     38  O   UNL     1     -12.591   2.091  -2.858  0.00  0.00    -0.377 OA
ATOM     39  C   UNL     1     -11.462   2.069  -3.736  0.00  0.00    +0.175 C 
ATOM     40  C   UNL     1     -10.347   1.232  -3.104  0.00  0.00    +0.112 C 
ENDBRANCH  34  35
ENDBRANCH  33  34
ENDBRANCH  31  33
ENDBRANCH  28  29
ENDBRANCH  27  28
ENDBRANCH   5  27
TORSDOF 9
