REMARK  Name = ZINC65395492
REMARK  7 active torsions:
REMARK  status: ('A' for Active; 'I' for Inactive)
REMARK    1  A    between atoms: C_1  and  N_2
REMARK    2  A    between atoms: C_7  and  C_21
REMARK    3  A    between atoms: C_10  and  C_15
REMARK    4  A    between atoms: C_10  and  C_17
REMARK    5  A    between atoms: C_15  and  O_16
REMARK    6  A    between atoms: C_17  and  O_19
REMARK    7  A    between atoms: O_19  and  C_20
REMARK                            x       y       z     vdW  Elec       q    Type
REMARK                         _______ _______ _______ _____ _____    ______ ____
ROOT
ATOM      1  C   UNL     1       0.171   1.491  -0.095  0.00  0.00    +0.141 C 
ATOM      2  N   UNL     1       0.135   0.027  -0.077  0.00  0.00    -0.245 N 
ATOM      3  C   UNL     1       0.136  -0.711  -1.194  0.00  0.00    +0.227 C 
ATOM      4  O   UNL     1       0.167  -0.272  -2.323  0.00  0.00    -0.275 OA
ATOM      5  C   UNL     1       0.094  -2.177  -0.827  0.00  0.00    +0.113 C 
ATOM      6  C   UNL     1       1.437  -2.834  -1.207  0.00  0.00    +0.123 C 
ATOM      7  N   UNL     1       2.316  -2.602  -0.033  0.00  0.00    -0.290 NA
ATOM      8  C   UNL     1       1.424  -2.806   1.137  0.00  0.00    +0.153 C 
ATOM      9  C   UNL     1       0.068  -2.158   0.725  0.00  0.00    +0.122 C 
ATOM     10  C   UNL     1       0.104  -0.683   1.057  0.00  0.00    +0.228 C 
ATOM     11  O   UNL     1       0.101  -0.216   2.176  0.00  0.00    -0.275 OA
ATOM     12  H   UNL     1       3.084  -3.257  -0.021  0.00  0.00    +0.124 HD
ENDROOT
BRANCH   6  13
ATOM     13  C   UNL     1       2.013  -2.179  -2.436  0.00  0.00    +0.096 A 
ATOM     14  N   UNL     1       2.601  -1.012  -2.535  0.00  0.00    -0.251 NA
ATOM     15  C   UNL     1       3.058  -0.571  -3.691  0.00  0.00    +0.119 A 
ATOM     16  C   UNL     1       2.890  -1.380  -4.768  0.00  0.00    +0.066 A 
ATOM     17  S   UNL     1       2.063  -2.770  -4.010  0.00  0.00    -0.079 S 
ENDBRANCH   6  13
BRANCH   8  18
ATOM     18  C   UNL     1       1.988  -2.118   2.353  0.00  0.00    +0.330 C 
ATOM     19  O   UNL     1       1.811  -2.591   3.451  0.00  0.00    -0.249 OA
BRANCH  18  20
ATOM     20  O   UNL     1       2.688  -0.981   2.217  0.00  0.00    -0.467 OA
ATOM     21  C   UNL     1       3.193  -0.383   3.413  0.00  0.00    +0.280 C 
ENDBRANCH  18  20
ENDBRANCH   8  18
BRANCH   8  22
ATOM     22  C   UNL     1       1.233  -4.299   1.408  0.00  0.00    +0.190 C 
BRANCH  22  23
ATOM     23  O   UNL     1       2.496  -4.894   1.712  0.00  0.00    -0.393 OA
ATOM     24  H   UNL     1       2.450  -5.842   1.896  0.00  0.00    +0.209 HD
ENDBRANCH  22  23
ENDBRANCH   8  22
TORSDOF 5
