REMARK  Name = ZINC46556824
REMARK  11 active torsions:
REMARK  status: ('A' for Active; 'I' for Inactive)
REMARK    1  A    between atoms: C_1  and  C_2
REMARK    2  A    between atoms: C_2  and  C_3
REMARK    3  A    between atoms: C_8  and  N_9
REMARK    4  A    between atoms: C_12  and  C_17
REMARK    5  A    between atoms: C_17  and  N_18
REMARK    6  A    between atoms: N_18  and  C_19
REMARK    7  A    between atoms: N_18  and  C_20
REMARK    8  A    between atoms: C_20  and  C_21
REMARK    9  A    between atoms: N_23  and  C_24
REMARK   10  A    between atoms: C_25  and  C_31
REMARK   11  A    between atoms: C_29  and  C_30
REMARK                            x       y       z     vdW  Elec       q    Type
REMARK                         _______ _______ _______ _____ _____    ______ ____
ROOT
ATOM      1  N   UNL     1      -1.502  -1.249   6.413  0.00  0.00    -0.283 N 
ATOM      2  C   UNL     1      -2.709  -1.039   7.051  0.00  0.00    +0.224 A 
ATOM      3  N   UNL     1      -3.802  -0.778   6.338  0.00  0.00    -0.201 NA
ATOM      4  C   UNL     1      -4.957  -0.576   6.946  0.00  0.00    +0.120 A 
ATOM      5  N   UNL     1      -5.032  -0.632   8.265  0.00  0.00    -0.202 NA
ATOM      6  C   UNL     1      -3.943  -0.892   8.985  0.00  0.00    +0.217 A 
ATOM      7  N   UNL     1      -2.781  -1.101   8.376  0.00  0.00    -0.181 NA
ATOM      8  N   UNL     1      -4.022  -0.950  10.361  0.00  0.00    -0.327 N 
ATOM      9  H   UNL     1      -1.466  -1.295   5.445  0.00  0.00    +0.155 HD
ATOM     10  H   UNL     1      -4.872  -0.801  10.805  0.00  0.00    +0.145 HD
ATOM     11  H   UNL     1      -3.228  -1.140  10.885  0.00  0.00    +0.145 HD
ENDROOT
BRANCH   1  17
ATOM     12  C   UNL     1       0.725  -2.150   6.665  0.00  0.00    -0.026 A 
ATOM     13  C   UNL     1       1.882  -2.289   7.407  0.00  0.00    +0.005 A 
ATOM     14  C   UNL     1       1.987  -1.686   8.646  0.00  0.00    +0.000 A 
ATOM     15  C   UNL     1       0.936  -0.941   9.148  0.00  0.00    +0.002 A 
ATOM     16  C   UNL     1      -0.224  -0.797   8.412  0.00  0.00    +0.023 A 
ATOM     17  C   UNL     1      -0.331  -1.398   7.164  0.00  0.00    +0.037 A 
BRANCH  12  19
ATOM     18  C   UNL     1       1.002  -1.806   4.225  0.00  0.00    +0.009 C 
ATOM     19  C   UNL     1       0.611  -2.807   5.314  0.00  0.00    +0.033 C 
ENDBRANCH  12  19
ENDBRANCH   1  17
BRANCH   4  20
ATOM     20  C   UNL     1      -6.193  -0.281   6.135  0.00  0.00    -0.001 C 
BRANCH  20  21
ATOM     21  N   UNL     1      -6.870  -1.540   5.798  0.00  0.00    +0.388 N 
ATOM     22  C   UNL     1      -7.356  -2.179   7.029  0.00  0.00    -0.095 C 
ATOM     23  H   UNL     1      -6.221  -2.157   5.333  0.00  0.00    -0.081 HD
BRANCH  21  24
ATOM     24  C   UNL     1      -8.005  -1.263   4.909  0.00  0.00    +0.019 C 
BRANCH  24  25
ATOM     25  C   UNL     1      -8.625  -2.563   4.465  0.00  0.00    +0.201 C 
ATOM     26  O   UNL     1      -8.165  -3.617   4.851  0.00  0.00    -0.278 OA
ATOM     27  N   UNL     1      -9.689  -2.555   3.638  0.00  0.00    -0.287 N 
ATOM     28  H   UNL     1     -10.007  -1.718   3.264  0.00  0.00    +0.155 HD
BRANCH  27  29
ATOM     29  C   UNL     1     -10.337  -3.753   3.319  0.00  0.00    +0.039 A 
ATOM     30  C   UNL     1     -11.696  -3.897   3.566  0.00  0.00    -0.029 A 
ATOM     31  C   UNL     1     -12.332  -5.082   3.249  0.00  0.00    +0.005 A 
ATOM     32  C   UNL     1     -11.617  -6.124   2.688  0.00  0.00    +0.001 A 
ATOM     33  C   UNL     1     -10.264  -5.984   2.442  0.00  0.00    +0.005 A 
ATOM     34  C   UNL     1      -9.623  -4.800   2.750  0.00  0.00    -0.029 A 
ATOM     35  C   UNL     1      -8.149  -4.646   2.475  0.00  0.00    +0.045 C 
ATOM     36  C   UNL     1     -12.476  -2.762   4.178  0.00  0.00    +0.045 C 
ENDBRANCH  27  29
ENDBRANCH  24  25
ENDBRANCH  21  24
ENDBRANCH  20  21
ENDBRANCH   4  20
TORSDOF 7
