REMARK  Name = ZINC62041279
REMARK  11 active torsions:
REMARK  status: ('A' for Active; 'I' for Inactive)
REMARK    1  A    between atoms: C_1  and  C_2
REMARK    2  A    between atoms: C_2  and  C_3
REMARK    3  A    between atoms: C_3  and  C_5
REMARK    4  A    between atoms: C_3  and  C_6
REMARK    5  A    between atoms: C_11  and  N_12
REMARK    6  A    between atoms: C_13  and  C_15
REMARK    7  A    between atoms: C_15  and  C_16
REMARK    8  A    between atoms: C_19  and  C_21
REMARK    9  A    between atoms: C_25  and  C_27
REMARK   10  A    between atoms: C_27  and  N_28
REMARK   11  A    between atoms: N_31  and  C_34
REMARK                            x       y       z     vdW  Elec       q    Type
REMARK                         _______ _______ _______ _____ _____    ______ ____
ROOT
ATOM      1  C   UNL     1       6.892  -2.152   0.666  0.00  0.00    +0.058 A 
ATOM      2  C   UNL     1       7.759  -1.779  -0.312  0.00  0.00    +0.071 A 
ATOM      3  S   UNL     1       8.992  -3.067  -0.169  0.00  0.00    -0.075 S 
ATOM      4  C   UNL     1       8.220  -3.959   1.174  0.00  0.00    +0.109 A 
ATOM      5  N   UNL     1       7.139  -3.220   1.386  0.00  0.00    -0.243 NA
ENDROOT
BRANCH   4   6
ATOM      6  C   UNL     1       8.668  -5.186   1.866  0.00  0.00    +0.007 A 
ATOM      7  C   UNL     1       7.902  -5.728   2.900  0.00  0.00    +0.010 A 
ATOM      8  C   UNL     1       8.326  -6.873   3.541  0.00  0.00    +0.001 A 
ATOM      9  C   UNL     1       9.508  -7.485   3.162  0.00  0.00    +0.005 A 
ATOM     10  C   UNL     1      10.272  -6.953   2.139  0.00  0.00    -0.033 A 
ATOM     11  C   UNL     1       9.856  -5.811   1.485  0.00  0.00    +0.015 A 
BRANCH  10  12
ATOM     12  C   UNL     1      11.558  -7.625   1.733  0.00  0.00    +0.119 C 
BRANCH  12  13
ATOM     13  N   UNL     1      11.283  -8.615   0.683  0.00  0.00    -0.302 NA
ATOM     14  C   UNL     1      10.465  -9.720   1.202  0.00  0.00    +0.066 C 
ATOM     15  C   UNL     1      10.152 -10.697   0.065  0.00  0.00    -0.064 C 
ATOM     16  N   UNL     1      11.407 -11.214  -0.495  0.00  0.00    +0.379 N 
ATOM     17  C   UNL     1      12.202 -10.101  -1.032  0.00  0.00    -0.064 C 
ATOM     18  C   UNL     1      12.532  -9.120   0.096  0.00  0.00    +0.066 C 
ATOM     19  C   UNL     1      11.106 -12.165  -1.574  0.00  0.00    -0.096 C 
ATOM     20  H   UNL     1      11.931 -11.683   0.229  0.00  0.00    -0.082 HD
ENDBRANCH  12  13
ENDBRANCH  10  12
ENDBRANCH   4   6
BRANCH   1  21
ATOM     21  C   UNL     1       5.652  -1.336   0.926  0.00  0.00    +0.152 C 
BRANCH  21  23
ATOM     22  N   UNL     1       3.210  -1.711   1.047  0.00  0.00    -0.285 N 
ATOM     23  C   UNL     1       4.439  -2.227   0.847  0.00  0.00    +0.223 C 
ATOM     24  O   UNL     1       4.569  -3.408   0.603  0.00  0.00    -0.275 OA
ATOM     25  H   UNL     1       3.101  -0.757   1.186  0.00  0.00    +0.155 HD
BRANCH  22  31
ATOM     26  C   UNL     1       0.951  -2.186   1.759  0.00  0.00    -0.023 A 
ATOM     27  C   UNL     1      -0.153  -3.015   1.761  0.00  0.00    +0.006 A 
ATOM     28  C   UNL     1      -0.123  -4.212   1.068  0.00  0.00    +0.000 A 
ATOM     29  C   UNL     1       1.013  -4.582   0.371  0.00  0.00    +0.002 A 
ATOM     30  C   UNL     1       2.121  -3.757   0.365  0.00  0.00    +0.023 A 
ATOM     31  C   UNL     1       2.091  -2.552   1.056  0.00  0.00    +0.037 A 
BRANCH  26  32
ATOM     32  C   UNL     1       0.916  -0.882   2.514  0.00  0.00    +0.017 C 
ATOM     33  C   UNL     1       0.548  -1.148   3.975  0.00  0.00    +0.012 C 
BRANCH  32  35
ATOM     34  C   UNL     1      -0.075   1.411   2.571  0.00  0.00    +0.004 C 
ATOM     35  C   UNL     1      -0.127   0.044   1.885  0.00  0.00    +0.004 C 
ENDBRANCH  32  35
ENDBRANCH  26  32
ENDBRANCH  22  31
ENDBRANCH  21  23
ENDBRANCH   1  21
TORSDOF 8
