REMARK  Name = ZINC43093078
REMARK  7 active torsions:
REMARK  status: ('A' for Active; 'I' for Inactive)
REMARK    1  A    between atoms: C_1  and  C_2
REMARK    2  A    between atoms: C_2  and  C_4
REMARK    3  A    between atoms: C_2  and  N_23
REMARK    4  A    between atoms: C_4  and  C_6
REMARK    5  A    between atoms: C_4  and  N_13
REMARK    6  A    between atoms: C_17  and  C_19
REMARK    7  A    between atoms: N_21  and  C_22
REMARK                            x       y       z     vdW  Elec       q    Type
REMARK                         _______ _______ _______ _____ _____    ______ ____
ROOT
ATOM      1  C   UNL     1      -1.481  -0.183  -0.111  0.00  0.00    +0.074 C 
ENDROOT
BRANCH   1   2
ATOM      2  C   UNL     1      -1.515  -1.655   0.209  0.00  0.00    -0.018 A 
ATOM      3  C   UNL     1      -1.222  -2.091   1.488  0.00  0.00    +0.006 A 
ATOM      4  C   UNL     1      -1.254  -3.441   1.783  0.00  0.00    +0.000 A 
ATOM      5  C   UNL     1      -1.577  -4.356   0.798  0.00  0.00    +0.001 A 
ATOM      6  C   UNL     1      -1.870  -3.922  -0.481  0.00  0.00    +0.015 A 
ATOM      7  C   UNL     1      -1.844  -2.570  -0.774  0.00  0.00    +0.022 A 
ATOM      8 BR   UNL     1      -2.251  -1.974  -2.522  0.00  0.00    -0.050 Br
ENDBRANCH   1   2
BRANCH   1   9
ATOM      9  N   UNL     1      -1.527   0.591   1.136  0.00  0.00    -0.286 NA
ATOM     10  C   UNL     1      -0.175   0.709   1.739  0.00  0.00    +0.086 C 
ATOM     11  C   UNL     1      -0.312   1.933   2.680  0.00  0.00    +0.017 C 
ATOM     12  C   UNL     1      -1.230   2.884   1.879  0.00  0.00    +0.029 C 
ATOM     13  C   UNL     1      -1.978   1.977   0.884  0.00  0.00    +0.144 C 
BRANCH  13  14
ATOM     14  C   UNL     1      -3.465   2.082   1.111  0.00  0.00    +0.230 C 
ATOM     15  O   UNL     1      -4.063   1.169   1.640  0.00  0.00    -0.274 OA
ATOM     16  N   UNL     1      -4.128   3.190   0.727  0.00  0.00    -0.317 N 
ATOM     17  C   UNL     1      -5.573   3.292   0.948  0.00  0.00    +0.128 C 
ATOM     18  H   UNL     1      -3.650   3.920   0.304  0.00  0.00    +0.148 HD
ENDBRANCH  13  14
ENDBRANCH   1   9
BRANCH   1  20
ATOM     19  C   UNL     1       0.061   1.653  -0.814  0.00  0.00    -0.012 C 
ATOM     20  C   UNL     1      -0.192   0.145  -0.868  0.00  0.00    -0.056 C 
BRANCH  20  21
ATOM     21  N   UNL     1       0.934  -0.564  -0.246  0.00  0.00    +0.381 N 
ATOM     22  H   UNL     1       0.769  -0.653   0.746  0.00  0.00    -0.090 HD
ATOM     23  H   UNL     1       1.023  -1.481  -0.656  0.00  0.00    -0.090 HD
ATOM     24  H   UNL     1       1.785  -0.043  -0.399  0.00  0.00    -0.090 HD
ENDBRANCH  20  21
ENDBRANCH   1  20
TORSDOF 5
