REMARK  Name = ZINC03593268
REMARK  6 active torsions:
REMARK  status: ('A' for Active; 'I' for Inactive)
REMARK    1  A    between atoms: C_1  and  C_2
REMARK    2  A    between atoms: C_3  and  N_9
REMARK    3  A    between atoms: C_10  and  C_12
REMARK    4  A    between atoms: C_12  and  N_13
REMARK    5  A    between atoms: C_16  and  C_20
REMARK    6  A    between atoms: C_16  and  C_21
REMARK                            x       y       z     vdW  Elec       q    Type
REMARK                         _______ _______ _______ _____ _____    ______ ____
ROOT
ATOM      1  N   UNL     1       4.716  -4.166   0.251  0.00  0.00    -0.215 N 
ATOM      2  C   UNL     1       4.555  -4.833   1.411  0.00  0.00    +0.251 C 
ATOM      3  O   UNL     1       4.585  -4.372   2.531  0.00  0.00    -0.272 OA
ATOM      4  C   UNL     1       4.329  -6.281   1.022  0.00  0.00    +0.135 C 
ATOM      5  N   UNL     1       4.402  -6.260  -0.449  0.00  0.00    -0.281 N 
ATOM      6  C   UNL     1       4.630  -4.983  -0.805  0.00  0.00    +0.310 C 
ATOM      7  O   UNL     1       4.746  -4.613  -1.957  0.00  0.00    -0.252 OA
ATOM      8  C   UNL     1       2.951  -6.758   1.486  0.00  0.00    +0.047 C 
ATOM      9  H   UNL     1       4.275  -7.192  -1.020  0.00  0.00    +0.152 HD
ENDROOT
BRANCH   4  10
ATOM     10  C   UNL     1       5.415  -7.155   1.594  0.00  0.00    -0.014 A 
ATOM     11  C   UNL     1       5.860  -8.257   0.887  0.00  0.00    +0.006 A 
ATOM     12  C   UNL     1       6.856  -9.059   1.411  0.00  0.00    +0.001 A 
ATOM     13  C   UNL     1       7.408  -8.760   2.643  0.00  0.00    +0.015 A 
ATOM     14  C   UNL     1       6.962  -7.659   3.351  0.00  0.00    +0.018 A 
ATOM     15  C   UNL     1       5.969  -6.853   2.824  0.00  0.00    +0.021 A 
ATOM     16 BR   UNL     1       7.715  -7.250   5.037  0.00  0.00    -0.050 Br
ENDBRANCH   4  10
BRANCH   1  17
ATOM     17  C   UNL     1       4.960  -2.724   0.158  0.00  0.00    +0.214 C 
BRANCH  17  19
ATOM     18  N   UNL     1       3.622  -0.653  -0.035  0.00  0.00    -0.284 N 
ATOM     19  C   UNL     1       3.643  -1.997   0.060  0.00  0.00    +0.235 C 
ATOM     20  O   UNL     1       2.604  -2.622   0.067  0.00  0.00    -0.274 OA
ATOM     21  H   UNL     1       4.564  -0.092  -0.116  0.00  0.00    +0.155 HD
BRANCH  18  24
ATOM     22  C   UNL     1       3.510   1.898   1.221  0.00  0.00    +0.047 C 
ATOM     23  C   UNL     1       2.301   1.276   0.571  0.00  0.00    -0.011 A 
ATOM     24  C   UNL     1       2.400   0.029  -0.031  0.00  0.00    +0.038 A 
ATOM     25  C   UNL     1       1.283  -0.541  -0.629  0.00  0.00    +0.023 A 
ATOM     26  C   UNL     1       0.078   0.134  -0.623  0.00  0.00    +0.003 A 
ATOM     27  C   UNL     1      -0.018   1.375  -0.023  0.00  0.00    +0.020 A 
ATOM     28  C   UNL     1       1.092   1.947   0.574  0.00  0.00    +0.046 A 
ATOM     29 CL   UNL     1       0.967   3.506   1.327  0.00  0.00    -0.083 Cl
ENDBRANCH  18  24
ENDBRANCH  17  19
ENDBRANCH   1  17
TORSDOF 4
