REMARK  Name = ZINC13164800
REMARK  5 active torsions:
REMARK  status: ('A' for Active; 'I' for Inactive)
REMARK    1  A    between atoms: C_4  and  C_7
REMARK    2  A    between atoms: C_16  and  C_17
REMARK    3  A    between atoms: C_16  and  N_53
REMARK    4  A    between atoms: N_19  and  C_20
REMARK    5  A    between atoms: C_21  and  C_28
REMARK                            x       y       z     vdW  Elec       q    Type
REMARK                         _______ _______ _______ _____ _____    ______ ____
ROOT
ATOM      1  C   UNL     1      -1.357  -6.027   0.425  0.00  0.00    +0.020 C 
ENDROOT
BRANCH   1  10
ATOM      2  C   UNL     1      -1.105  -8.429   0.586  0.00  0.00    -0.005 C 
ATOM      3  C   UNL     1      -0.168  -9.584   0.243  0.00  0.00    -0.047 A 
ATOM      4  C   UNL     1      -0.242 -10.844   0.830  0.00  0.00    +0.010 A 
ATOM      5  C   UNL     1       0.631 -11.813   0.467  0.00  0.00    +0.045 A 
ATOM      6  S   UNL     1       1.628 -10.971  -0.754  0.00  0.00    -0.101 S 
ATOM      7  C   UNL     1       0.809  -9.403  -0.689  0.00  0.00    -0.010 A 
ATOM      8  C   UNL     1       1.089  -8.153  -1.457  0.00  0.00    +0.024 C 
ATOM      9  C   UNL     1      -0.119  -7.216  -1.284  0.00  0.00    -0.072 C 
ATOM     10  N   UNL     1      -0.457  -7.166   0.159  0.00  0.00    +0.393 N 
ATOM     11  H   UNL     1       0.408  -7.040   0.698  0.00  0.00    -0.080 HD
BRANCH   2  15
ATOM     12  C   UNL     1      -1.740  -8.290   4.808  0.00  0.00    +0.000 A 
ATOM     13  C   UNL     1      -2.697  -8.851   3.983  0.00  0.00    +0.000 A 
ATOM     14  C   UNL     1      -2.491  -8.896   2.617  0.00  0.00    +0.002 A 
ATOM     15  C   UNL     1      -1.329  -8.380   2.075  0.00  0.00    -0.057 A 
ATOM     16  C   UNL     1      -0.369  -7.824   2.901  0.00  0.00    +0.002 A 
ATOM     17  C   UNL     1      -0.577  -7.775   4.266  0.00  0.00    +0.000 A 
ENDBRANCH   2  15
ENDBRANCH   1  10
BRANCH   1  18
ATOM     18  C   UNL     1      -0.598  -4.748   0.183  0.00  0.00    +0.201 C 
ATOM     19  O   UNL     1       0.556  -4.788  -0.191  0.00  0.00    -0.278 OA
ATOM     20  N   UNL     1      -1.200  -3.558   0.382  0.00  0.00    -0.281 N 
ATOM     21  H   UNL     1      -2.122  -3.526   0.680  0.00  0.00    +0.155 HD
BRANCH  20  22
ATOM     22  C   UNL     1      -0.501  -2.381   0.159  0.00  0.00    +0.084 A 
ATOM     23  C   UNL     1      -0.943  -1.078   0.306  0.00  0.00    +0.068 A 
ATOM     24  C   UNL     1       0.002  -0.004   0.002  0.00  0.00    -0.023 A 
ATOM     25  C   UNL     1       1.222  -0.412  -0.392  0.00  0.00    -0.004 A 
ATOM     26  S   UNL     1       1.135  -2.186  -0.370  0.00  0.00    -0.077 S 
ATOM     27  C   UNL     1       2.137   0.747  -0.683  0.00  0.00    +0.043 C 
ATOM     28  C   UNL     1       1.461   1.957  -0.001  0.00  0.00    +0.010 C 
ATOM     29  C   UNL     1      -0.019   1.525   0.010  0.00  0.00    +0.037 C 
BRANCH  23  30
ATOM     30  C   UNL     1      -2.310  -0.784   0.749  0.00  0.00    +0.244 C 
ATOM     31  O   UNL     1      -3.202  -0.660  -0.070  0.00  0.00    -0.270 OA
ATOM     32  N   UNL     1      -2.578  -0.652   2.063  0.00  0.00    -0.325 N 
ATOM     33  H   UNL     1      -1.867  -0.751   2.716  0.00  0.00    +0.145 HD
ATOM     34  H   UNL     1      -3.482  -0.458   2.356  0.00  0.00    +0.145 HD
ENDBRANCH  23  30
ENDBRANCH  20  22
ENDBRANCH   1  18
TORSDOF 5
