REMARK  Name = ZINC35707502
REMARK  16 active torsions:
REMARK  status: ('A' for Active; 'I' for Inactive)
REMARK    1  A    between atoms: C_1  and  C_2
REMARK    2  A    between atoms: C_2  and  N_3
REMARK    3  A    between atoms: C_4  and  C_39
REMARK    4  A    between atoms: C_5  and  C_32
REMARK    5  A    between atoms: C_6  and  C_11
REMARK    6  A    between atoms: C_14  and  N_17
REMARK    7  A    between atoms: N_20  and  C_21
REMARK    8  A    between atoms: C_24  and  C_27
REMARK    9  A    between atoms: C_27  and  O_29
REMARK   10  A    between atoms: O_29  and  C_30
REMARK   11  A    between atoms: C_30  and  C_31
REMARK   12  A    between atoms: C_32  and  O_34
REMARK   13  A    between atoms: O_34  and  C_35
REMARK   14  A    between atoms: C_35  and  C_36
REMARK   15  A    between atoms: C_36  and  O_37
REMARK   16  A    between atoms: O_37  and  C_38
REMARK                            x       y       z     vdW  Elec       q    Type
REMARK                         _______ _______ _______ _____ _____    ______ ____
ROOT
ATOM      1  C   UNL     1       2.278  -2.825   3.665  0.00  0.00    -0.022 A 
ATOM      2  C   UNL     1       1.497  -3.769   3.024  0.00  0.00    +0.007 A 
ATOM      3  C   UNL     1       1.703  -5.114   3.263  0.00  0.00    +0.024 A 
ATOM      4  C   UNL     1       2.695  -5.517   4.148  0.00  0.00    +0.035 A 
ATOM      5  C   UNL     1       3.477  -4.566   4.790  0.00  0.00    +0.024 A 
ATOM      6  C   UNL     1       3.269  -3.223   4.543  0.00  0.00    +0.007 A 
ENDROOT
BRANCH   1  10
ATOM      7  N   UNL     1       0.619  -0.284   1.294  0.00  0.00    -0.259 N 
ATOM      8  C   UNL     1       1.956  -0.489   1.109  0.00  0.00    +0.024 C 
ATOM      9  C   UNL     1       2.724  -1.010   2.090  0.00  0.00    +0.078 C 
ATOM     10  C   UNL     1       2.051  -1.358   3.402  0.00  0.00    +0.143 C 
ATOM     11  N   UNL     1       0.605  -1.099   3.499  0.00  0.00    -0.288 N 
ATOM     12  C   UNL     1      -0.025  -0.569   2.432  0.00  0.00    +0.307 C 
ATOM     13  O   UNL     1      -1.219  -0.348   2.504  0.00  0.00    -0.252 OA
ATOM     14  C   UNL     1       2.586  -0.128  -0.212  0.00  0.00    +0.061 C 
ATOM     15  H   UNL     1       0.117  -1.301   4.314  0.00  0.00    +0.151 HD
BRANCH   7  17
ATOM     16  C   UNL     1      -0.577  -0.835  -0.768  0.00  0.00    +0.025 C 
ATOM     17  C   UNL     1      -0.153   0.284   0.186  0.00  0.00    +0.111 C 
ENDBRANCH   7  17
BRANCH   9  18
ATOM     18  C   UNL     1       4.109  -1.223   1.899  0.00  0.00    +0.339 C 
ATOM     19  O   UNL     1       4.629  -0.936   0.837  0.00  0.00    -0.245 OA
BRANCH  18  20
ATOM     20  O   UNL     1       4.855  -1.745   2.896  0.00  0.00    -0.459 OA
BRANCH  20  21
ATOM     21  C   UNL     1       6.247  -1.933   2.634  0.00  0.00    +0.260 C 
BRANCH  21  22
ATOM     22  C   UNL     1       6.923  -2.529   3.871  0.00  0.00    +0.200 C 
BRANCH  22  23
ATOM     23  O   UNL     1       6.403  -3.838   4.112  0.00  0.00    -0.380 OA
ATOM     24  C   UNL     1       6.971  -4.488   5.252  0.00  0.00    +0.194 C 
ENDBRANCH  22  23
ENDBRANCH  21  22
ENDBRANCH  20  21
ENDBRANCH  18  20
ENDBRANCH   9  18
ENDBRANCH   1  10
BRANCH   4  25
ATOM     25  N   UNL     1       2.905  -6.879   4.392  0.00  0.00    -0.269 N 
ATOM     26  C   UNL     1       2.744  -7.775   3.398  0.00  0.00    +0.308 C 
ATOM     27  O   UNL     1       2.337  -7.411   2.312  0.00  0.00    -0.252 OA
ATOM     28  N   UNL     1       3.033  -9.074   3.609  0.00  0.00    -0.269 N 
ATOM     29  H   UNL     1       3.167  -7.178   5.277  0.00  0.00    +0.156 HD
ATOM     30  H   UNL     1       3.280  -9.379   4.496  0.00  0.00    +0.156 HD
BRANCH  28  31
ATOM     31  C   UNL     1       2.978  -9.981   2.551  0.00  0.00    +0.035 A 
ATOM     32  C   UNL     1       2.553 -11.286   2.778  0.00  0.00    +0.024 A 
ATOM     33  C   UNL     1       2.496 -12.184   1.736  0.00  0.00    +0.017 A 
ATOM     34  C   UNL     1       2.867 -11.783   0.449  0.00  0.00    +0.059 A 
ATOM     35  C   UNL     1       3.293 -10.470   0.225  0.00  0.00    +0.017 A 
ATOM     36  C   UNL     1       3.342  -9.576   1.270  0.00  0.00    +0.024 A 
BRANCH  34  37
ATOM     37  C   UNL     1       2.808 -12.741  -0.670  0.00  0.00    +0.339 C 
ATOM     38  O   UNL     1       2.438 -13.882  -0.474  0.00  0.00    -0.245 OA
BRANCH  37  39
ATOM     39  O   UNL     1       3.166 -12.353  -1.910  0.00  0.00    -0.461 OA
BRANCH  39  40
ATOM     40  C   UNL     1       3.084 -13.334  -2.946  0.00  0.00    +0.229 C 
ATOM     41  C   UNL     1       3.526 -12.713  -4.272  0.00  0.00    +0.048 C 
ENDBRANCH  39  40
ENDBRANCH  37  39
ENDBRANCH  34  37
ENDBRANCH  28  31
ENDBRANCH   4  25
TORSDOF 12
