REMARK  Name = ZINC50362303
REMARK  11 active torsions:
REMARK  status: ('A' for Active; 'I' for Inactive)
REMARK    1  A    between atoms: C_1  and  C_2
REMARK    2  A    between atoms: C_2  and  C_4
REMARK    3  A    between atoms: C_2  and  N_8
REMARK    4  A    between atoms: C_4  and  C_5
REMARK    5  A    between atoms: C_5  and  C_6
REMARK    6  A    between atoms: C_5  and  C_7
REMARK    7  A    between atoms: N_8  and  C_9
REMARK    8  A    between atoms: N_8  and  C_10
REMARK    9  A    between atoms: C_10  and  C_12
REMARK   10  A    between atoms: C_10  and  C_14
REMARK   11  A    between atoms: C_12  and  N_13
REMARK                            x       y       z     vdW  Elec       q    Type
REMARK                         _______ _______ _______ _____ _____    ______ ____
ROOT
ATOM      1  C   UNL     1       0.563   0.199   2.882  0.00  0.00    +0.105 C 
ENDROOT
BRANCH   1   2
ATOM      2  C   UNL     1      -0.323   1.399   3.095  0.00  0.00    +0.123 A 
ATOM      3  C   UNL     1      -1.254   1.528   4.057  0.00  0.00    +0.062 A 
ATOM      4  C   UNL     1      -1.843   2.803   3.890  0.00  0.00    +0.070 A 
ATOM      5  C   UNL     1      -1.235   3.377   2.834  0.00  0.00    +0.184 A 
ATOM      6  O   UNL     1      -0.312   2.523   2.360  0.00  0.00    -0.450 OA
ATOM      7 BR   UNL     1      -1.612   5.095   2.140  0.00  0.00    -0.007 Br
ATOM      8 BR   UNL     1      -3.219   3.557   4.945  0.00  0.00    -0.046 Br
ENDBRANCH   1   2
BRANCH   1   9
ATOM      9  N   UNL     1       0.612  -0.126   1.450  0.00  0.00    -0.295 NA
ATOM     10  C   UNL     1       0.977  -1.534   1.242  0.00  0.00    +0.105 C 
BRANCH   9  12
ATOM     11  C   UNL     1      -0.528  -0.021  -0.714  0.00  0.00    +0.024 C 
ATOM     12  C   UNL     1      -0.664   0.191   0.795  0.00  0.00    +0.054 C 
BRANCH  12  13
ATOM     13  C   UNL     1      -1.759  -0.726   1.343  0.00  0.00    +0.021 C 
BRANCH  13  14
ATOM     14  C   UNL     1      -3.115  -0.293   0.780  0.00  0.00    -0.016 C 
ATOM     15  C   UNL     1      -4.186  -1.302   1.198  0.00  0.00    +0.007 C 
ATOM     16  C   UNL     1      -3.475   1.090   1.327  0.00  0.00    +0.007 C 
ENDBRANCH  13  14
ENDBRANCH  12  13
ENDBRANCH   9  12
ENDBRANCH   1   9
BRANCH   1  17
ATOM     17  C   UNL     1       1.975   0.511   3.383  0.00  0.00    -0.059 C 
BRANCH  17  18
ATOM     18  N   UNL     1       2.865  -0.615   3.072  0.00  0.00    +0.379 N 
ATOM     19  H   UNL     1       3.752  -0.481   3.535  0.00  0.00    -0.090 HD
ATOM     20  H   UNL     1       2.445  -1.475   3.392  0.00  0.00    -0.090 HD
ATOM     21  H   UNL     1       3.011  -0.663   2.074  0.00  0.00    -0.090 HD
ENDBRANCH  17  18
ENDBRANCH   1  17
TORSDOF 7
