REMARK  Name = ZINC39708416
REMARK  11 active torsions:
REMARK  status: ('A' for Active; 'I' for Inactive)
REMARK    1  A    between atoms: C_1  and  C_2
REMARK    2  A    between atoms: C_2  and  C_3
REMARK    3  A    between atoms: C_8  and  C_12
REMARK    4  A    between atoms: C_12  and  C_14
REMARK    5  A    between atoms: C_14  and  S_15
REMARK    6  A    between atoms: S_15  and  C_16
REMARK    7  A    between atoms: C_20  and  C_27
REMARK    8  A    between atoms: N_22  and  C_23
REMARK    9  A    between atoms: C_23  and  C_24
REMARK   10  A    between atoms: C_30  and  O_33
REMARK   11  A    between atoms: O_33  and  C_34
REMARK                            x       y       z     vdW  Elec       q    Type
REMARK                         _______ _______ _______ _____ _____    ______ ____
ROOT
ATOM      1  C   UNL     1      -7.801  -2.298  -6.309  0.00  0.00    +0.078 C 
ATOM      2  N   UNL     1      -6.760  -3.041  -7.067  0.00  0.00    -0.262 NA
ATOM      3  N   UNL     1      -6.715  -2.379  -8.373  0.00  0.00    -0.267 NA
ATOM      4  C   UNL     1      -7.235  -1.010  -8.178  0.00  0.00    +0.050 C 
ATOM      5  N   UNL     1      -7.591  -0.891  -6.744  0.00  0.00    +0.417 N 
ATOM      6  H   UNL     1      -5.866  -2.986  -6.602  0.00  0.00    +0.140 HD
ATOM      7  H   UNL     1      -5.774  -2.360  -8.737  0.00  0.00    +0.139 HD
ATOM      8  H   UNL     1      -6.833  -0.471  -6.226  0.00  0.00    -0.074 HD
ENDROOT
BRANCH   4   9
ATOM      9  C   UNL     1      -6.175   0.000  -8.536  0.00  0.00    -0.046 A 
ATOM     10  C   UNL     1      -6.126   1.213  -7.874  0.00  0.00    +0.007 A 
ATOM     11  C   UNL     1      -5.156   2.140  -8.200  0.00  0.00    +0.046 A 
ATOM     12  C   UNL     1      -4.231   1.855  -9.194  0.00  0.00    +0.120 A 
ATOM     13  C   UNL     1      -4.282   0.637  -9.857  0.00  0.00    +0.046 A 
ATOM     14  C   UNL     1      -5.251  -0.289  -9.523  0.00  0.00    +0.007 A 
BRANCH  12  15
ATOM     15  O   UNL     1      -3.276   2.766  -9.517  0.00  0.00    -0.495 OA
ATOM     16  C   UNL     1      -2.357   2.404 -10.550  0.00  0.00    +0.277 C 
ENDBRANCH  12  15
ENDBRANCH   4   9
BRANCH   1  17
ATOM     17  S   UNL     1      -7.537  -2.465  -4.522  0.00  0.00    -0.152 S 
BRANCH  17  18
ATOM     18  C   UNL     1      -5.841  -1.871  -4.272  0.00  0.00    +0.148 C 
BRANCH  18  19
ATOM     19  C   UNL     1      -5.490  -1.957  -2.809  0.00  0.00    +0.171 C 
ATOM     20  O   UNL     1      -6.304  -2.378  -2.013  0.00  0.00    -0.291 OA
BRANCH  19  26
ATOM     21  C   UNL     1      -1.640  -0.975   0.219  0.00  0.00    -0.024 A 
ATOM     22  C   UNL     1      -2.278  -1.379   1.338  0.00  0.00    +0.005 A 
ATOM     23  C   UNL     1      -3.595  -1.864   1.309  0.00  0.00    +0.001 A 
ATOM     24  C   UNL     1      -4.309  -1.958   0.165  0.00  0.00    +0.010 A 
ATOM     25  C   UNL     1      -3.736  -1.563  -1.067  0.00  0.00    +0.006 A 
ATOM     26  C   UNL     1      -4.214  -1.548  -2.365  0.00  0.00    +0.024 C 
ATOM     27  C   UNL     1      -3.083  -1.002  -3.208  0.00  0.00    +0.152 C 
ATOM     28  N   UNL     1      -1.980  -0.730  -2.281  0.00  0.00    -0.380 N 
ATOM     29  C   UNL     1      -2.348  -1.040  -1.071  0.00  0.00    +0.046 A 
ATOM     30  H   UNL     1      -1.114  -0.371  -2.530  0.00  0.00    +0.160 HD
BRANCH  21  32
ATOM     31  C   UNL     1      -0.243   1.066   0.394  0.00  0.00    +0.009 C 
ATOM     32  C   UNL     1      -0.226  -0.460   0.289  0.00  0.00    +0.034 C 
ENDBRANCH  21  32
ENDBRANCH  19  26
ENDBRANCH  18  19
ENDBRANCH  17  18
ENDBRANCH   1  17
BRANCH   5  33
ATOM     33  C   UNL     1      -8.824  -0.111  -6.578  0.00  0.00    +0.055 C 
BRANCH  33  34
ATOM     34  C   UNL     1      -9.914  -0.707  -7.432  0.00  0.00    +0.340 C 
ATOM     35  O   UNL     1      -9.714  -1.746  -8.037  0.00  0.00    -0.249 OA
ATOM     36  O   UNL     1     -10.995  -0.150  -7.517  0.00  0.00    -0.249 OA
ENDBRANCH  33  34
ENDBRANCH   5  33
TORSDOF 9
