REMARK  Name = ZINC31810690
REMARK  5 active torsions:
REMARK  status: ('A' for Active; 'I' for Inactive)
REMARK    1  A    between atoms: C_1  and  C_2
REMARK    2  A    between atoms: C_3  and  S_12
REMARK    3  A    between atoms: S_12  and  N_15
REMARK    4  A    between atoms: C_19  and  C_22
REMARK    5  A    between atoms: N_24  and  C_25
REMARK                            x       y       z     vdW  Elec       q    Type
REMARK                         _______ _______ _______ _____ _____    ______ ____
ROOT
ATOM      1  N   UNL     1       7.260   3.816   0.289  0.00  0.00    -0.176 NA
ATOM      2  C   UNL     1       7.475   4.772  -0.806  0.00  0.00    +0.109 C 
ATOM      3  C   UNL     1       6.283   5.732  -0.864  0.00  0.00    +0.018 C 
ATOM      4  C   UNL     1       4.988   4.924  -0.981  0.00  0.00    +0.015 C 
ATOM      5  C   UNL     1       4.829   4.031   0.252  0.00  0.00    +0.091 C 
ATOM      6  C   UNL     1       6.005   3.051   0.323  0.00  0.00    +0.122 C 
ENDROOT
BRANCH   5   7
ATOM      7  C   UNL     1       3.538   3.260   0.151  0.00  0.00    +0.222 C 
ATOM      8  O   UNL     1       3.556   2.047   0.138  0.00  0.00    -0.275 OA
ATOM      9  N   UNL     1       2.365   3.918   0.077  0.00  0.00    -0.283 N 
ATOM     10  H   UNL     1       2.353   5.015  -0.004  0.00  0.00    +0.155 HD
BRANCH   9  11
ATOM     11  C   UNL     1       1.159   3.205   0.101  0.00  0.00    +0.069 A 
ATOM     12  C   UNL     1       1.104   1.952   0.696  0.00  0.00    +0.027 A 
ATOM     13  C   UNL     1      -0.086   1.251   0.720  0.00  0.00    +0.017 A 
ATOM     14  C   UNL     1      -1.222   1.794   0.146  0.00  0.00    +0.021 A 
ATOM     15  C   UNL     1      -1.173   3.044  -0.444  0.00  0.00    +0.055 A 
ATOM     16  C   UNL     1       0.015   3.751  -0.470  0.00  0.00    +0.146 A 
ATOM     17  F   UNL     1       0.065   4.970  -1.051  0.00  0.00    -0.204 F 
ATOM     18 BR   UNL     1      -2.847   0.827   0.173  0.00  0.00    -0.050 Br
ENDBRANCH   9  11
ENDBRANCH   5   7
BRANCH   1  19
ATOM     19  S   UNL     1       8.409   3.604   1.462  0.00  0.00    +0.068 S 
ATOM     20  O   UNL     1       9.180   4.797   1.495  0.00  0.00    -0.153 OA
ATOM     21  O   UNL     1       7.732   3.103   2.607  0.00  0.00    -0.153 OA
BRANCH  19  24
ATOM     22  C   UNL     1      10.996   4.061  -0.001  0.00  0.00    +0.065 C 
ATOM     23  C   UNL     1      10.630   2.623   0.261  0.00  0.00    +0.049 A 
ATOM     24  C   UNL     1       9.486   2.322   0.912  0.00  0.00    +0.188 A 
ATOM     25  C   UNL     1       9.165   0.964   1.152  0.00  0.00    +0.281 A 
ATOM     26  O   UNL     1       8.142   0.669   1.741  0.00  0.00    -0.266 OA
ATOM     27  N   UNL     1      10.002   0.001   0.717  0.00  0.00    -0.273 N 
ATOM     28  H   UNL     1       9.760  -1.058   0.891  0.00  0.00    +0.173 HD
ATOM     29  C   UNL     1      11.136   0.328   0.070  0.00  0.00    +0.327 A 
ATOM     30  O   UNL     1      11.884  -0.551  -0.312  0.00  0.00    -0.247 OA
ATOM     31  N   UNL     1      11.455   1.615  -0.159  0.00  0.00    -0.310 N 
ATOM     32  H   UNL     1      12.388   1.854  -0.689  0.00  0.00    +0.170 HD
ENDBRANCH  19  24
ENDBRANCH   1  19
TORSDOF 4
