REMARK  Name = ZINC01341731
REMARK  8 active torsions:
REMARK  status: ('A' for Active; 'I' for Inactive)
REMARK    1  A    between atoms: C_1  and  C_2
REMARK    2  A    between atoms: C_2  and  C_4
REMARK    3  A    between atoms: C_9  and  N_10
REMARK    4  A    between atoms: N_10  and  C_11
REMARK    5  A    between atoms: C_11  and  C_13
REMARK    6  A    between atoms: C_11  and  C_20
REMARK    7  A    between atoms: N_22  and  C_23
REMARK    8  A    between atoms: C_29  and  C_31
REMARK                            x       y       z     vdW  Elec       q    Type
REMARK                         _______ _______ _______ _____ _____    ______ ____
ROOT
ATOM      1  N   UNL     1       3.204  -3.550   2.368  0.00  0.00    -0.248 N 
ATOM      2  C   UNL     1       2.849  -4.020   3.580  0.00  0.00    +0.287 C 
ATOM      3  O   UNL     1       3.138  -5.158   3.901  0.00  0.00    -0.266 OA
ENDROOT
BRANCH   1   9
ATOM      4  C   UNL     1       3.559  -1.155   2.234  0.00  0.00    +0.042 A 
ATOM      5  C   UNL     1       3.119   0.109   1.816  0.00  0.00    +0.062 A 
ATOM      6  C   UNL     1       1.926   0.234   1.138  0.00  0.00    +0.167 A 
ATOM      7  C   UNL     1       1.151  -0.899   0.864  0.00  0.00    +0.168 A 
ATOM      8  C   UNL     1       1.579  -2.152   1.274  0.00  0.00    +0.073 A 
ATOM      9  C   UNL     1       2.777  -2.291   1.957  0.00  0.00    +0.052 A 
ATOM     10  O   UNL     1       0.033  -0.506   0.191  0.00  0.00    -0.453 OA
ATOM     11  C   UNL     1      -0.075   0.912   0.414  0.00  0.00    +0.466 C 
ATOM     12  O   UNL     1       1.285   1.330   0.634  0.00  0.00    -0.453 OA
BRANCH   4  14
ATOM     13  C   UNL     1       5.723  -0.095   3.137  0.00  0.00    +0.091 C 
ATOM     14  C   UNL     1       4.827  -1.292   2.954  0.00  0.00    +0.162 C 
ATOM     15  O   UNL     1       5.155  -2.370   3.404  0.00  0.00    -0.292 OA
ENDBRANCH   4  14
ENDBRANCH   1   9
BRANCH   2  16
ATOM     16  C   UNL     1       2.115  -3.160   4.513  0.00  0.00    +0.190 A 
ATOM     17  C   UNL     1       1.696  -3.507   5.766  0.00  0.00    +0.054 A 
ATOM     18  C   UNL     1       1.040  -2.387   6.298  0.00  0.00    +0.042 A 
ATOM     19  C   UNL     1       1.086  -1.416   5.359  0.00  0.00    +0.196 A 
ATOM     20  O   UNL     1       1.739  -1.884   4.287  0.00  0.00    -0.458 OA
ENDBRANCH   2  16
BRANCH   1  21
ATOM     21  C   UNL     1       4.039  -4.366   1.482  0.00  0.00    +0.198 C 
BRANCH  21  22
ATOM     22  C   UNL     1       5.357  -4.649   2.156  0.00  0.00    -0.018 A 
ATOM     23  C   UNL     1       6.467  -3.882   1.851  0.00  0.00    +0.007 A 
ATOM     24  C   UNL     1       7.675  -4.138   2.472  0.00  0.00    +0.020 A 
ATOM     25  C   UNL     1       7.776  -5.168   3.391  0.00  0.00    +0.041 A 
ATOM     26  C   UNL     1       6.667  -5.937   3.691  0.00  0.00    +0.020 A 
ATOM     27  C   UNL     1       5.458  -5.677   3.073  0.00  0.00    +0.007 A 
ATOM     28 CL   UNL     1       9.295  -5.494   4.166  0.00  0.00    -0.084 Cl
ENDBRANCH  21  22
BRANCH  21  29
ATOM     29  C   UNL     1       3.337  -5.666   1.186  0.00  0.00    +0.239 C 
ATOM     30  O   UNL     1       2.247  -5.889   1.667  0.00  0.00    -0.273 OA
ATOM     31  N   UNL     1       3.921  -6.580   0.387  0.00  0.00    -0.311 N 
ATOM     32  H   UNL     1       4.794  -6.401   0.002  0.00  0.00    +0.149 HD
BRANCH  31  33
ATOM     33  C   UNL     1       3.239  -7.844   0.099  0.00  0.00    +0.073 C 
ATOM     34  C   UNL     1       3.533  -8.848   1.215  0.00  0.00    +0.022 C 
ATOM     35  C   UNL     1       2.820 -10.168   0.914  0.00  0.00    +0.002 C 
ATOM     36  C   UNL     1       3.322 -10.726  -0.419  0.00  0.00    +0.000 C 
ATOM     37  C   UNL     1       3.028  -9.722  -1.535  0.00  0.00    +0.002 C 
ATOM     38  C   UNL     1       3.741  -8.402  -1.234  0.00  0.00    +0.022 C 
ENDBRANCH  31  33
ENDBRANCH  21  29
ENDBRANCH   1  21
TORSDOF 7
