REMARK  Name = ZINC12886188
REMARK  8 active torsions:
REMARK  status: ('A' for Active; 'I' for Inactive)
REMARK    1  A    between atoms: C_1  and  C_2
REMARK    2  A    between atoms: C_16  and  C_18
REMARK    3  A    between atoms: C_18  and  C_19
REMARK    4  A    between atoms: C_19  and  C_20
REMARK    5  A    between atoms: N_25  and  C_28
REMARK    6  A    between atoms: C_28  and  C_29
REMARK    7  A    between atoms: C_32  and  O_35
REMARK    8  A    between atoms: O_35  and  C_36
REMARK                            x       y       z     vdW  Elec       q    Type
REMARK                         _______ _______ _______ _____ _____    ______ ____
ROOT
ATOM      1  C   UNL     1      -0.013   1.086   0.008  0.00  0.00    +0.045 C 
ATOM      2  C   UNL     1      -0.718   1.572   1.248  0.00  0.00    -0.029 A 
ATOM      3  C   UNL     1       0.002   1.804   2.402  0.00  0.00    +0.005 A 
ATOM      4  C   UNL     1      -0.637   2.251   3.544  0.00  0.00    +0.001 A 
ATOM      5  C   UNL     1      -2.004   2.466   3.530  0.00  0.00    +0.004 A 
ATOM      6  C   UNL     1      -2.726   2.234   2.381  0.00  0.00    -0.027 A 
ATOM      7  C   UNL     1      -2.093   1.790   1.224  0.00  0.00    +0.039 A 
ATOM      8  N   UNL     1      -3.026   1.620   0.198  0.00  0.00    -0.286 N 
ATOM      9  C   UNL     1      -4.275   1.937   0.591  0.00  0.00    +0.211 C 
ATOM     10  O   UNL     1      -5.281   1.890  -0.086  0.00  0.00    -0.277 OA
ATOM     11  C   UNL     1      -4.181   2.361   2.031  0.00  0.00    +0.050 C 
ATOM     12  C   UNL     1      -4.686   3.796   2.226  0.00  0.00    +0.088 C 
ATOM     13  C   UNL     1      -6.148   3.631   2.727  0.00  0.00    +0.073 C 
ATOM     14  C   UNL     1      -6.382   2.106   2.774  0.00  0.00    -0.057 C 
ATOM     15  C   UNL     1      -6.097   4.173   4.137  0.00  0.00    +0.224 C 
ATOM     16  O   UNL     1      -7.036   4.225   4.902  0.00  0.00    -0.275 OA
ATOM     17  N   UNL     1      -4.854   4.589   4.409  0.00  0.00    -0.237 N 
ATOM     18  C   UNL     1      -3.971   4.432   3.396  0.00  0.00    +0.225 C 
ATOM     19  O   UNL     1      -2.799   4.744   3.416  0.00  0.00    -0.275 OA
ATOM     20  H   UNL     1      -2.800   1.314  -0.694  0.00  0.00    +0.155 HD
ATOM     21  N   UNL     1      -5.033   1.544   2.877  0.00  0.00    +0.394 N 
ATOM     22  H   UNL     1      -4.707   1.580   3.850  0.00  0.00    -0.083 HD
ATOM     23  H   UNL     1      -5.029   0.570   2.551  0.00  0.00    -0.083 HD
ENDROOT
BRANCH  14  24
ATOM     24  C   UNL     1      -7.235   1.736   3.989  0.00  0.00    -0.006 C 
BRANCH  24  25
ATOM     25  C   UNL     1      -7.558   0.241   3.949  0.00  0.00    +0.094 C 
BRANCH  25  26
ATOM     26  C   UNL     1      -8.399  -0.123   5.145  0.00  0.00    +0.210 C 
ATOM     27  O   UNL     1      -8.709   0.729   5.951  0.00  0.00    -0.276 OA
ATOM     28  N   UNL     1      -8.806  -1.396   5.320  0.00  0.00    -0.329 N 
ATOM     29  H   UNL     1      -8.559  -2.077   4.676  0.00  0.00    +0.145 HD
ATOM     30  H   UNL     1      -9.347  -1.631   6.090  0.00  0.00    +0.145 HD
ENDBRANCH  25  26
ENDBRANCH  24  25
ENDBRANCH  14  24
BRANCH  17  31
ATOM     31  C   UNL     1      -4.479   5.173   5.698  0.00  0.00    +0.151 C 
BRANCH  31  32
ATOM     32  C   UNL     1      -4.026   4.081   6.632  0.00  0.00    -0.029 A 
ATOM     33  C   UNL     1      -4.942   3.450   7.453  0.00  0.00    +0.009 A 
ATOM     34  C   UNL     1      -4.530   2.444   8.305  0.00  0.00    +0.046 A 
ATOM     35  C   UNL     1      -3.194   2.075   8.346  0.00  0.00    +0.120 A 
ATOM     36  C   UNL     1      -2.275   2.714   7.526  0.00  0.00    +0.046 A 
ATOM     37  C   UNL     1      -2.693   3.715   6.671  0.00  0.00    +0.009 A 
BRANCH  35  38
ATOM     38  O   UNL     1      -2.785   1.090   9.188  0.00  0.00    -0.495 OA
ATOM     39  C   UNL     1      -3.786   0.476  10.003  0.00  0.00    +0.277 C 
ENDBRANCH  35  38
ENDBRANCH  31  32
ENDBRANCH  17  31
TORSDOF 6
