REMARK  Name = ZINC02138945
REMARK  8 active torsions:
REMARK  status: ('A' for Active; 'I' for Inactive)
REMARK    1  A    between atoms: C_1  and  C_2
REMARK    2  A    between atoms: C_4  and  C_36
REMARK    3  A    between atoms: C_13  and  C_15
REMARK    4  A    between atoms: C_15  and  C_16
REMARK    5  A    between atoms: N_21  and  C_24
REMARK    6  A    between atoms: C_24  and  C_25
REMARK    7  A    between atoms: C_30  and  O_31
REMARK    8  A    between atoms: O_31  and  C_32
REMARK                            x       y       z     vdW  Elec       q    Type
REMARK                         _______ _______ _______ _____ _____    ______ ____
ROOT
ATOM      1  C   UNL     1      -1.566  11.100   0.108  0.00  0.00    +0.044 C 
ATOM      2  C   UNL     1      -1.122   9.711  -0.275  0.00  0.00    -0.050 A 
ATOM      3  C   UNL     1      -0.180   9.535  -1.271  0.00  0.00    +0.008 A 
ATOM      4  C   UNL     1       0.229   8.266  -1.627  0.00  0.00    -0.029 A 
ATOM      5  C   UNL     1      -0.305   7.152  -0.983  0.00  0.00    +0.039 A 
ATOM      6  C   UNL     1      -1.252   7.342   0.019  0.00  0.00    -0.027 A 
ATOM      7  C   UNL     1      -1.657   8.610   0.370  0.00  0.00    +0.008 A 
ATOM      8  C   UNL     1      -1.619   5.968   0.502  0.00  0.00    +0.050 C 
ATOM      9  C   UNL     1      -1.327   5.802   1.999  0.00  0.00    +0.088 C 
ATOM     10  C   UNL     1      -2.698   6.036   2.692  0.00  0.00    +0.073 C 
ATOM     11  C   UNL     1      -3.695   6.320   1.549  0.00  0.00    -0.049 C 
ATOM     12  C   UNL     1      -3.013   4.691   3.307  0.00  0.00    +0.224 C 
ATOM     13  O   UNL     1      -4.010   4.428   3.943  0.00  0.00    -0.275 OA
ATOM     14  N   UNL     1      -2.018   3.837   3.039  0.00  0.00    -0.237 N 
ATOM     15  C   UNL     1      -1.018   4.356   2.318  0.00  0.00    +0.225 C 
ATOM     16  O   UNL     1      -0.020   3.761   1.973  0.00  0.00    -0.275 OA
ATOM     17  C   UNL     1      -0.790   5.026  -0.327  0.00  0.00    +0.211 C 
ATOM     18  O   UNL     1      -0.783   3.816  -0.259  0.00  0.00    -0.277 OA
ATOM     19  N   UNL     1      -0.057   5.789  -1.161  0.00  0.00    -0.286 N 
ATOM     20  C   UNL     1       1.257   8.085  -2.713  0.00  0.00    +0.045 C 
ATOM     21  H   UNL     1       0.570   5.434  -1.810  0.00  0.00    +0.155 HD
ATOM     22  N   UNL     1      -3.045   5.721   0.366  0.00  0.00    +0.394 N 
ATOM     23  H   UNL     1      -3.228   4.711   0.335  0.00  0.00    -0.083 HD
ATOM     24  H   UNL     1      -3.400   6.159  -0.492  0.00  0.00    -0.083 HD
ENDROOT
BRANCH  11  25
ATOM     25  C   UNL     1      -5.053   5.686   1.857  0.00  0.00    +0.080 C 
BRANCH  25  26
ATOM     26  C   UNL     1      -6.043   6.077   0.790  0.00  0.00    +0.209 C 
ATOM     27  O   UNL     1      -5.697   6.793  -0.126  0.00  0.00    -0.276 OA
ATOM     28  N   UNL     1      -7.314   5.632   0.854  0.00  0.00    -0.329 N 
ATOM     29  H   UNL     1      -7.590   5.059   1.587  0.00  0.00    +0.145 HD
ATOM     30  H   UNL     1      -7.951   5.884   0.168  0.00  0.00    +0.145 HD
ENDBRANCH  25  26
ENDBRANCH  11  25
BRANCH  14  31
ATOM     31  C   UNL     1      -2.022   2.447   3.502  0.00  0.00    +0.155 C 
BRANCH  31  32
ATOM     32  C   UNL     1      -2.684   1.574   2.467  0.00  0.00    +0.012 A 
ATOM     33  C   UNL     1      -3.999   1.183   2.632  0.00  0.00    +0.009 A 
ATOM     34  C   UNL     1      -4.608   0.382   1.683  0.00  0.00    +0.001 A 
ATOM     35  C   UNL     1      -3.902  -0.030   0.567  0.00  0.00    +0.004 A 
ATOM     36  C   UNL     1      -2.589   0.364   0.395  0.00  0.00    +0.046 A 
ATOM     37  C   UNL     1      -1.975   1.163   1.348  0.00  0.00    +0.125 A 
BRANCH  37  38
ATOM     38  O   UNL     1      -0.682   1.547   1.184  0.00  0.00    -0.495 OA
ATOM     39  C   UNL     1      -0.013   1.086   0.008  0.00  0.00    +0.277 C 
ENDBRANCH  37  38
ENDBRANCH  31  32
ENDBRANCH  14  31
TORSDOF 5
