REMARK  Name = ZINC09158555
REMARK  15 active torsions:
REMARK  status: ('A' for Active; 'I' for Inactive)
REMARK    1  A    between atoms: C_1  and  C_2
REMARK    2  A    between atoms: C_2  and  N_3
REMARK    3  A    between atoms: N_3  and  C_4
REMARK    4  A    between atoms: N_3  and  C_6
REMARK    5  A    between atoms: C_4  and  C_5
REMARK    6  A    between atoms: C_9  and  C_12
REMARK    7  A    between atoms: C_20  and  O_38
REMARK    8  A    between atoms: C_23  and  C_24
REMARK    9  A    between atoms: C_23  and  N_78
REMARK   10  A    between atoms: N_26  and  C_27
REMARK   11  A    between atoms: C_28  and  C_34
REMARK   12  A    between atoms: C_29  and  C_33
REMARK   13  A    between atoms: C_30  and  C_32
REMARK   14  A    between atoms: C_34  and  O_36
REMARK   15  A    between atoms: O_36  and  C_37
REMARK                            x       y       z     vdW  Elec       q    Type
REMARK                         _______ _______ _______ _____ _____    ______ ____
ROOT
ATOM      1  C   UNL     1       3.488   5.924   3.707  0.00  0.00    -0.031 C 
ATOM      2  C   UNL     1       4.680   5.983   2.752  0.00  0.00    +0.011 C 
ATOM      3  C   UNL     1       4.281   6.698   1.460  0.00  0.00    +0.005 C 
ATOM      4  C   UNL     1       5.483   6.741   0.514  0.00  0.00    +0.000 C 
ATOM      5  C   UNL     1       6.638   7.490   1.181  0.00  0.00    +0.003 C 
ATOM      6  C   UNL     1       7.029   6.781   2.480  0.00  0.00    +0.035 C 
ATOM      7  C   UNL     1       5.824   6.750   3.421  0.00  0.00    +0.066 C 
ATOM      8  C   UNL     1       6.199   6.048   4.728  0.00  0.00    +0.016 C 
ATOM      9  C   UNL     1       4.965   5.979   5.631  0.00  0.00    -0.075 C 
ATOM     10  N   UNL     1       3.901   5.218   4.941  0.00  0.00    +0.390 N 
ATOM     11  H   UNL     1       4.264   4.292   4.688  0.00  0.00    -0.080 HD
ENDROOT
BRANCH   1  15
ATOM     12  C   UNL     1       0.295   3.753   1.874  0.00  0.00    +0.030 A 
ATOM     13  C   UNL     1       1.350   3.071   2.467  0.00  0.00    +0.023 A 
ATOM     14  C   UNL     1       2.382   3.776   3.054  0.00  0.00    +0.004 A 
ATOM     15  C   UNL     1       2.362   5.159   3.060  0.00  0.00    -0.060 A 
ATOM     16  C   UNL     1       1.311   5.841   2.475  0.00  0.00    +0.004 A 
ATOM     17  C   UNL     1       0.278   5.142   1.882  0.00  0.00    +0.023 A 
BRANCH  12  18
ATOM     18  N   UNL     1      -0.749   3.044   1.275  0.00  0.00    -0.330 N 
BRANCH  18  20
ATOM     19  C   UNL     1      -0.013   1.086   0.008  0.00  0.00    +0.024 C 
ATOM     20  C   UNL     1      -0.729   1.579   1.267  0.00  0.00    +0.102 C 
ENDBRANCH  18  20
BRANCH  18  21
ATOM     21  C   UNL     1      -1.863   3.765   0.655  0.00  0.00    +0.102 C 
ATOM     22  C   UNL     1      -2.961   3.999   1.695  0.00  0.00    +0.024 C 
ENDBRANCH  18  21
ENDBRANCH  12  18
ENDBRANCH   1  15
BRANCH   7  23
ATOM     23  O   UNL     1       5.403   8.086   3.700  0.00  0.00    -0.388 OA
ATOM     24  H   UNL     1       6.079   8.631   4.126  0.00  0.00    +0.210 HD
ENDBRANCH   7  23
BRANCH  10  25
ATOM     25  C   UNL     1       2.739   5.050   5.838  0.00  0.00    +0.020 C 
BRANCH  25  26
ATOM     26  C   UNL     1       3.134   4.146   6.977  0.00  0.00    +0.201 C 
ATOM     27  O   UNL     1       4.264   3.709   7.041  0.00  0.00    -0.278 OA
ATOM     28  N   UNL     1       2.232   3.822   7.924  0.00  0.00    -0.281 N 
ATOM     29  H   UNL     1       1.329   4.171   7.873  0.00  0.00    +0.155 HD
BRANCH  28  30
ATOM     30  C   UNL     1       2.595   2.990   8.972  0.00  0.00    +0.086 A 
ATOM     31  C   UNL     1       1.816   2.552  10.037  0.00  0.00    +0.091 A 
ATOM     32  C   UNL     1       2.456   1.679  10.993  0.00  0.00    -0.025 A 
ATOM     33  C   UNL     1       3.748   1.375  10.778  0.00  0.00    -0.008 A 
ATOM     34  S   UNL     1       4.132   2.252   9.276  0.00  0.00    -0.078 S 
ATOM     35  C   UNL     1       4.654   0.502  11.608  0.00  0.00    +0.052 C 
ATOM     36  C   UNL     1       1.709   1.136  12.184  0.00  0.00    +0.045 C 
BRANCH  31  37
ATOM     37  C   UNL     1       0.415   2.952  10.180  0.00  0.00    +0.342 C 
ATOM     38  O   UNL     1      -0.464   2.279   9.677  0.00  0.00    -0.245 OA
BRANCH  37  39
ATOM     39  O   UNL     1       0.099   4.067  10.870  0.00  0.00    -0.464 OA
ATOM     40  C   UNL     1      -1.310   4.403  10.971  0.00  0.00    +0.280 C 
ENDBRANCH  37  39
ENDBRANCH  31  37
ENDBRANCH  28  30
ENDBRANCH  25  26
ENDBRANCH  10  25
TORSDOF 10
