REMARK  Name = ZINC65492676
REMARK  8 active torsions:
REMARK  status: ('A' for Active; 'I' for Inactive)
REMARK    1  A    between atoms: C_1  and  C_2
REMARK    2  A    between atoms: C_2  and  O_3
REMARK    3  A    between atoms: O_3  and  C_4
REMARK    4  A    between atoms: C_4  and  C_5
REMARK    5  A    between atoms: C_5  and  C_9
REMARK    6  A    between atoms: C_9  and  N_10
REMARK    7  A    between atoms: C_13  and  C_22
REMARK    8  A    between atoms: C_15  and  C_17
REMARK                            x       y       z     vdW  Elec       q    Type
REMARK                         _______ _______ _______ _____ _____    ______ ____
ROOT
ATOM      1  N   UNL     1      -2.405  -4.503  -1.016  0.00  0.00    -0.278 NA
ATOM      2  C   UNL     1      -1.010  -4.716  -0.554  0.00  0.00    +0.169 C 
ATOM      3  N   UNL     1      -0.512  -5.815  -1.421  0.00  0.00    -0.295 NA
ATOM      4  C   UNL     1      -1.670  -6.731  -1.558  0.00  0.00    +0.110 C 
ATOM      5  C   UNL     1      -2.917  -5.866  -1.292  0.00  0.00    +0.143 C 
ATOM      6  H   UNL     1      -0.221  -5.463  -2.320  0.00  0.00    +0.124 HD
ENDROOT
BRANCH   5   7
ATOM      7  C   UNL     1      -3.810  -5.852  -2.506  0.00  0.00    +0.104 A 
ATOM      8  N   UNL     1      -3.714  -5.010  -3.522  0.00  0.00    -0.349 N 
ATOM      9  C   UNL     1      -4.683  -5.310  -4.412  0.00  0.00    +0.101 A 
ATOM     10  C   UNL     1      -5.374  -6.356  -3.916  0.00  0.00    +0.101 A 
ATOM     11  N   UNL     1      -4.814  -6.683  -2.732  0.00  0.00    -0.349 N 
ATOM     12  H   UNL     1      -5.101  -7.402  -2.147  0.00  0.00    +0.166 HD
ATOM     13  H   UNL     1      -3.060  -4.300  -3.612  0.00  0.00    +0.166 HD
ENDBRANCH   5   7
BRANCH   4  14
ATOM     14  C   UNL     1      -1.719  -7.303  -2.952  0.00  0.00    -0.029 A 
ATOM     15  C   UNL     1      -1.394  -6.510  -4.036  0.00  0.00    +0.005 A 
ATOM     16  C   UNL     1      -1.438  -7.034  -5.314  0.00  0.00    +0.000 A 
ATOM     17  C   UNL     1      -1.808  -8.352  -5.508  0.00  0.00    +0.000 A 
ATOM     18  C   UNL     1      -2.132  -9.146  -4.423  0.00  0.00    +0.000 A 
ATOM     19  C   UNL     1      -2.083  -8.622  -3.145  0.00  0.00    +0.005 A 
ENDBRANCH   4  14
BRANCH   1  20
ATOM     20  C   UNL     1      -3.207  -3.839   0.020  0.00  0.00    +0.095 C 
BRANCH  20  21
ATOM     21  C   UNL     1      -2.944  -2.332  -0.018  0.00  0.00    +0.007 C 
ATOM     22  C   UNL     1      -3.648  -1.554   1.106  0.00  0.00    +0.010 C 
ATOM     23  C   UNL     1      -2.393  -1.805   1.959  0.00  0.00    +0.001 C 
ATOM     24  C   UNL     1      -1.615  -1.923   0.638  0.00  0.00    +0.010 C 
BRANCH  21  25
ATOM     25  C   UNL     1      -3.154  -1.727  -1.407  0.00  0.00    +0.168 C 
BRANCH  25  26
ATOM     26  O   UNL     1      -3.023  -0.306  -1.333  0.00  0.00    -0.379 OA
BRANCH  26  28
ATOM     27  C   UNL     1      -3.041   1.869  -2.386  0.00  0.00    +0.034 C 
ATOM     28  C   UNL     1      -3.202   0.360  -2.584  0.00  0.00    +0.156 C 
ENDBRANCH  26  28
ENDBRANCH  25  26
ENDBRANCH  21  25
ENDBRANCH  20  21
ENDBRANCH   1  20
TORSDOF 7
