REMARK  Name = ZINC55887700
REMARK  10 active torsions:
REMARK  status: ('A' for Active; 'I' for Inactive)
REMARK    1  A    between atoms: C_1  and  O_2
REMARK    2  A    between atoms: O_2  and  C_3
REMARK    3  A    between atoms: C_6  and  C_9
REMARK    4  A    between atoms: C_9  and  C_11
REMARK    5  A    between atoms: C_9  and  N_14
REMARK    6  A    between atoms: C_15  and  C_17
REMARK    7  A    between atoms: C_17  and  N_18
REMARK    8  A    between atoms: N_18  and  C_19
REMARK    9  A    between atoms: C_24  and  N_25
REMARK   10  A    between atoms: C_28  and  O_31
REMARK                            x       y       z     vdW  Elec       q    Type
REMARK                         _______ _______ _______ _____ _____    ______ ____
ROOT
ATOM      1  C   UNL     1      -5.978  -5.496   2.367  0.00  0.00    +0.197 C 
ENDROOT
BRANCH   1   3
ATOM      2  N   UNL     1      -4.930  -3.832   0.866  0.00  0.00    -0.307 N 
ATOM      3  C   UNL     1      -6.052  -4.310   1.440  0.00  0.00    +0.231 C 
ATOM      4  O   UNL     1      -7.122  -3.787   1.209  0.00  0.00    -0.274 OA
ATOM      5  H   UNL     1      -4.075  -4.251   1.051  0.00  0.00    +0.149 HD
BRANCH   2   6
ATOM      6  C   UNL     1      -5.002  -2.680  -0.035  0.00  0.00    +0.106 C 
BRANCH   6  10
ATOM      7  C   UNL     1      -1.230  -0.672  -0.086  0.00  0.00    +0.120 A 
ATOM      8  C   UNL     1      -2.408   0.061  -0.087  0.00  0.00    +0.046 A 
ATOM      9  C   UNL     1      -3.626  -0.590  -0.071  0.00  0.00    +0.009 A 
ATOM     10  C   UNL     1      -3.672  -1.972  -0.053  0.00  0.00    -0.027 A 
ATOM     11  C   UNL     1      -2.500  -2.705  -0.052  0.00  0.00    +0.009 A 
ATOM     12  C   UNL     1      -1.279  -2.059  -0.074  0.00  0.00    +0.046 A 
BRANCH   7  14
ATOM     13  C   UNL     1      -0.056   1.395  -0.114  0.00  0.00    +0.277 C 
ATOM     14  O   UNL     1      -0.030  -0.034  -0.102  0.00  0.00    -0.495 OA
ENDBRANCH   7  14
ENDBRANCH   6  10
BRANCH   6  15
ATOM     15  C   UNL     1      -5.345  -3.158  -1.448  0.00  0.00    +0.014 C 
ATOM     16  C   UNL     1      -6.513  -2.475  -2.161  0.00  0.00    +0.006 C 
ATOM     17  C   UNL     1      -6.666  -3.905  -1.640  0.00  0.00    +0.006 C 
ENDBRANCH   6  15
ENDBRANCH   2   6
ENDBRANCH   1   3
BRANCH   1  18
ATOM     18  N   UNL     1      -7.321  -5.819   2.855  0.00  0.00    -0.334 N 
ATOM     19  H   UNL     1      -8.082  -5.290   2.567  0.00  0.00    +0.147 HD
BRANCH  18  20
ATOM     20  C   UNL     1      -7.506  -6.888   3.735  0.00  0.00    +0.047 A 
ATOM     21  C   UNL     1      -6.439  -7.718   4.056  0.00  0.00    +0.025 A 
ATOM     22  C   UNL     1      -6.625  -8.774   4.926  0.00  0.00    +0.002 A 
ATOM     23  C   UNL     1      -7.872  -9.005   5.479  0.00  0.00    +0.002 A 
ATOM     24  C   UNL     1      -8.936  -8.181   5.162  0.00  0.00    +0.023 A 
ATOM     25  C   UNL     1      -8.755  -7.119   4.296  0.00  0.00    +0.035 A 
BRANCH  25  26
ATOM     26  N   UNL     1      -9.830  -6.282   3.981  0.00  0.00    -0.392 NA
ATOM     27  C   UNL     1     -10.933  -7.087   3.444  0.00  0.00    +0.087 C 
ATOM     28  C   UNL     1     -12.082  -6.168   3.022  0.00  0.00    +0.048 C 
ATOM     29  C   UNL     1     -12.569  -5.378   4.239  0.00  0.00    +0.117 C 
ATOM     30  C   UNL     1     -11.393  -4.600   4.836  0.00  0.00    +0.048 C 
ATOM     31  C   UNL     1     -10.270  -5.577   5.191  0.00  0.00    +0.087 C 
ATOM     32  H   UNL     1      -9.539  -5.609   3.288  0.00  0.00    +0.126 HD
BRANCH  29  33
ATOM     33  O   UNL     1     -13.592  -4.464   3.837  0.00  0.00    -0.392 OA
ATOM     34  H   UNL     1     -13.948  -3.929   4.560  0.00  0.00    +0.210 HD
ENDBRANCH  29  33
ENDBRANCH  25  26
ENDBRANCH  18  20
ENDBRANCH   1  18
TORSDOF 9
