REMARK  Name = ZINC16401588
REMARK  10 active torsions:
REMARK  status: ('A' for Active; 'I' for Inactive)
REMARK    1  A    between atoms: C_3  and  O_21
REMARK    2  A    between atoms: C_6  and  C_7
REMARK    3  A    between atoms: C_7  and  N_50
REMARK    4  A    between atoms: C_8  and  C_9
REMARK    5  A    between atoms: C_8  and  N_50
REMARK    6  A    between atoms: C_9  and  N_10
REMARK    7  A    between atoms: N_10  and  C_11
REMARK    8  A    between atoms: C_14  and  N_18
REMARK    9  A    between atoms: O_21  and  C_22
REMARK   10  A    between atoms: C_22  and  C_23
REMARK                            x       y       z     vdW  Elec       q    Type
REMARK                         _______ _______ _______ _____ _____    ______ ____
ROOT
ATOM      1  N   UNL     1      -4.934   1.540   0.034  0.00  0.00    +0.383 N 
ATOM      2  H   UNL     1      -4.977   0.953  -0.807  0.00  0.00    -0.085 HD
ATOM      3  H   UNL     1      -4.969   0.944   0.869  0.00  0.00    -0.085 HD
ENDROOT
BRANCH   1   4
ATOM      4  C   UNL     1      -6.086   2.461   0.044  0.00  0.00    -0.047 C 
BRANCH   4  10
ATOM      5  C   UNL     1      -7.953   1.300  -1.151  0.00  0.00    +0.005 A 
ATOM      6  C   UNL     1      -9.119   0.559  -1.152  0.00  0.00    +0.046 A 
ATOM      7  C   UNL     1      -9.701   0.182   0.049  0.00  0.00    +0.121 A 
ATOM      8  C   UNL     1      -9.107   0.546   1.249  0.00  0.00    +0.046 A 
ATOM      9  C   UNL     1      -7.939   1.283   1.245  0.00  0.00    +0.005 A 
ATOM     10  C   UNL     1      -7.361   1.657   0.046  0.00  0.00    -0.064 A 
BRANCH   7  11
ATOM     11  O   UNL     1     -10.850  -0.543   0.051  0.00  0.00    -0.487 OA
BRANCH  11  12
ATOM     12  C   UNL     1     -11.405  -0.882  -1.222  0.00  0.00    +0.264 C 
BRANCH  12  13
ATOM     13  C   UNL     1     -12.668  -1.681  -1.023  0.00  0.00    -0.010 A 
ATOM     14  C   UNL     1     -12.608  -3.060  -0.946  0.00  0.00    +0.008 A 
ATOM     15  C   UNL     1     -13.765  -3.792  -0.758  0.00  0.00    +0.020 A 
ATOM     16  C   UNL     1     -14.985  -3.145  -0.657  0.00  0.00    +0.041 A 
ATOM     17  C   UNL     1     -15.044  -1.766  -0.740  0.00  0.00    +0.020 A 
ATOM     18  C   UNL     1     -13.886  -1.034  -0.923  0.00  0.00    +0.008 A 
ATOM     19 CL   UNL     1     -16.439  -4.065  -0.427  0.00  0.00    -0.084 Cl
ENDBRANCH  12  13
ENDBRANCH  11  12
ENDBRANCH   7  11
ENDBRANCH   4  10
ENDBRANCH   1   4
BRANCH   1  20
ATOM     20  C   UNL     1      -3.670   2.300   0.032  0.00  0.00    -0.063 C 
BRANCH  20  21
ATOM     21  C   UNL     1      -2.495   1.321   0.021  0.00  0.00    +0.082 C 
BRANCH  21  22
ATOM     22  N   UNL     1      -1.236   2.068   0.019  0.00  0.00    -0.345 N 
ATOM     23  H   UNL     1      -1.247   3.038   0.025  0.00  0.00    +0.146 HD
BRANCH  22  24
ATOM     24  C   UNL     1      -0.017   1.385   0.010  0.00  0.00    +0.046 A 
ATOM     25  C   UNL     1       0.002  -0.004   0.002  0.00  0.00    +0.026 A 
ATOM     26  C   UNL     1       1.208  -0.677  -0.013  0.00  0.00    +0.034 A 
ATOM     27  C   UNL     1       2.397   0.030  -0.021  0.00  0.00    +0.128 A 
ATOM     28  C   UNL     1       2.382   1.413  -0.014  0.00  0.00    +0.054 A 
ATOM     29  C   UNL     1       1.179   2.093   0.002  0.00  0.00    +0.064 A 
ATOM     30 CL   UNL     1       1.162   3.829   0.011  0.00  0.00    -0.082 Cl
BRANCH  27  31
ATOM     31  N   UNL     1       3.687  -0.695  -0.038  0.00  0.00    +0.056 N 
ATOM     32  O   UNL     1       3.701  -1.913  -0.045  0.00  0.00    -0.126 OA
ATOM     33  O   UNL     1       4.734  -0.074  -0.045  0.00  0.00    -0.126 OA
ENDBRANCH  27  31
ENDBRANCH  22  24
ENDBRANCH  21  22
ENDBRANCH  20  21
ENDBRANCH   1  20
TORSDOF 10
