REMARK  Name = ZINC39681376
REMARK  7 active torsions:
REMARK  status: ('A' for Active; 'I' for Inactive)
REMARK    1  A    between atoms: C_5  and  C_7
REMARK    2  A    between atoms: C_10  and  C_12
REMARK    3  A    between atoms: C_16  and  C_25
REMARK    4  A    between atoms: N_27  and  C_28
REMARK    5  A    between atoms: C_28  and  C_29
REMARK    6  A    between atoms: C_29  and  O_30
REMARK    7  A    between atoms: O_30  and  C_31
REMARK                            x       y       z     vdW  Elec       q    Type
REMARK                         _______ _______ _______ _____ _____    ______ ____
ROOT
ATOM      1  C   UNL     1       2.164  -5.161  -1.331  0.00  0.00    +0.282 C 
ATOM      2  O   UNL     1       1.820  -6.301  -1.083  0.00  0.00    -0.267 OA
ATOM      3  N   UNL     1       2.984  -4.916  -2.372  0.00  0.00    -0.294 N 
ATOM      4  C   UNL     1       3.597  -3.624  -2.761  0.00  0.00    +0.121 C 
ATOM      5  C   UNL     1       5.029  -3.991  -3.213  0.00  0.00    +0.100 C 
ATOM      6  C   UNL     1       4.943  -5.471  -3.624  0.00  0.00    -0.004 C 
ATOM      7  C   UNL     1       3.482  -5.879  -3.383  0.00  0.00    +0.115 C 
ATOM      8  C   UNL     1       5.301  -5.631  -5.098  0.00  0.00    -0.010 C 
ATOM      9  C   UNL     1       5.265  -7.117  -5.468  0.00  0.00    -0.082 C 
ATOM     10  N   UNL     1       6.217  -7.856  -4.630  0.00  0.00    +0.379 N 
ATOM     11  C   UNL     1       5.812  -7.773  -3.221  0.00  0.00    -0.082 C 
ATOM     12  C   UNL     1       5.871  -6.315  -2.756  0.00  0.00    -0.010 C 
ATOM     13  H   UNL     1       6.236  -8.823  -4.917  0.00  0.00    -0.086 HD
ATOM     14  H   UNL     1       7.138  -7.457  -4.737  0.00  0.00    -0.086 HD
ENDROOT
BRANCH   1  18
ATOM     15  C   UNL     1       1.319  -2.019   0.245  0.00  0.00    +0.139 A 
ATOM     16  C   UNL     1       0.706  -2.873   1.117  0.00  0.00    +0.051 A 
ATOM     17  C   UNL     1       0.936  -4.171   0.650  0.00  0.00    +0.055 A 
ATOM     18  C   UNL     1       1.687  -4.054  -0.499  0.00  0.00    +0.190 A 
ATOM     19  O   UNL     1       1.902  -2.741  -0.726  0.00  0.00    -0.450 OA
BRANCH  15  24
ATOM     20  C   UNL     1       0.153   1.537   0.540  0.00  0.00    +0.001 A 
ATOM     21  C   UNL     1       1.359   2.218   0.545  0.00  0.00    +0.003 A 
ATOM     22  C   UNL     1       2.552   1.525   0.454  0.00  0.00    +0.039 A 
ATOM     23  C   UNL     1       2.548   0.146   0.356  0.00  0.00    +0.134 A 
ATOM     24  C   UNL     1       1.333  -0.546   0.350  0.00  0.00    +0.052 A 
ATOM     25  C   UNL     1       0.133   0.162   0.444  0.00  0.00    +0.014 A 
ATOM     26  F   UNL     1       3.714  -0.530   0.265  0.00  0.00    -0.205 F 
ENDBRANCH  15  24
ENDBRANCH   1  18
BRANCH   5  27
ATOM     27  C   UNL     1       5.999  -3.816  -2.074  0.00  0.00    +0.218 C 
ATOM     28  O   UNL     1       5.609  -3.889  -0.928  0.00  0.00    -0.275 OA
ATOM     29  N   UNL     1       7.301  -3.579  -2.328  0.00  0.00    -0.312 N 
ATOM     30  H   UNL     1       7.601  -3.449  -3.242  0.00  0.00    +0.149 HD
BRANCH  29  31
ATOM     31  C   UNL     1       8.264  -3.518  -1.226  0.00  0.00    +0.145 C 
BRANCH  31  32
ATOM     32  C   UNL     1       9.637  -3.116  -1.769  0.00  0.00    +0.248 C 
BRANCH  32  33
ATOM     33  O   UNL     1       9.576  -1.782  -2.279  0.00  0.00    -0.489 OA
BRANCH  33  34
ATOM     34  C   UNL     1      10.691  -1.304  -2.891  0.00  0.00    +0.139 A 
ATOM     35  C   UNL     1      11.782  -2.135  -3.095  0.00  0.00    +0.047 A 
ATOM     36  C   UNL     1      12.915  -1.647  -3.718  0.00  0.00    +0.004 A 
ATOM     37  C   UNL     1      12.961  -0.331  -4.139  0.00  0.00    +0.002 A 
ATOM     38  C   UNL     1      11.874   0.501  -3.938  0.00  0.00    +0.023 A 
ATOM     39  C   UNL     1      10.737   0.015  -3.320  0.00  0.00    +0.083 A 
ATOM     40 CL   UNL     1       9.370   1.057  -3.073  0.00  0.00    -0.080 Cl
ENDBRANCH  33  34
ENDBRANCH  32  33
ENDBRANCH  31  32
ENDBRANCH  29  31
ENDBRANCH   5  27
TORSDOF 7
