REMARK  Name = ZINC04045392
REMARK  7 active torsions:
REMARK  status: ('A' for Active; 'I' for Inactive)
REMARK    1  A    between atoms: C_1  and  O_2
REMARK    2  A    between atoms: O_2  and  C_3
REMARK    3  A    between atoms: C_6  and  O_28
REMARK    4  A    between atoms: C_7  and  C_9
REMARK    5  A    between atoms: N_10  and  N_11
REMARK    6  A    between atoms: C_12  and  C_14
REMARK    7  A    between atoms: O_28  and  C_29
REMARK                            x       y       z     vdW  Elec       q    Type
REMARK                         _______ _______ _______ _____ _____    ______ ____
ROOT
ATOM      1  N   UNL     1       6.483  -3.926   0.964  0.00  0.00    -0.208 N 
ATOM      2  C   UNL     1       6.587  -2.915   0.079  0.00  0.00    +0.219 C 
ATOM      3  O   UNL     1       7.247  -3.057  -0.929  0.00  0.00    -0.276 OA
ATOM      4  H   UNL     1       5.955  -3.812   1.770  0.00  0.00    +0.177 HD
ENDROOT
BRANCH   2   5
ATOM      5  C   UNL     1       5.883  -1.608   0.341  0.00  0.00    +0.023 C 
ATOM      6  C   UNL     1       4.402  -1.739  -0.041  0.00  0.00    +0.031 C 
ATOM      7  C   UNL     1       3.799  -0.357  -0.034  0.00  0.00    -0.022 A 
ATOM      8  C   UNL     1       2.393   0.024  -0.020  0.00  0.00    +0.003 A 
ATOM      9  C   UNL     1       1.188  -0.682  -0.013  0.00  0.00    +0.010 A 
ATOM     10  C   UNL     1       0.002  -0.004   0.002  0.00  0.00    +0.001 A 
ATOM     11  C   UNL     1      -0.017   1.384   0.010  0.00  0.00    +0.002 A 
ATOM     12  C   UNL     1       1.159   2.102   0.002  0.00  0.00    +0.026 A 
ATOM     13  C   UNL     1       2.378   1.433  -0.013  0.00  0.00    +0.047 A 
ATOM     14  N   UNL     1       3.690   1.856  -0.023  0.00  0.00    -0.359 N 
ATOM     15  H   UNL     1       3.976   2.783  -0.021  0.00  0.00    +0.166 HD
ATOM     16  C   UNL     1       4.526   0.778  -0.035  0.00  0.00    +0.003 A 
ATOM     17  C   UNL     1       6.037   0.786  -0.051  0.00  0.00    -0.027 C 
ATOM     18  N   UNL     1       6.514  -0.549  -0.474  0.00  0.00    +0.390 N 
ATOM     19  H   UNL     1       6.274  -0.696  -1.462  0.00  0.00    -0.084 HD
ATOM     20  H   UNL     1       7.533  -0.597  -0.359  0.00  0.00    -0.084 HD
ENDBRANCH   2   5
BRANCH   1  22
ATOM     21  C   UNL     1       7.037  -6.114   1.573  0.00  0.00    +0.142 C 
ATOM     22  N   UNL     1       7.137  -5.141   0.721  0.00  0.00    -0.188 NA
BRANCH  21  27
ATOM     23  C   UNL     1       8.268  -9.638   1.985  0.00  0.00    +0.121 A 
ATOM     24  C   UNL     1       9.022  -9.797   0.830  0.00  0.00    +0.049 A 
ATOM     25  C   UNL     1       9.131  -8.764  -0.081  0.00  0.00    +0.050 A 
ATOM     26  C   UNL     1       8.483  -7.562   0.151  0.00  0.00    +0.129 A 
ATOM     27  C   UNL     1       7.725  -7.392   1.317  0.00  0.00    +0.040 A 
ATOM     28  C   UNL     1       7.619  -8.442   2.232  0.00  0.00    +0.058 A 
BRANCH  23  30
ATOM     29  C   UNL     1       8.860 -11.869   2.557  0.00  0.00    +0.277 C 
ATOM     30  O   UNL     1       8.166 -10.662   2.875  0.00  0.00    -0.495 OA
ENDBRANCH  23  30
BRANCH  26  31
ATOM     31  O   UNL     1       8.587  -6.548  -0.748  0.00  0.00    -0.494 OA
ATOM     32  C   UNL     1       9.377  -6.792  -1.913  0.00  0.00    +0.277 C 
ENDBRANCH  26  31
ENDBRANCH  21  27
ENDBRANCH   1  22
TORSDOF 5
