REMARK  Name = ZINC35069936
REMARK  12 active torsions:
REMARK  status: ('A' for Active; 'I' for Inactive)
REMARK    1  A    between atoms: C_1  and  C_2
REMARK    2  A    between atoms: C_5  and  N_9
REMARK    3  A    between atoms: C_7  and  C_8
REMARK    4  A    between atoms: C_19  and  C_20
REMARK    5  A    between atoms: C_20  and  C_22
REMARK    6  A    between atoms: C_20  and  N_23
REMARK    7  A    between atoms: N_23  and  C_24
REMARK    8  A    between atoms: C_24  and  C_25
REMARK    9  A    between atoms: C_25  and  N_26
REMARK   10  A    between atoms: N_26  and  C_27
REMARK   11  A    between atoms: N_26  and  C_28
REMARK   12  A    between atoms: N_31  and  C_32
REMARK                            x       y       z     vdW  Elec       q    Type
REMARK                         _______ _______ _______ _____ _____    ______ ____
ROOT
ATOM      1  C   UNL     1       0.126  -4.129  -2.252  0.00  0.00    +0.141 C 
ATOM      2  C   UNL     1      -0.840  -2.979  -1.961  0.00  0.00    +0.036 C 
ENDROOT
BRANCH   1  13
ATOM      3  N   UNL     1       1.291  -5.408  -0.499  0.00  0.00    -0.263 N 
ATOM      4  C   UNL     1       1.329  -6.271   0.543  0.00  0.00    +0.266 A 
ATOM      5  O   UNL     1       2.378  -6.550   1.095  0.00  0.00    -0.267 OA
ATOM      6  C   UNL     1       0.055  -6.858   0.983  0.00  0.00    +0.065 A 
ATOM      7  C   UNL     1      -0.014  -7.756   2.046  0.00  0.00    +0.015 A 
ATOM      8  C   UNL     1      -1.235  -8.276   2.417  0.00  0.00    +0.001 A 
ATOM      9  C   UNL     1      -2.392  -7.912   1.741  0.00  0.00    +0.002 A 
ATOM     10  C   UNL     1      -2.345  -7.026   0.688  0.00  0.00    +0.028 A 
ATOM     11  C   UNL     1      -1.120  -6.485   0.293  0.00  0.00    +0.078 A 
ATOM     12  N   UNL     1      -1.028  -5.608  -0.738  0.00  0.00    -0.231 NA
ATOM     13  C   UNL     1       0.110  -5.101  -1.101  0.00  0.00    +0.138 A 
BRANCH   3  18
ATOM     14  C   UNL     1       6.097  -3.029  -2.355  0.00  0.00    +0.044 C 
ATOM     15  C   UNL     1       4.821  -3.661  -1.862  0.00  0.00    -0.047 A 
ATOM     16  C   UNL     1       4.032  -2.995  -0.941  0.00  0.00    +0.005 A 
ATOM     17  C   UNL     1       2.862  -3.571  -0.487  0.00  0.00    +0.026 A 
ATOM     18  C   UNL     1       2.477  -4.821  -0.957  0.00  0.00    +0.051 A 
ATOM     19  C   UNL     1       3.271  -5.486  -1.882  0.00  0.00    +0.030 A 
ATOM     20  C   UNL     1       4.438  -4.902  -2.336  0.00  0.00    -0.046 A 
ATOM     21  C   UNL     1       5.296  -5.621  -3.344  0.00  0.00    +0.044 C 
ENDBRANCH   3  18
ENDBRANCH   1  13
BRANCH   1  22
ATOM     22  N   UNL     1      -0.289  -4.816  -3.478  0.00  0.00    -0.277 N 
ATOM     23  C   UNL     1       0.548  -4.878  -4.532  0.00  0.00    +0.307 C 
ATOM     24  O   UNL     1       1.648  -4.362  -4.466  0.00  0.00    -0.252 OA
ATOM     25  N   UNL     1       0.167  -5.510  -5.660  0.00  0.00    -0.269 N 
ATOM     26  H   UNL     1      -0.675  -5.990  -5.685  0.00  0.00    +0.156 HD
BRANCH  25  27
ATOM     27  C   UNL     1       0.987  -5.474  -6.793  0.00  0.00    +0.036 A 
ATOM     28  C   UNL     1       1.021  -6.558  -7.662  0.00  0.00    +0.023 A 
ATOM     29  C   UNL     1       1.830  -6.520  -8.780  0.00  0.00    +0.003 A 
ATOM     30  C   UNL     1       2.606  -5.404  -9.037  0.00  0.00    +0.020 A 
ATOM     31  C   UNL     1       2.575  -4.323  -8.174  0.00  0.00    +0.043 A 
ATOM     32  C   UNL     1       1.762  -4.353  -7.056  0.00  0.00    +0.043 A 
ATOM     33 CL   UNL     1       3.551  -2.925  -8.499  0.00  0.00    -0.083 Cl
ENDBRANCH  25  27
BRANCH  22  34
ATOM     34  C   UNL     1      -1.613  -5.438  -3.557  0.00  0.00    +0.091 C 
BRANCH  34  35
ATOM     35  C   UNL     1      -2.623  -4.420  -4.091  0.00  0.00    -0.060 C 
BRANCH  35  36
ATOM     36  N   UNL     1      -3.951  -5.043  -4.170  0.00  0.00    +0.377 N 
ATOM     37  C   UNL     1      -4.942  -4.034  -4.569  0.00  0.00    -0.097 C 
ATOM     38  C   UNL     1      -3.926  -6.124  -5.165  0.00  0.00    -0.097 C 
ATOM     39  H   UNL     1      -4.199  -5.421  -3.269  0.00  0.00    -0.083 HD
ENDBRANCH  35  36
ENDBRANCH  34  35
ENDBRANCH  22  34
ENDBRANCH   1  22
TORSDOF 7
