REMARK  Name = ZINC15708670
REMARK  11 active torsions:
REMARK  status: ('A' for Active; 'I' for Inactive)
REMARK    1  A    between atoms: C_1  and  C_2
REMARK    2  A    between atoms: C_2  and  N_3
REMARK    3  A    between atoms: N_3  and  C_4
REMARK    4  A    between atoms: C_4  and  C_5
REMARK    5  A    between atoms: C_6  and  C_8
REMARK    6  A    between atoms: C_8  and  C_9
REMARK    7  A    between atoms: C_9  and  C_10
REMARK    8  A    between atoms: C_19  and  N_22
REMARK    9  A    between atoms: N_22  and  C_23
REMARK   10  A    between atoms: C_23  and  N_25
REMARK   11  A    between atoms: N_25  and  C_26
REMARK                            x       y       z     vdW  Elec       q    Type
REMARK                         _______ _______ _______ _____ _____    ______ ____
ROOT
ATOM      1  C   UNL     1      -5.584   2.026  -0.030  0.00  0.00    -0.050 C 
ATOM      2  C   UNL     1      -7.070   2.364   0.155  0.00  0.00    +0.089 C 
ATOM      3  N   UNL     1      -7.888   1.865  -0.942  0.00  0.00    -0.318 N 
ATOM      4  C   UNL     1      -7.452   1.023  -1.900  0.00  0.00    +0.200 C 
ATOM      5  O   UNL     1      -8.225   0.570  -2.717  0.00  0.00    -0.278 OA
ATOM      6  C   UNL     1      -6.005   0.656  -1.941  0.00  0.00    +0.021 C 
ATOM      7  C   UNL     1      -4.188   0.032  -0.640  0.00  0.00    -0.055 C 
ATOM      8  C   UNL     1      -4.443  -1.168  -1.594  0.00  0.00    +0.054 C 
ATOM      9  C   UNL     1      -5.692  -0.761  -2.421  0.00  0.00    +0.014 C 
ATOM     10  H   UNL     1      -8.811   2.159  -0.987  0.00  0.00    +0.149 HD
ATOM     11  N   UNL     1      -5.538   0.626  -0.588  0.00  0.00    +0.391 N 
ATOM     12  H   UNL     1      -6.145   0.028  -0.016  0.00  0.00    -0.080 HD
ENDROOT
BRANCH   8  13
ATOM     13  N   UNL     1      -4.715  -2.383  -0.823  0.00  0.00    -0.325 N 
ATOM     14  H   UNL     1      -5.626  -2.610  -0.580  0.00  0.00    +0.148 HD
BRANCH  13  15
ATOM     15  C   UNL     1      -3.699  -3.187  -0.452  0.00  0.00    +0.135 C 
ATOM     16  S   UNL     1      -2.090  -2.787  -0.881  0.00  0.00    -0.019 S 
BRANCH  15  17
ATOM     17  N   UNL     1      -3.949  -4.305   0.258  0.00  0.00    -0.297 N 
ATOM     18  H   UNL     1      -4.864  -4.576   0.429  0.00  0.00    +0.154 HD
BRANCH  17  19
ATOM     19  C   UNL     1      -2.888  -5.076   0.747  0.00  0.00    +0.033 A 
ATOM     20  C   UNL     1      -2.953  -6.462   0.694  0.00  0.00    +0.025 A 
ATOM     21  C   UNL     1      -1.903  -7.220   1.173  0.00  0.00    +0.022 A 
ATOM     22  C   UNL     1      -0.790  -6.599   1.714  0.00  0.00    +0.041 A 
ATOM     23  C   UNL     1      -0.725  -5.218   1.772  0.00  0.00    +0.022 A 
ATOM     24  C   UNL     1      -1.770  -4.456   1.290  0.00  0.00    +0.025 A 
ATOM     25 CL   UNL     1       0.525  -7.555   2.322  0.00  0.00    -0.084 Cl
ENDBRANCH  17  19
ENDBRANCH  15  17
ENDBRANCH  13  15
ENDBRANCH   8  13
BRANCH   1  26
ATOM     26  C   UNL     1      -4.857   2.121   1.313  0.00  0.00    -0.005 C 
BRANCH  26  27
ATOM     27  C   UNL     1      -4.865   3.572   1.796  0.00  0.00    +0.094 C 
BRANCH  27  29
ATOM     28  N   UNL     1      -4.141   4.838   3.795  0.00  0.00    -0.302 N 
ATOM     29  C   UNL     1      -4.243   3.650   3.167  0.00  0.00    +0.215 C 
ATOM     30  O   UNL     1      -3.834   2.642   3.704  0.00  0.00    -0.276 OA
BRANCH  28  32
ATOM     31  C   UNL     1      -3.511   6.684   2.319  0.00  0.00    +0.024 C 
ATOM     32  C   UNL     1      -4.635   6.054   3.145  0.00  0.00    +0.104 C 
ENDBRANCH  28  32
BRANCH  28  33
ATOM     33  C   UNL     1      -3.537   4.912   5.127  0.00  0.00    +0.104 C 
ATOM     34  C   UNL     1      -4.623   4.733   6.190  0.00  0.00    +0.024 C 
ENDBRANCH  28  33
ENDBRANCH  27  29
ENDBRANCH  26  27
ENDBRANCH   1  26
TORSDOF 9
