REMARK  Name = ZINC01984196
REMARK  13 active torsions:
REMARK  status: ('A' for Active; 'I' for Inactive)
REMARK    1  A    between atoms: C_1  and  C_2
REMARK    2  A    between atoms: C_2  and  O_3
REMARK    3  A    between atoms: O_3  and  C_4
REMARK    4  A    between atoms: C_4  and  C_6
REMARK    5  A    between atoms: C_7  and  C_27
REMARK    6  A    between atoms: C_8  and  C_26
REMARK    7  A    between atoms: C_10  and  N_11
REMARK    8  A    between atoms: C_12  and  C_14
REMARK    9  A    between atoms: C_14  and  O_15
REMARK   10  A    between atoms: O_15  and  C_16
REMARK   11  A    between atoms: C_19  and  C_23
REMARK   12  A    between atoms: C_23  and  C_24
REMARK   13  A    between atoms: C_23  and  C_25
REMARK                            x       y       z     vdW  Elec       q    Type
REMARK                         _______ _______ _______ _____ _____    ______ ____
ROOT
ATOM      1  N   UNL     1       0.002  -0.004   0.002  0.00  0.00    -0.277 N 
ATOM      2  C   UNL     1      -1.156  -0.694   0.009  0.00  0.00    +0.255 C 
ATOM      3  O   UNL     1      -2.214  -0.102   0.023  0.00  0.00    -0.272 OA
ATOM      4  H   UNL     1       0.962  -0.541  -0.010  0.00  0.00    +0.155 HD
ENDROOT
BRANCH   1   9
ATOM      5  C   UNL     1       1.061   2.261   0.004  0.00  0.00    +0.091 A 
ATOM      6  C   UNL     1       0.749   3.670   0.015  0.00  0.00    -0.025 A 
ATOM      7  C   UNL     1      -0.552   4.011   0.029  0.00  0.00    -0.008 A 
ATOM      8  S   UNL     1      -1.388   2.439   0.021  0.00  0.00    -0.078 S 
ATOM      9  C   UNL     1      -0.017   1.382   0.010  0.00  0.00    +0.086 A 
ATOM     10  C   UNL     1      -1.157   5.391   0.041  0.00  0.00    +0.052 C 
ATOM     11  C   UNL     1       1.835   4.715   0.010  0.00  0.00    +0.045 C 
BRANCH   5  12
ATOM     12  C   UNL     1       2.445   1.780  -0.011  0.00  0.00    +0.342 C 
ATOM     13  O   UNL     1       3.009   1.586  -1.071  0.00  0.00    -0.245 OA
BRANCH  12  14
ATOM     14  O   UNL     1       3.092   1.552   1.150  0.00  0.00    -0.461 OA
BRANCH  14  16
ATOM     15  C   UNL     1       5.027   0.877   2.466  0.00  0.00    +0.048 C 
ATOM     16  C   UNL     1       4.461   1.077   1.059  0.00  0.00    +0.229 C 
ENDBRANCH  14  16
ENDBRANCH  12  14
ENDBRANCH   5  12
ENDBRANCH   1   9
BRANCH   2  17
ATOM     17  C   UNL     1      -1.135  -2.201   0.001  0.00  0.00    +0.325 C 
BRANCH  17  18
ATOM     18  O   UNL     1      -2.476  -2.695   0.011  0.00  0.00    -0.482 OA
BRANCH  18  19
ATOM     19  C   UNL     1      -2.636  -4.045   0.005  0.00  0.00    +0.135 A 
ATOM     20  C   UNL     1      -1.525  -4.876  -0.010  0.00  0.00    +0.047 A 
ATOM     21  C   UNL     1      -1.690  -6.248  -0.015  0.00  0.00    +0.007 A 
ATOM     22  C   UNL     1      -2.961  -6.793  -0.005  0.00  0.00    -0.044 A 
ATOM     23  C   UNL     1      -4.070  -5.967   0.010  0.00  0.00    +0.022 A 
ATOM     24  C   UNL     1      -3.910  -4.594   0.021  0.00  0.00    +0.060 A 
ATOM     25 BR   UNL     1      -5.427  -3.465   0.048  0.00  0.00    -0.047 Br
BRANCH  22  26
ATOM     26  C   UNL     1      -3.137  -8.289  -0.010  0.00  0.00    +0.013 C 
ATOM     27  C   UNL     1      -3.901  -8.717   1.245  0.00  0.00    +0.012 C 
ATOM     28  C   UNL     1      -3.926  -8.706  -1.253  0.00  0.00    +0.012 C 
ENDBRANCH  22  26
ENDBRANCH  18  19
ENDBRANCH  17  18
ENDBRANCH   2  17
TORSDOF 8
