REMARK  Name = ZINC09834756
REMARK  7 active torsions:
REMARK  status: ('A' for Active; 'I' for Inactive)
REMARK    1  A    between atoms: C_1  and  C_2
REMARK    2  A    between atoms: C_8  and  N_21
REMARK    3  A    between atoms: C_9  and  S_11
REMARK    4  A    between atoms: S_11  and  C_14
REMARK    5  A    between atoms: N_24  and  C_27
REMARK    6  A    between atoms: C_30  and  O_33
REMARK    7  A    between atoms: O_33  and  C_34
REMARK                            x       y       z     vdW  Elec       q    Type
REMARK                         _______ _______ _______ _____ _____    ______ ____
ROOT
ATOM      1  C   UNL     1      -2.564   3.842  -0.277  0.00  0.00    +0.044 C 
ATOM      2  C   UNL     1      -1.235   3.136  -0.205  0.00  0.00    -0.050 A 
ATOM      3  C   UNL     1      -1.194   1.744  -0.215  0.00  0.00    +0.005 A 
ATOM      4  C   UNL     1      -0.009   1.077  -0.146  0.00  0.00    +0.026 A 
ATOM      5  C   UNL     1       1.195   1.798  -0.075  0.00  0.00    +0.048 A 
ATOM      6  C   UNL     1       1.150   3.213  -0.071  0.00  0.00    +0.021 A 
ATOM      7  C   UNL     1      -0.087   3.868  -0.137  0.00  0.00    +0.015 A 
ATOM      8  C   UNL     1       2.364   3.936   0.001  0.00  0.00    +0.066 A 
ATOM      9  C   UNL     1       3.546   3.215   0.063  0.00  0.00    +0.131 A 
ATOM     10  C   UNL     1       3.506   1.827   0.054  0.00  0.00    +0.112 A 
ATOM     11  N   UNL     1       2.375   1.088  -0.014  0.00  0.00    -0.359 N 
ATOM     12  H   UNL     1       2.394   0.061  -0.018  0.00  0.00    +0.165 HD
ENDROOT
BRANCH   8  13
ATOM     13  N   UNL     1       2.371   5.323   0.009  0.00  0.00    -0.325 N 
ATOM     14  C   UNL     1       1.675   5.846   1.192  0.00  0.00    +0.124 C 
ATOM     15  C   UNL     1       1.774   7.373   1.205  0.00  0.00    +0.124 C 
ATOM     16  N   UNL     1       1.184   7.910  -0.030  0.00  0.00    -0.327 N 
ATOM     17  C   UNL     1       1.881   7.387  -1.213  0.00  0.00    +0.124 C 
ATOM     18  C   UNL     1       1.782   5.859  -1.226  0.00  0.00    +0.124 C 
BRANCH  16  19
ATOM     19  C   UNL     1       1.191   9.309  -0.022  0.00  0.00    +0.030 A 
ATOM     20  C   UNL     1       1.813  10.007  -1.050  0.00  0.00    +0.027 A 
ATOM     21  C   UNL     1       1.814  11.388  -1.044  0.00  0.00    +0.047 A 
ATOM     22  C   UNL     1       1.206  12.078  -0.006  0.00  0.00    +0.120 A 
ATOM     23  C   UNL     1       0.590  11.382   1.024  0.00  0.00    +0.047 A 
ATOM     24  C   UNL     1       0.582  10.001   1.016  0.00  0.00    +0.027 A 
BRANCH  22  25
ATOM     25  O   UNL     1       1.213  13.438   0.002  0.00  0.00    -0.495 OA
ATOM     26  C   UNL     1       1.866  14.090  -1.090  0.00  0.00    +0.277 C 
ENDBRANCH  22  25
ENDBRANCH  16  19
ENDBRANCH   8  13
BRANCH   9  27
ATOM     27  S   UNL     1       5.092   4.055   0.153  0.00  0.00    +0.028 S 
ATOM     28  O   UNL     1       4.965   5.031   1.178  0.00  0.00    -0.164 OA
ATOM     29  O   UNL     1       6.099   3.052   0.177  0.00  0.00    -0.164 OA
BRANCH  27  30
ATOM     30  C   UNL     1       5.295   4.936  -1.359  0.00  0.00    +0.094 A 
ATOM     31  C   UNL     1       5.925   4.332  -2.432  0.00  0.00    +0.029 A 
ATOM     32  C   UNL     1       6.079   5.020  -3.620  0.00  0.00    +0.022 A 
ATOM     33  C   UNL     1       5.614   6.318  -3.733  0.00  0.00    +0.041 A 
ATOM     34  C   UNL     1       4.989   6.924  -2.658  0.00  0.00    +0.022 A 
ATOM     35  C   UNL     1       4.830   6.233  -1.472  0.00  0.00    +0.029 A 
ATOM     36 CL   UNL     1       5.813   7.186  -5.223  0.00  0.00    -0.084 Cl
ENDBRANCH  27  30
ENDBRANCH   9  27
TORSDOF 5
