REMARK  Name = ZINC66981455
REMARK  8 active torsions:
REMARK  status: ('A' for Active; 'I' for Inactive)
REMARK    1  A    between atoms: C_1  and  C_2
REMARK    2  A    between atoms: C_5  and  C_28
REMARK    3  A    between atoms: N_8  and  C_10
REMARK    4  A    between atoms: C_10  and  C_11
REMARK    5  A    between atoms: C_11  and  N_12
REMARK    6  A    between atoms: N_15  and  C_16
REMARK    7  A    between atoms: C_18  and  N_24
REMARK    8  A    between atoms: C_25  and  C_27
REMARK                            x       y       z     vdW  Elec       q    Type
REMARK                         _______ _______ _______ _____ _____    ______ ____
ROOT
ATOM      1  N   UNL     1       3.756  -2.474   3.359  0.00  0.00    -0.301 N 
ATOM      2  C   UNL     1       5.078  -2.224   3.443  0.00  0.00    +0.304 C 
ATOM      3  O   UNL     1       5.632  -1.585   2.569  0.00  0.00    -0.253 OA
ATOM      4  N   UNL     1       5.785  -2.681   4.495  0.00  0.00    -0.267 N 
ATOM      5  H   UNL     1       3.314  -2.984   4.056  0.00  0.00    +0.150 HD
ATOM      6  H   UNL     1       5.333  -3.134   5.224  0.00  0.00    +0.156 HD
ENDROOT
BRANCH   4   7
ATOM      7  C   UNL     1       7.175  -2.501   4.537  0.00  0.00    +0.072 A 
ATOM      8  C   UNL     1       7.743  -1.354   4.002  0.00  0.00    +0.052 A 
ATOM      9  C   UNL     1       9.118  -1.179   4.045  0.00  0.00    +0.071 A 
ATOM     10  C   UNL     1       9.925  -2.152   4.624  0.00  0.00    +0.147 A 
ATOM     11  C   UNL     1       9.356  -3.296   5.156  0.00  0.00    +0.080 A 
ATOM     12  C   UNL     1       7.984  -3.470   5.119  0.00  0.00    +0.147 A 
ATOM     13  F   UNL     1       7.431  -4.585   5.645  0.00  0.00    -0.203 F 
ATOM     14  F   UNL     1      11.264  -1.982   4.666  0.00  0.00    -0.203 F 
BRANCH   9  15
ATOM     15  N   UNL     1       9.694  -0.021   3.505  0.00  0.00    -0.283 N 
ATOM     16  C   UNL     1       9.043   1.157   3.585  0.00  0.00    +0.214 C 
ATOM     17  O   UNL     1       7.925   1.200   4.052  0.00  0.00    -0.276 OA
ATOM     18  C   UNL     1       9.705   2.419   3.095  0.00  0.00    +0.109 C 
ATOM     19  H   UNL     1      10.562  -0.067   3.074  0.00  0.00    +0.155 HD
ENDBRANCH   9  15
ENDBRANCH   4   7
BRANCH   1  20
ATOM     20  C   UNL     1       2.987  -1.978   2.216  0.00  0.00    +0.087 C 
BRANCH  20  21
ATOM     21  C   UNL     1       1.524  -2.397   2.364  0.00  0.00    -0.060 C 
BRANCH  21  27
ATOM     22  C   UNL     1       0.010   1.624   0.017  0.00  0.00    +0.005 C 
ATOM     23  C   UNL     1       0.015   0.094  -0.004  0.00  0.00    -0.031 C 
ATOM     24  C   UNL     1      -1.426  -0.423   0.006  0.00  0.00    +0.003 C 
ATOM     25  C   UNL     1      -1.409  -1.953   0.065  0.00  0.00    -0.031 C 
ATOM     26  C   UNL     1      -0.624  -2.402   1.299  0.00  0.00    -0.076 C 
ATOM     27  N   UNL     1       0.753  -1.899   1.217  0.00  0.00    +0.381 N 
ATOM     28  C   UNL     1       0.749  -0.431   1.232  0.00  0.00    -0.076 C 
ATOM     29  C   UNL     1      -2.844  -2.477   0.153  0.00  0.00    +0.005 C 
ATOM     30  H   UNL     1       1.178  -2.224   0.362  0.00  0.00    -0.082 HD
ENDBRANCH  21  27
ENDBRANCH  20  21
ENDBRANCH   1  20
TORSDOF 5
