REMARK  Name = ZINC08744343
REMARK  9 active torsions:
REMARK  status: ('A' for Active; 'I' for Inactive)
REMARK    1  A    between atoms: C_1  and  O_2
REMARK    2  A    between atoms: O_2  and  C_3
REMARK    3  A    between atoms: C_7  and  C_9
REMARK    4  A    between atoms: C_12  and  C_14
REMARK    5  A    between atoms: C_14  and  C_29
REMARK    6  A    between atoms: C_15  and  N_16
REMARK    7  A    between atoms: N_16  and  C_17
REMARK    8  A    between atoms: C_20  and  S_23
REMARK    9  A    between atoms: S_23  and  N_26
REMARK                            x       y       z     vdW  Elec       q    Type
REMARK                         _______ _______ _______ _____ _____    ______ ____
ROOT
ATOM      1  N   UNL     1       3.393   8.213  -0.500  0.00  0.00    -0.319 N 
ATOM      2  H   UNL     1       4.257   7.778  -0.435  0.00  0.00    +0.152 HD
ENDROOT
BRANCH   1   3
ATOM      3  C   UNL     1       3.285   9.590  -0.286  0.00  0.00    +0.031 A 
ATOM      4  C   UNL     1       2.048  10.215  -0.385  0.00  0.00    +0.025 A 
ATOM      5  C   UNL     1       1.945  11.575  -0.168  0.00  0.00    +0.031 A 
ATOM      6  C   UNL     1       3.072  12.316   0.136  0.00  0.00    +0.111 A 
ATOM      7  C   UNL     1       4.306  11.698   0.228  0.00  0.00    +0.031 A 
ATOM      8  C   UNL     1       4.415  10.337   0.019  0.00  0.00    +0.025 A 
BRANCH   6   9
ATOM      9  S   UNL     1       2.937  14.052   0.405  0.00  0.00    +0.080 S 
ATOM     10  O   UNL     1       1.593  14.298   0.798  0.00  0.00    -0.148 OA
ATOM     11  O   UNL     1       4.046  14.426   1.210  0.00  0.00    -0.148 OA
BRANCH   9  12
ATOM     12  N   UNL     1       3.144  14.793  -1.061  0.00  0.00    -0.228 N 
ATOM     13  C   UNL     1       2.228  14.596  -2.067  0.00  0.00    +0.186 C 
ATOM     14  N   UNL     1       2.400  15.211  -3.284  0.00  0.00    -0.370 N 
ATOM     15  H   UNL     1       3.913  15.366  -1.211  0.00  0.00    +0.191 HD
ATOM     16  H   UNL     1       0.494  13.625  -2.514  0.00  0.00    +0.159 HD
ATOM     17  H   UNL     1       3.169  15.784  -3.434  0.00  0.00    +0.159 HD
ATOM     18  H   UNL     1       1.754  15.072  -3.994  0.00  0.00    +0.159 HD
ATOM     19  N   UNL     1       1.201  13.802  -1.800  0.00  0.00    -0.370 N 
ATOM     20  H   UNL     1       1.117  13.366  -0.874  0.00  0.00    +0.159 HD
ENDBRANCH   9  12
ENDBRANCH   6   9
ENDBRANCH   1   3
BRANCH   1  22
ATOM     21  C   UNL     1       2.384   6.136  -1.008  0.00  0.00    +0.098 C 
ATOM     22  C   UNL     1       2.280   7.479  -0.800  0.00  0.00    +0.093 C 
BRANCH  21  26
ATOM     23  C   UNL     1      -0.097   3.495  -1.845  0.00  0.00    +0.079 A 
ATOM     24  C   UNL     1      -1.215   4.282  -1.892  0.00  0.00    +0.075 A 
ATOM     25  S   UNL     1      -0.513   5.882  -1.512  0.00  0.00    -0.074 S 
ATOM     26  C   UNL     1       1.182   5.344  -1.332  0.00  0.00    +0.120 A 
ATOM     27  N   UNL     1       1.072   4.044  -1.561  0.00  0.00    -0.238 NA
BRANCH  23  32
ATOM     28  C   UNL     1       0.826  -0.136  -2.199  0.00  0.00    +0.121 A 
ATOM     29  C   UNL     1      -0.387  -0.684  -2.592  0.00  0.00    +0.045 A 
ATOM     30  C   UNL     1      -1.499   0.123  -2.741  0.00  0.00    +0.004 A 
ATOM     31  C   UNL     1      -1.410   1.479  -2.500  0.00  0.00    +0.010 A 
ATOM     32  C   UNL     1      -0.196   2.038  -2.105  0.00  0.00    +0.004 A 
ATOM     33  C   UNL     1       0.925   1.224  -1.955  0.00  0.00    +0.055 A 
BRANCH  28  35
ATOM     34  C   UNL     1       1.743  -2.326  -2.323  0.00  0.00    +0.277 C 
ATOM     35  O   UNL     1       1.917  -0.933  -2.054  0.00  0.00    -0.495 OA
ENDBRANCH  28  35
ENDBRANCH  23  32
ENDBRANCH  21  26
BRANCH  21  36
ATOM     36  C   UNL     1       3.661   5.495  -0.912  0.00  0.00    +0.103 C 
ATOM     37  N   UNL     1       4.673   4.986  -0.836  0.00  0.00    -0.191 NA
ENDBRANCH  21  36
ENDBRANCH   1  22
TORSDOF 8
